REMARK  Name = 158795
REMARK  6 active torsions:
REMARK  status: ('A' for Active; 'I' for Inactive)
REMARK    1  A    between atoms: N_1  and  C1*_11
REMARK    2  A    between atoms: C2*_12  and  O2*_15
REMARK    3  A    between atoms: C3*_13  and  O3*_17
REMARK    4  A    between atoms: C4*_14  and  C5*_19
REMARK    5  A    between atoms: C5*_19  and  O5*_20
REMARK    6  A    between atoms: N_22  and  C_25
REMARK                            x       y       z     vdW  Elec       q    Type
REMARK                         _______ _______ _______ _____ _____    ______ ____
ROOT
ATOM      1  N   UNL     1       1.210   0.061   0.295  0.00  0.00    -0.247 N 
ATOM      2  N   UNL     1      -0.527   1.450   0.115  0.00  0.00    -0.242 NA
ATOM      3  N   UNL     1       0.030  -2.034   0.644  0.00  0.00    -0.228 NA
ATOM      4  N   UNL     1      -2.388  -1.703   0.641  0.00  0.00    -0.228 NA
ATOM      5  C   UNL     1       0.090  -0.710   0.437  0.00  0.00    +0.152 C 
ATOM      6  C   UNL     1      -0.975   0.169   0.322  0.00  0.00    +0.140 C 
ATOM      7  C   UNL     1       0.786   1.351   0.104  0.00  0.00    +0.223 C 
ATOM      8  C   UNL     1      -2.252  -0.372   0.431  0.00  0.00    +0.146 C 
ATOM      9  C   UNL     1      -1.255  -2.441   0.733  0.00  0.00    +0.253 C 
ATOM     10  N   UNL     1      -3.390   0.446   0.325  0.00  0.00    -0.316 N 
ATOM     11  H   UNL     1      -3.262   1.410   0.172  0.00  0.00    +0.148 HD
ENDROOT
BRANCH   1  13
ATOM     12  O4* UNL     1       3.428   0.639   0.906  0.00  0.00    -0.333 OA
ATOM     13  C1* UNL     1       2.598  -0.392   0.337  0.00  0.00    +0.225 C 
ATOM     14  C2* UNL     1       3.190  -0.705  -1.029  0.00  0.00    +0.187 C 
ATOM     15  C3* UNL     1       4.670  -0.510  -0.768  0.00  0.00    +0.171 C 
ATOM     16  C4* UNL     1       4.679   0.685   0.181  0.00  0.00    +0.175 C 
BRANCH  14  17
ATOM     17  O2* UNL     1       2.871  -2.015  -1.453  0.00  0.00    -0.378 OA
ATOM     18  H2* UNL     1       1.915  -2.082  -1.604  0.00  0.00    +0.211 HD
ENDBRANCH  14  17
BRANCH  15  19
ATOM     19  O3* UNL     1       5.187  -1.648  -0.079  0.00  0.00    -0.379 OA
ATOM     20  H3* UNL     1       5.186  -2.414  -0.675  0.00  0.00    +0.211 HD
ENDBRANCH  15  19
BRANCH  16  21
ATOM     21  C5* UNL     1       4.763   2.020  -0.546  0.00  0.00    +0.169 C 
BRANCH  21  22
ATOM     22  O5* UNL     1       4.754   3.061   0.415  0.00  0.00    -0.379 OA
ATOM     23  H5* UNL     1       4.808   3.918  -0.036  0.00  0.00    +0.211 HD
ENDBRANCH  21  22
ENDBRANCH  16  21
ENDBRANCH   1  13
BRANCH  10  25
ATOM     24  O   UNL     1      -6.122   1.573  -0.603  0.00  0.00    -0.352 OA
ATOM     25  C   UNL     1      -4.741  -0.062   0.430  0.00  0.00    +0.103 C 
ATOM     26  C   UNL     1      -5.207  -0.593  -0.904  0.00  0.00    +0.054 C 
ATOM     27  C   UNL     1      -5.717   1.072   0.681  0.00  0.00    +0.162 C 
ATOM     28  C   UNL     1      -5.681   0.659  -1.615  0.00  0.00    +0.144 C 
ENDBRANCH  10  25
TORSDOF 6
