REMARK  Name = 5702627
REMARK  4 active torsions:
REMARK  status: ('A' for Active; 'I' for Inactive)
REMARK    1  A    between atoms: CB_1  and  CG_3
REMARK    2  A    between atoms: CA_2  and  N_9
REMARK    3  A    between atoms: CA_2  and  C_13
REMARK    4  A    between atoms: C_13  and  O_14
REMARK                            x       y       z     vdW  Elec       q    Type
REMARK                         _______ _______ _______ _____ _____    ______ ____
ROOT
ATOM      1  CB  PHE A   1       0.548   0.583   0.246  0.00  0.00    +0.021 C 
ATOM      2  CA  PHE A   1       1.536  -0.273  -0.116  0.00  0.00    +0.118 C 
ENDROOT
BRANCH   1   3
ATOM      3  CG  PHE A   1      -0.878   0.322   0.135  0.00  0.00    +0.001 C 
ATOM      4  CD1 PHE A   1      -1.567   0.689  -1.020  0.00  0.00    +0.000 C 
ATOM      5  CD2 PHE A   1      -1.556  -0.297   1.185  0.00  0.00    +0.000 C 
ATOM      6  CE1 PHE A   1      -2.935   0.437  -1.127  0.00  0.00    +0.000 C 
ATOM      7  CE2 PHE A   1      -2.924  -0.550   1.079  0.00  0.00    +0.000 C 
ATOM      8  CZ  PHE A   1      -3.614  -0.183  -0.077  0.00  0.00    +0.000 C 
ENDBRANCH   1   3
BRANCH   2   9
ATOM      9  N   PHE A   1       1.377  -1.530  -0.627  0.00  0.00    -0.352 N 
ATOM     10  H1  PHE A   1       0.473  -1.890  -0.776  0.00  0.00    +0.143 HD
ATOM     11  H2  PHE A   1       2.167  -2.075  -0.846  0.00  0.00    +0.143 HD
ENDBRANCH   2   9
BRANCH   2  13
ATOM     12  OXT PHE A   1       3.249   1.304   0.544  0.00  0.00    -0.244 OA
ATOM     13  C   PHE A   1       2.932   0.216   0.087  0.00  0.00    +0.351 C 
BRANCH  13  14
ATOM     14  O   PHE A   1       3.832  -0.718  -0.309  0.00  0.00    -0.476 OA
ATOM     15  H   PHE A   1       3.536  -1.537  -0.653  0.00  0.00    +0.295 HD
ENDBRANCH  13  14
ENDBRANCH   2  13
TORSDOF 4
