REMARK  Name = 14221359
REMARK  5 active torsions:
REMARK  status: ('A' for Active; 'I' for Inactive)
REMARK    1  A    between atoms: CA_1  and  N_2
REMARK    2  A    between atoms: CA_1  and  C_7
REMARK    3  A    between atoms: CA_1  and  C_10
REMARK    4  A    between atoms: C_7  and  O_8
REMARK    5  A    between atoms: C_10  and  N_12
REMARK                            x       y       z     vdW  Elec       q    Type
REMARK                         _______ _______ _______ _____ _____    ______ ____
ROOT
ATOM      1  CA  UNL     1      -0.043   0.443  -0.426  0.00  0.00    +0.016 C 
ENDROOT
BRANCH   1   2
ATOM      2  N   UNL     1      -0.009   1.903  -0.280  0.00  0.00    +0.387 N 
ATOM      3  H1  UNL     1      -0.910   2.293  -0.556  0.00  0.00    -0.089 HD
ATOM      4  H2  UNL     1       0.725   2.287  -0.875  0.00  0.00    -0.089 HD
ATOM      5  H3  UNL     1       0.181   2.143   0.693  0.00  0.00    -0.089 HD
ENDBRANCH   1   2
BRANCH   1   7
ATOM      6  OXT UNL     1       2.004   0.387   0.907  0.00  0.00    -0.253 OA
ATOM      7  C   UNL     1       1.323  -0.076   0.000  0.00  0.00    +0.291 C 
BRANCH   7   8
ATOM      8  O   UNL     1       1.719  -1.145  -0.740  0.00  0.00    -0.482 OA
ATOM      9  H   UNL     1       1.169  -1.469  -1.426  0.00  0.00    +0.295 HD
ENDBRANCH   7   8
ENDBRANCH   1   7
BRANCH   1  10
ATOM     10  C   UNL     1      -1.216  -0.185   0.357  0.00  0.00    -0.076 C 
ATOM     11  C   UNL     1      -2.602   0.320  -0.057  0.00  0.00    -0.026 C 
BRANCH  10  12
ATOM     12  N   UNL     1      -1.176  -1.647   0.238  0.00  0.00    +0.381 N 
ATOM     13  H   UNL     1      -0.254  -1.985   0.513  0.00  0.00    -0.089 HD
ATOM     14  H   UNL     1      -1.362  -1.914  -0.729  0.00  0.00    -0.089 HD
ATOM     15  H   UNL     1      -1.884  -2.057   0.846  0.00  0.00    -0.089 HD
ENDBRANCH  10  12
ENDBRANCH   1  10
TORSDOF 5
