REMARK  Name = 448009
REMARK  10 active torsions:
REMARK  status: ('A' for Active; 'I' for Inactive)
REMARK    1  A    between atoms: C_1  and  N_2
REMARK    2  A    between atoms: C_1  and  C_6
REMARK    3  A    between atoms: C_1  and  C_10
REMARK    4  A    between atoms: C_1  and  C_14
REMARK    5  A    between atoms: C_6  and  C_7
REMARK    6  A    between atoms: C_7  and  O_8
REMARK    7  A    between atoms: C_10  and  C_11
REMARK    8  A    between atoms: C_11  and  O_12
REMARK    9  A    between atoms: C_14  and  C_15
REMARK   10  A    between atoms: C_15  and  O_16
REMARK                            x       y       z     vdW  Elec       q    Type
REMARK                         _______ _______ _______ _____ _____    ______ ____
ROOT
ATOM      1  C   UNL     1      -0.013   0.449   0.326  0.00  0.00    -0.042 C 
ENDROOT
BRANCH   1   2
ATOM      2  N   UNL     1      -0.081   1.214   1.583  0.00  0.00    +0.383 N 
ATOM      3  H   UNL     1      -0.115   2.212   1.373  0.00  0.00    -0.089 HD
ATOM      4  H   UNL     1       0.744   1.013   2.148  0.00  0.00    -0.089 HD
ATOM      5  H   UNL     1      -0.920   0.947   2.099  0.00  0.00    -0.089 HD
ENDBRANCH   1   2
BRANCH   1   6
ATOM      6  C   UNL     1       1.238   0.901  -0.478  0.00  0.00    +0.012 C 
BRANCH   6   7
ATOM      7  C   UNL     1       2.595   0.579   0.145  0.00  0.00    +0.135 C 
BRANCH   7   8
ATOM      8  O   UNL     1       3.616   1.033  -0.737  0.00  0.00    -0.382 OA
ATOM      9  H   UNL     1       4.485   0.835  -0.355  0.00  0.00    +0.210 HD
ENDBRANCH   7   8
ENDBRANCH   6   7
ENDBRANCH   1   6
BRANCH   1  10
ATOM     10  C   UNL     1      -1.270   0.809  -0.514  0.00  0.00    +0.012 C 
BRANCH  10  11
ATOM     11  C   UNL     1      -2.619   0.516   0.143  0.00  0.00    +0.135 C 
BRANCH  11  12
ATOM     12  O   UNL     1      -3.653   0.924  -0.746  0.00  0.00    -0.382 OA
ATOM     13  H   UNL     1      -4.516   0.744  -0.342  0.00  0.00    +0.210 HD
ENDBRANCH  11  12
ENDBRANCH  10  11
ENDBRANCH   1  10
BRANCH   1  14
ATOM     14  C   UNL     1       0.035  -1.051   0.708  0.00  0.00    +0.012 C 
BRANCH  14  15
ATOM     15  C   UNL     1       0.039  -2.023  -0.469  0.00  0.00    +0.135 C 
BRANCH  15  16
ATOM     16  O   UNL     1       0.113  -3.350   0.040  0.00  0.00    -0.382 OA
ATOM     17  H   UNL     1       0.116  -3.980  -0.698  0.00  0.00    +0.210 HD
ENDBRANCH  15  16
ENDBRANCH  14  15
ENDBRANCH   1  14
TORSDOF 10
