REMARK  Name = 446240
REMARK  5 active torsions:
REMARK  status: ('A' for Active; 'I' for Inactive)
REMARK    1  A    between atoms: N_2  and  C_17
REMARK    2  A    between atoms: C_3  and  C_5
REMARK    3  A    between atoms: C_6  and  S_11
REMARK    4  A    between atoms: S_11  and  N_14
REMARK    5  A    between atoms: C_17  and  C_21
REMARK                            x       y       z     vdW  Elec       q    Type
REMARK                         _______ _______ _______ _____ _____    ______ ____
ROOT
ATOM      1  O   UNL     1       0.121   2.538   0.396  0.00  0.00    -0.270 OA
ATOM      2  N   UNL     1       0.683   0.931  -1.178  0.00  0.00    -0.297 N 
ATOM      3  C   UNL     1      -0.200   1.546  -0.283  0.00  0.00    +0.246 C 
ATOM      4  H   UNL     1       0.363   0.149  -1.684  0.00  0.00    +0.150 HD
ENDROOT
BRANCH   3   5
ATOM      5  C   UNL     1      -1.524   0.960  -0.154  0.00  0.00    +0.053 C 
ATOM      6  C   UNL     1      -4.065  -0.166   0.094  0.00  0.00    +0.122 C 
ATOM      7  C   UNL     1      -2.239   1.107   1.034  0.00  0.00    +0.006 C 
ATOM      8  C   UNL     1      -2.080   0.251  -1.219  0.00  0.00    +0.006 C 
ATOM      9  C   UNL     1      -3.509   0.544   1.159  0.00  0.00    +0.020 C 
ATOM     10  C   UNL     1      -3.350  -0.313  -1.095  0.00  0.00    +0.020 C 
BRANCH   6  11
ATOM     11  S   UNL     1      -5.655  -0.869   0.250  0.00  0.00    +0.057 S 
ATOM     12  O   UNL     1      -6.388  -0.127   1.267  0.00  0.00    -0.153 OA
ATOM     13  O   UNL     1      -6.224  -1.025  -1.082  0.00  0.00    -0.153 OA
BRANCH  11  14
ATOM     14  N   UNL     1      -5.269  -2.415   0.866  0.00  0.00    -0.203 NA
ATOM     15  H   UNL     1      -6.127  -2.948   1.008  0.00  0.00    +0.144 HD
ATOM     16  H   UNL     1      -4.780  -2.314   1.755  0.00  0.00    +0.144 HD
ENDBRANCH  11  14
ENDBRANCH   6  11
ENDBRANCH   3   5
BRANCH   2  17
ATOM     17  C   UNL     1       2.039   1.380  -1.399  0.00  0.00    +0.119 C 
BRANCH  17  21
ATOM     18  F   UNL     1       3.331  -1.026  -2.122  0.00  0.00    -0.202 F 
ATOM     19  F   UNL     1       5.106  -2.290  -0.483  0.00  0.00    -0.199 F 
ATOM     20  F   UNL     1       5.700  -1.236   1.969  0.00  0.00    -0.202 F 
ATOM     21  C   UNL     1       3.017   0.679  -0.501  0.00  0.00    +0.027 C 
ATOM     22  C   UNL     1       3.616  -0.503  -0.922  0.00  0.00    +0.167 C 
ATOM     23  C   UNL     1       3.314   1.222   0.743  0.00  0.00    +0.002 C 
ATOM     24  C   UNL     1       4.524  -1.151  -0.085  0.00  0.00    +0.194 C 
ATOM     25  C   UNL     1       4.222   0.573   1.580  0.00  0.00    +0.032 C 
ATOM     26  C   UNL     1       4.827  -0.613   1.166  0.00  0.00    +0.170 C 
ENDBRANCH  17  21
ENDBRANCH   2  17
TORSDOF 5
