REMARK  Name = 21501
REMARK  1 active torsions:
REMARK  status: ('A' for Active; 'I' for Inactive)
REMARK    1  A    between atoms: C_6  and  N_13
REMARK                            x       y       z     vdW  Elec       q    Type
REMARK                         _______ _______ _______ _____ _____    ______ ____
ROOT
ATOM      1  N   UNL     1      -2.805  -0.687   0.000  0.00  0.00    -0.236 N 
ATOM      2  N   UNL     1      -3.350   0.541   0.000  0.00  0.00    -0.180 NA
ATOM      3  C   UNL     1      -1.064   0.646   0.000  0.00  0.00    +0.037 C 
ATOM      4  C   UNL     1      -1.437  -0.694   0.000  0.00  0.00    +0.067 C 
ATOM      5  C   UNL     1       0.301   0.980   0.000  0.00  0.00    +0.027 C 
ATOM      6  C   UNL     1       1.244  -0.056   0.000  0.00  0.00    +0.143 C 
ATOM      7  C   UNL     1      -0.513  -1.742   0.000  0.00  0.00    +0.018 C 
ATOM      8  C   UNL     1       0.841  -1.393   0.000  0.00  0.00    +0.025 C 
ATOM      9  C   UNL     1      -2.287   1.349   0.000  0.00  0.00    +0.119 C 
ATOM     10  H   UNL     1      -3.344  -1.511   0.000  0.00  0.00    +0.174 HD
ENDROOT
BRANCH   6  13
ATOM     11  O   UNL     1       3.465  -0.674   0.000  0.00  0.00    -0.126 OA
ATOM     12  O   UNL     1       2.976   1.466   0.000  0.00  0.00    -0.126 OA
ATOM     13  N   UNL     1       2.629   0.261   0.000  0.00  0.00    +0.058 N 
ENDBRANCH   6  13
TORSDOF 1
