REMARK  Name = 4369491
REMARK  2 active torsions:
REMARK  status: ('A' for Active; 'I' for Inactive)
REMARK    1  A    between atoms: C_10  and  C_21
REMARK    2  A    between atoms: C_17  and  O_27
REMARK                            x       y       z     vdW  Elec       q    Type
REMARK                         _______ _______ _______ _____ _____    ______ ____
ROOT
ATOM      1  O   UNL     1       1.626   3.003  -0.001  0.00  0.00    -0.270 OA
ATOM      2  O   UNL     1      -2.924   2.320   0.001  0.00  0.00    -0.270 OA
ATOM      3  N   UNL     1       1.619  -2.266  -0.002  0.00  0.00    -0.353 N 
ATOM      4  N   UNL     1      -0.704   3.036  -0.001  0.00  0.00    -0.248 N 
ATOM      5  C   UNL     1       1.198  -0.070  -0.001  0.00  0.00    +0.022 A 
ATOM      6  C   UNL     1       0.307   1.011  -0.001  0.00  0.00    +0.060 C 
ATOM      7  C   UNL     1       0.603  -1.342  -0.001  0.00  0.00    +0.057 A 
ATOM      8  C   UNL     1       2.619  -0.268  -0.001  0.00  0.00    +0.020 A 
ATOM      9  C   UNL     1      -1.072   0.810  -0.001  0.00  0.00    +0.058 C 
ATOM     10  C   UNL     1      -1.645  -0.442  -0.001  0.00  0.00    +0.006 C 
ATOM     11  C   UNL     1       2.845  -1.647  -0.001  0.00  0.00    +0.057 A 
ATOM     12  C   UNL     1      -0.794  -1.550  -0.001  0.00  0.00    +0.017 C 
ATOM     13  C   UNL     1       0.542   2.454  -0.001  0.00  0.00    +0.252 C 
ATOM     14  C   UNL     1      -1.725   2.118   0.000  0.00  0.00    +0.252 C 
ATOM     15  C   UNL     1       3.748   0.582   0.001  0.00  0.00    +0.038 C 
ATOM     16  C   UNL     1       4.127  -2.212   0.000  0.00  0.00    +0.020 C 
ATOM     17  C   UNL     1       5.036   0.032   0.002  0.00  0.00    +0.134 C 
ATOM     18  C   UNL     1       5.221  -1.346   0.001  0.00  0.00    +0.038 C 
ATOM     19  H   UNL     1       1.487  -3.241  -0.003  0.00  0.00    +0.166 HD
ATOM     20  H   UNL     1      -0.849   4.009  -0.001  0.00  0.00    +0.158 HD
ENDROOT
BRANCH  10  21
ATOM     21  C   UNL     1      -3.076  -0.648   0.000  0.00  0.00    +0.000 C 
ATOM     22  C   UNL     1      -3.767  -0.747   1.208  0.00  0.00    +0.000 C 
ATOM     23  C   UNL     1      -3.768  -0.748  -1.208  0.00  0.00    +0.000 C 
ATOM     24  C   UNL     1      -5.147  -0.946   1.209  0.00  0.00    +0.000 C 
ATOM     25  C   UNL     1      -5.149  -0.946  -1.207  0.00  0.00    +0.000 C 
ATOM     26  C   UNL     1      -5.838  -1.046   0.002  0.00  0.00    +0.000 C 
ENDBRANCH  10  21
BRANCH  17  27
ATOM     27  O   UNL     1       6.119   0.859   0.003  0.00  0.00    -0.506 OA
ATOM     28  H   UNL     1       5.999   1.788   0.003  0.00  0.00    +0.292 HD
ENDBRANCH  17  27
TORSDOF 2
