REMARK  Name = 97297
REMARK  5 active torsions:
REMARK  status: ('A' for Active; 'I' for Inactive)
REMARK    1  A    between atoms: N_2  and  C1*_12
REMARK    2  A    between atoms: C2*_13  and  O2*_16
REMARK    3  A    between atoms: C3*_14  and  O3*_18
REMARK    4  A    between atoms: C4*_15  and  C5*_20
REMARK    5  A    between atoms: C5*_20  and  O5*_21
REMARK                            x       y       z     vdW  Elec       q    Type
REMARK                         _______ _______ _______ _____ _____    ______ ____
ROOT
ATOM      1  I   UNL     1      -2.496  -3.476   0.608  0.00  0.00    -0.045 I 
ATOM      2  N   UNL     1      -0.095  -0.104  -0.181  0.00  0.00    -0.250 N 
ATOM      3  N   UNL     1      -1.475   1.852  -0.477  0.00  0.00    -0.233 NA
ATOM      4  N   UNL     1      -3.853   1.386  -0.248  0.00  0.00    -0.234 NA
ATOM      5  C   UNL     1      -1.305   0.540  -0.234  0.00  0.00    +0.122 C 
ATOM      6  C   UNL     1      -0.304  -1.435   0.088  0.00  0.00    +0.070 C 
ATOM      7  C   UNL     1      -2.304  -0.395   0.004  0.00  0.00    +0.136 C 
ATOM      8  C   UNL     1      -1.662  -1.643   0.207  0.00  0.00    +0.036 C 
ATOM      9  C   UNL     1      -3.617   0.075  -0.010  0.00  0.00    +0.110 C 
ATOM     10  C   UNL     1      -2.782   2.182  -0.464  0.00  0.00    +0.252 C 
ATOM     11  N   UNL     1      -4.713  -0.776   0.218  0.00  0.00    -0.346 N 
ATOM     12  H   UNL     1      -5.629  -0.414   0.201  0.00  0.00    +0.143 HD
ATOM     13  H   UNL     1      -4.566  -1.733   0.393  0.00  0.00    +0.143 HD
ENDROOT
BRANCH   2  15
ATOM     14  O4* UNL     1       2.109  -0.427  -0.998  0.00  0.00    -0.333 OA
ATOM     15  C1* UNL     1       1.214   0.515  -0.376  0.00  0.00    +0.227 C 
ATOM     16  C2* UNL     1       1.891   0.954   0.913  0.00  0.00    +0.187 C 
ATOM     17  C3* UNL     1       3.352   0.933   0.509  0.00  0.00    +0.171 C 
ATOM     18  C4* UNL     1       3.420  -0.289  -0.402  0.00  0.00    +0.175 C 
BRANCH  16  19
ATOM     19  O2* UNL     1       1.451   2.230   1.332  0.00  0.00    -0.378 OA
ATOM     20  H2* UNL     1       0.514   2.184   1.577  0.00  0.00    +0.211 HD
ENDBRANCH  16  19
BRANCH  17  21
ATOM     21  O3* UNL     1       3.650   2.098  -0.259  0.00  0.00    -0.379 OA
ATOM     22  H3* UNL     1       3.610   2.881   0.312  0.00  0.00    +0.211 HD
ENDBRANCH  17  21
BRANCH  18  23
ATOM     23  C5* UNL     1       3.744  -1.573   0.349  0.00  0.00    +0.169 C 
BRANCH  23  24
ATOM     24  O5* UNL     1       3.774  -2.644  -0.577  0.00  0.00    -0.379 OA
ATOM     25  H5* UNL     1       3.979  -3.470  -0.111  0.00  0.00    +0.211 HD
ENDBRANCH  23  24
ENDBRANCH  18  23
ENDBRANCH   2  15
TORSDOF 5
