REMARK  Name = 5287586
REMARK  10 active torsions:
REMARK  status: ('A' for Active; 'I' for Inactive)
REMARK    1  A    between atoms: C_8  and  N_16
REMARK    2  A    between atoms: N_16  and  C_18
REMARK    3  A    between atoms: C_18  and  C_19
REMARK    4  A    between atoms: C_19  and  C_20
REMARK    5  A    between atoms: C_20  and  C_21
REMARK    6  A    between atoms: C_21  and  C_22
REMARK    7  A    between atoms: C_22  and  C_23
REMARK    8  A    between atoms: C_23  and  C_24
REMARK    9  A    between atoms: C_24  and  C_25
REMARK   10  A    between atoms: C_25  and  N_26
REMARK                            x       y       z     vdW  Elec       q    Type
REMARK                         _______ _______ _______ _____ _____    ______ ____
ROOT
ATOM      1  N   UNL     1      -4.318  -0.797   0.397  0.00  0.00    -0.316 N 
ATOM      2  C   UNL     1      -2.820   1.033   0.213  0.00  0.00    -0.000 C 
ATOM      3  C   UNL     1      -2.554   2.515   0.188  0.00  0.00    +0.029 C 
ATOM      4  C   UNL     1      -4.112   0.531   0.408  0.00  0.00    +0.022 C 
ATOM      5  C   UNL     1      -3.684   3.337   0.813  0.00  0.00    +0.005 C 
ATOM      6  C   UNL     1      -5.290   1.413   0.690  0.00  0.00    +0.041 C 
ATOM      7  C   UNL     1      -5.042   2.868   0.299  0.00  0.00    +0.006 C 
ATOM      8  C   UNL     1      -1.780   0.131  -0.021  0.00  0.00    +0.039 C 
ATOM      9  C   UNL     1      -2.025  -1.248  -0.035  0.00  0.00    +0.008 C 
ATOM     10  C   UNL     1      -3.343  -1.700   0.184  0.00  0.00    +0.046 C 
ATOM     11  C   UNL     1      -1.012  -2.194  -0.260  0.00  0.00    +0.055 C 
ATOM     12  C   UNL     1      -3.631  -3.068   0.180  0.00  0.00    +0.014 C 
ATOM     13  C   UNL     1      -1.307  -3.558  -0.263  0.00  0.00    -0.021 C 
ATOM     14  C   UNL     1      -2.613  -3.994  -0.044  0.00  0.00    -0.003 C 
ATOM     15  H   UNL     1      -5.233  -1.128   0.552  0.00  0.00    +0.152 HD
ENDROOT
BRANCH   8  16
ATOM     16  N   UNL     1      -0.500   0.611  -0.249  0.00  0.00    -0.333 N 
ATOM     17  H   UNL     1       0.095   0.734   0.526  0.00  0.00    +0.147 HD
BRANCH  16  18
ATOM     18  C   UNL     1       0.010   0.943  -1.558  0.00  0.00    +0.087 C 
BRANCH  18  19
ATOM     19  C   UNL     1       1.429   1.499  -1.468  0.00  0.00    +0.021 C 
BRANCH  19  20
ATOM     20  C   UNL     1       2.421   0.490  -0.882  0.00  0.00    +0.002 C 
BRANCH  20  21
ATOM     21  C   UNL     1       3.829   1.084  -0.795  0.00  0.00    +0.000 C 
BRANCH  21  22
ATOM     22  C   UNL     1       4.816   0.089  -0.183  0.00  0.00    -0.000 C 
BRANCH  22  23
ATOM     23  C   UNL     1       6.215   0.695  -0.065  0.00  0.00    -0.002 C 
BRANCH  23  24
ATOM     24  C   UNL     1       7.210  -0.310   0.517  0.00  0.00    -0.024 C 
BRANCH  24  25
ATOM     25  C   UNL     1       8.592   0.311   0.663  0.00  0.00    -0.086 C 
BRANCH  25  26
ATOM     26  N   UNL     1       9.509  -0.682   1.271  0.00  0.00    +0.380 N 
ATOM     27  H   UNL     1      10.437  -0.271   1.372  0.00  0.00    -0.089 HD
ATOM     28  H   UNL     1       9.565  -1.505   0.671  0.00  0.00    -0.089 HD
ATOM     29  H   UNL     1       9.157  -0.954   2.189  0.00  0.00    -0.089 HD
ENDBRANCH  25  26
ENDBRANCH  24  25
ENDBRANCH  23  24
ENDBRANCH  22  23
ENDBRANCH  21  22
ENDBRANCH  20  21
ENDBRANCH  19  20
ENDBRANCH  18  19
ENDBRANCH  16  18
ENDBRANCH   8  16
TORSDOF 10
