REMARK  Name = 668
REMARK  7 active torsions:
REMARK  status: ('A' for Active; 'I' for Inactive)
REMARK    1  A    between atoms: O_1  and  P_2
REMARK    2  A    between atoms: O_1  and  C_8
REMARK    3  A    between atoms: P_2  and  O_4
REMARK    4  A    between atoms: P_2  and  O_6
REMARK    5  A    between atoms: C_8  and  C_10
REMARK    6  A    between atoms: C_10  and  C_11
REMARK    7  A    between atoms: C_11  and  O_12
REMARK                            x       y       z     vdW  Elec       q    Type
REMARK                         _______ _______ _______ _____ _____    ______ ____
ROOT
ATOM      1  O   UNL     1      -0.686   0.520   0.000  0.00  0.00    -0.265 OA
ENDROOT
BRANCH   1   2
ATOM      2  P   UNL     1      -2.240   0.055   0.002  0.00  0.00    +0.473 P 
ATOM      3  O   UNL     1      -3.235   1.179  -0.003  0.00  0.00    -0.227 OA
BRANCH   2   4
ATOM      4  O   UNL     1      -2.337  -0.949   1.266  0.00  0.00    -0.303 OA
ATOM      5  H   UNL     1      -1.659  -1.639   1.184  0.00  0.00    +0.222 HD
ENDBRANCH   2   4
BRANCH   2   6
ATOM      6  O   UNL     1      -2.326  -0.939  -1.270  0.00  0.00    -0.303 OA
ATOM      7  H   UNL     1      -1.651  -1.631  -1.186  0.00  0.00    +0.222 HD
ENDBRANCH   2   6
ENDBRANCH   1   2
BRANCH   1   8
ATOM      8  C   UNL     1       0.318  -0.473   0.004  0.00  0.00    +0.220 C 
BRANCH   8  10
ATOM      9  O   UNL     1       1.857   1.375   0.005  0.00  0.00    -0.291 OA
ATOM     10  C   UNL     1       1.696   0.156   0.001  0.00  0.00    +0.210 C 
BRANCH  10  11
ATOM     11  C   UNL     1       2.863  -0.810  -0.009  0.00  0.00    +0.205 C 
BRANCH  11  12
ATOM     12  O   UNL     1       4.090  -0.112   0.003  0.00  0.00    -0.375 OA
ATOM     13  H   UNL     1       4.823  -0.747  -0.004  0.00  0.00    +0.211 HD
ENDBRANCH  11  12
ENDBRANCH  10  11
ENDBRANCH   8  10
ENDBRANCH   1   8
TORSDOF 7
