REMARK  Name = 5287492
REMARK  6 active torsions:
REMARK  status: ('A' for Active; 'I' for Inactive)
REMARK    1  A    between atoms: N_2  and  C_12
REMARK    2  A    between atoms: C_8  and  C_24
REMARK    3  A    between atoms: C_12  and  C_15
REMARK    4  A    between atoms: C_15  and  C_17
REMARK    5  A    between atoms: C_24  and  C_25
REMARK    6  A    between atoms: C_26  and  N_31
REMARK                            x       y       z     vdW  Elec       q    Type
REMARK                         _______ _______ _______ _____ _____    ______ ____
ROOT
ATOM      1  O   UNL     1       2.574  -2.742   0.559  0.00  0.00    -0.446 OA
ATOM      2  N   UNL     1      -1.657  -0.818   0.407  0.00  0.00    -0.312 N 
ATOM      3  N   UNL     1      -1.449  -3.187   0.138  0.00  0.00    -0.227 NA
ATOM      4  N   UNL     1       1.361  -0.831   0.680  0.00  0.00    -0.369 NA
ATOM      5  C   UNL     1      -0.875  -1.960   0.340  0.00  0.00    +0.158 C 
ATOM      6  C   UNL     1       0.520  -1.897   0.474  0.00  0.00    +0.187 C 
ATOM      7  C   UNL     1       1.258  -3.068   0.399  0.00  0.00    +0.246 C 
ATOM      8  C   UNL     1       2.551  -1.389   0.721  0.00  0.00    +0.257 C 
ATOM      9  C   UNL     1       0.716  -4.324   0.197  0.00  0.00    +0.045 C 
ATOM     10  C   UNL     1      -0.667  -4.297   0.075  0.00  0.00    +0.100 C 
ATOM     11  H   UNL     1      -1.206   0.045   0.552  0.00  0.00    +0.148 HD
ENDROOT
BRANCH   2  12
ATOM     12  C   UNL     1      -3.095  -0.823   0.275  0.00  0.00    +0.153 C 
BRANCH  12  15
ATOM     13  F   UNL     1      -3.077   1.363  -0.599  0.00  0.00    -0.205 F 
ATOM     14  F   UNL     1      -3.267   1.142   1.562  0.00  0.00    -0.205 F 
ATOM     15  C   UNL     1      -3.618   0.595   0.375  0.00  0.00    +0.265 C 
BRANCH  15  17
ATOM     16  N   UNL     1      -5.541   0.072  -1.035  0.00  0.00    +0.389 N 
ATOM     17  C   UNL     1      -5.139   0.662   0.248  0.00  0.00    +0.003 C 
ATOM     18  C   UNL     1      -5.624   2.115   0.354  0.00  0.00    -0.016 C 
ATOM     19  C   UNL     1      -7.133   2.210   0.150  0.00  0.00    -0.004 C 
ATOM     20  C   UNL     1      -7.543   1.517  -1.144  0.00  0.00    -0.023 C 
ATOM     21  C   UNL     1      -6.993   0.094  -1.208  0.00  0.00    -0.081 C 
ATOM     22  H   UNL     1      -5.218  -0.895  -1.070  0.00  0.00    -0.084 HD
ATOM     23  H   UNL     1      -5.123   0.624  -1.784  0.00  0.00    -0.084 HD
ENDBRANCH  15  17
ENDBRANCH  12  15
ENDBRANCH   2  12
BRANCH   8  24
ATOM     24  C   UNL     1       3.857  -0.743   0.918  0.00  0.00    +0.127 C 
BRANCH  24  25
ATOM     25  C   UNL     1       3.784   0.770   1.096  0.00  0.00    +0.004 C 
ATOM     26  C   UNL     1       3.858   1.603  -0.001  0.00  0.00    +0.072 C 
ATOM     27  C   UNL     1       3.644   1.256   2.380  0.00  0.00    -0.002 C 
ATOM     28  C   UNL     1       3.788   2.983   0.194  0.00  0.00    +0.016 C 
ATOM     29  C   UNL     1       3.574   2.636   2.575  0.00  0.00    -0.000 C 
ATOM     30  C   UNL     1       3.646   3.499   1.482  0.00  0.00    +0.001 C 
BRANCH  26  31
ATOM     31  N   UNL     1       3.999   1.112  -1.288  0.00  0.00    -0.169 N 
ATOM     32  N   UNL     1       3.504  -0.084  -1.651  0.00  0.00    -0.150 NA
ATOM     33  N   UNL     1       4.555   0.950  -3.400  0.00  0.00    -0.203 NA
ATOM     34  C   UNL     1       4.623   1.718  -2.338  0.00  0.00    +0.190 C 
ATOM     35  C   UNL     1       3.867  -0.134  -2.935  0.00  0.00    +0.219 C 
ENDBRANCH  26  31
ENDBRANCH  24  25
ENDBRANCH   8  24
TORSDOF 6
