REMARK  Name = 11820
REMARK  0 active torsions:
REMARK  status: ('A' for Active; 'I' for Inactive)
REMARK                            x       y       z     vdW  Elec       q    Type
REMARK                         _______ _______ _______ _____ _____    ______ ____
ROOT
ATOM      1  O   UNL     1       3.303  -0.090  -0.001  0.00  0.00    -0.270 OA
ATOM      2  N   UNL     1       1.085  -0.820   0.000  0.00  0.00    -0.253 N 
ATOM      3  C   UNL     1      -0.304  -0.467   0.000  0.00  0.00    +0.054 C 
ATOM      4  C   UNL     1      -0.662   0.891   0.000  0.00  0.00    +0.014 C 
ATOM      5  C   UNL     1       0.377   1.913   0.000  0.00  0.00    +0.006 C 
ATOM      6  C   UNL     1      -1.325  -1.431   0.001  0.00  0.00    +0.015 C 
ATOM      7  C   UNL     1       2.095   0.148   0.000  0.00  0.00    +0.253 C 
ATOM      8  C   UNL     1      -2.012   1.268  -0.001  0.00  0.00    +0.001 C 
ATOM      9  C   UNL     1       1.666   1.570   0.001  0.00  0.00    +0.058 C 
ATOM     10  C   UNL     1       1.457  -2.232   0.000  0.00  0.00    +0.120 C 
ATOM     11  C   UNL     1      -2.668  -1.049   0.000  0.00  0.00    +0.001 C 
ATOM     12  C   UNL     1      -3.012   0.299  -0.001  0.00  0.00    +0.000 C 
ENDROOT
TORSDOF 0
