REMARK  Name = 5494425
REMARK  1 active torsions:
REMARK  status: ('A' for Active; 'I' for Inactive)
REMARK    1  A    between atoms: C_6  and  C_23
REMARK                            x       y       z     vdW  Elec       q    Type
REMARK                         _______ _______ _______ _____ _____    ______ ____
ROOT
ATOM      1  F   UNL     1      -4.314   3.083  -0.003  0.00  0.00    -0.204 F 
ATOM      2  O   UNL     1      -3.889  -1.651   0.001  0.00  0.00    -0.270 OA
ATOM      3  N   UNL     1       1.934   1.185  -0.002  0.00  0.00    -0.318 N 
ATOM      4  N   UNL     1       2.203  -1.014  -0.001  0.00  0.00    -0.318 N 
ATOM      5  N   UNL     1      -2.365  -3.339   0.001  0.00  0.00    -0.279 N 
ATOM      6  C   UNL     1       2.817   0.145  -0.002  0.00  0.00    +0.143 C 
ATOM      7  C   UNL     1       0.660   0.665  -0.002  0.00  0.00    +0.059 A 
ATOM      8  C   UNL     1       0.857  -0.711  -0.001  0.00  0.00    +0.059 A 
ATOM      9  C   UNL     1      -0.620   1.259  -0.002  0.00  0.00    +0.015 A 
ATOM     10  C   UNL     1      -0.267  -1.556   0.000  0.00  0.00    +0.020 A 
ATOM     11  C   UNL     1      -1.768   0.418  -0.001  0.00  0.00    +0.008 A 
ATOM     12  C   UNL     1      -1.572  -1.002  -0.001  0.00  0.00    +0.055 A 
ATOM     13  C   UNL     1      -0.717   2.668  -0.002  0.00  0.00    +0.004 C 
ATOM     14  C   UNL     1      -0.031  -2.995   0.000  0.00  0.00    +0.017 C 
ATOM     15  C   UNL     1      -3.014   1.100  -0.002  0.00  0.00    +0.030 C 
ATOM     16  C   UNL     1      -2.712  -1.993   0.000  0.00  0.00    +0.250 C 
ATOM     17  C   UNL     1      -1.963   3.281  -0.003  0.00  0.00    +0.030 C 
ATOM     18  C   UNL     1      -1.084  -3.813   0.001  0.00  0.00    +0.064 C 
ATOM     19  C   UNL     1      -3.108   2.499  -0.003  0.00  0.00    +0.140 C 
ATOM     20  H   UNL     1       2.168   2.141  -0.003  0.00  0.00    +0.148 HD
ATOM     21  H   UNL     1       2.614  -1.909  -0.001  0.00  0.00    +0.148 HD
ATOM     22  H   UNL     1      -3.096  -3.999   0.001  0.00  0.00    +0.155 HD
ENDROOT
BRANCH   6  23
ATOM     23  C   UNL     1       4.274   0.373  -0.001  0.00  0.00    +0.034 C 
ATOM     24  C   UNL     1       5.089  -0.969   0.001  0.00  0.00    +0.003 C 
ATOM     25  C   UNL     1       4.749   1.193   1.252  0.00  0.00    +0.003 C 
ATOM     26  C   UNL     1       4.842   1.175  -1.232  0.00  0.00    +0.003 C 
ENDBRANCH   6  23
TORSDOF 1
