REMARK  Name = 448610
REMARK  2 active torsions:
REMARK  status: ('A' for Active; 'I' for Inactive)
REMARK    1  A    between atoms: C_3  and  N_11
REMARK    2  A    between atoms: C_5  and  C_21
REMARK                            x       y       z     vdW  Elec       q    Type
REMARK                         _______ _______ _______ _____ _____    ______ ____
ROOT
ATOM      1  C   UNL     1      -0.936   0.659   0.136  0.00  0.00    +0.014 C 
ATOM      2  C   UNL     1      -1.731   1.816  -0.042  0.00  0.00    +0.001 C 
ATOM      3  C   UNL     1       0.448   0.799   0.324  0.00  0.00    +0.057 C 
ATOM      4  C   UNL     1      -1.550  -0.604   0.119  0.00  0.00    +0.004 C 
ATOM      5  C   UNL     1      -2.927  -0.725  -0.069  0.00  0.00    +0.031 C 
ATOM      6  C   UNL     1      -3.116   1.676  -0.230  0.00  0.00    +0.000 C 
ATOM      7  C   UNL     1      -1.118   3.080  -0.025  0.00  0.00    +0.000 C 
ATOM      8  C   UNL     1       1.041   2.062   0.338  0.00  0.00    +0.015 C 
ATOM      9  C   UNL     1      -3.708   0.413  -0.244  0.00  0.00    +0.003 C 
ATOM     10  C   UNL     1       0.259   3.200   0.163  0.00  0.00    +0.001 C 
ENDROOT
BRANCH   3  11
ATOM     11  N   UNL     1       1.291  -0.325   0.504  0.00  0.00    -0.257 N 
ATOM     12  N   UNL     1       3.135  -1.776   0.501  0.00  0.00    -0.180 NA
ATOM     13  N   UNL     1       3.306   0.444  -0.420  0.00  0.00    -0.203 NA
ATOM     14  C   UNL     1       2.637  -0.563   0.181  0.00  0.00    +0.091 C 
ATOM     15  C   UNL     1       4.430  -1.970   0.176  0.00  0.00    +0.108 C 
ATOM     16  C   UNL     1       4.596   0.182  -0.716  0.00  0.00    +0.165 C 
ATOM     17  C   UNL     1       5.217  -1.018  -0.439  0.00  0.00    +0.022 C 
ATOM     18  H   UNL     1       0.847  -1.088   0.940  0.00  0.00    +0.164 HD
ENDBRANCH   3  11
BRANCH   5  21
ATOM     19  N   UNL     1      -4.921  -2.192  -0.265  0.00  0.00    -0.343 N 
ATOM     20  N   UNL     1      -2.805  -3.120   0.089  0.00  0.00    -0.285 NA
ATOM     21  C   UNL     1      -3.548  -2.040  -0.081  0.00  0.00    +0.117 C 
ATOM     22  H   UNL     1      -5.320  -3.092  -0.269  0.00  0.00    +0.144 HD
ATOM     23  H   UNL     1      -5.491  -1.399  -0.390  0.00  0.00    +0.144 HD
ATOM     24  H   UNL     1      -3.224  -4.011   0.081  0.00  0.00    +0.188 HD
ENDBRANCH   5  21
TORSDOF 2
