REMARK  Name = 49866644
REMARK  5 active torsions:
REMARK  status: ('A' for Active; 'I' for Inactive)
REMARK    1  A    between atoms: CA_1  and  N_2
REMARK    2  A    between atoms: CA_1  and  C_7
REMARK    3  A    between atoms: CA_1  and  C_10
REMARK    4  A    between atoms: C_7  and  O_8
REMARK    5  A    between atoms: C_10  and  C_12
REMARK                            x       y       z     vdW  Elec       q    Type
REMARK                         _______ _______ _______ _____ _____    ______ ____
ROOT
ATOM      1  CA  UNL     1       0.257   0.625  -0.438  0.00  0.00    +0.044 C 
ENDROOT
BRANCH   1   2
ATOM      2  N   UNL     1       1.199   1.738  -0.592  0.00  0.00    +0.389 N 
ATOM      3  H1  UNL     1       0.699   2.565  -0.917  0.00  0.00    -0.088 HD
ATOM      4  H2  UNL     1       1.916   1.485  -1.272  0.00  0.00    -0.088 HD
ATOM      5  H3  UNL     1       1.639   1.938   0.306  0.00  0.00    -0.088 HD
ENDBRANCH   1   2
BRANCH   1   7
ATOM      6  OXT UNL     1       2.039  -0.506   0.793  0.00  0.00    -0.253 OA
ATOM      7  C   UNL     1       1.071  -0.565   0.046  0.00  0.00    +0.293 C 
BRANCH   7   8
ATOM      8  O   UNL     1       0.614  -1.738  -0.466  0.00  0.00    -0.482 OA
ATOM      9  H   UNL     1      -0.130  -1.742  -1.035  0.00  0.00    +0.295 HD
ENDBRANCH   7   8
ENDBRANCH   1   7
BRANCH   1  10
ATOM     10  C   UNL     1      -0.824   0.992   0.581  0.00  0.00    +0.061 C 
BRANCH  10  12
ATOM     11  O   UNL     1      -2.280  -0.699  -0.391  0.00  0.00    -0.288 OA
ATOM     12  C   UNL     1      -2.078   0.153   0.467  0.00  0.00    +0.206 C 
ENDBRANCH  10  12
ENDBRANCH   1  10
TORSDOF 5
