REMARK  Name = 70914
REMARK  7 active torsions:
REMARK  status: ('A' for Active; 'I' for Inactive)
REMARK    1  A    between atoms: CA_1  and  N_3
REMARK    2  A    between atoms: CA_1  and  C_8
REMARK    3  A    between atoms: CA_1  and  CB_11
REMARK    4  A    between atoms: C_8  and  O_9
REMARK    5  A    between atoms: CB_11  and  CG_12
REMARK    6  A    between atoms: CG_12  and  CD_14
REMARK    7  A    between atoms: CD_14  and  OE1_15
REMARK                            x       y       z     vdW  Elec       q    Type
REMARK                         _______ _______ _______ _____ _____    ______ ____
ROOT
ATOM      1  CA  GLU A   1      -0.749   0.574   0.514  0.00  0.00    +0.172 C 
ENDROOT
BRANCH   1   3
ATOM      2  O   UNK A   0      -2.478  -1.649   1.217  0.00  0.00    -0.275 OA
ATOM      3  N   GLU A   1      -1.515  -0.256  -0.381  0.00  0.00    -0.297 N 
ATOM      4  C   UNK A   0      -2.318  -1.301   0.050  0.00  0.00    +0.223 C 
ATOM      5  C   UNK A   0      -3.026  -1.986  -1.088  0.00  0.00    +0.095 C 
ATOM      6  H   GLU A   1      -1.467  -0.071  -1.346  0.00  0.00    +0.150 HD
ENDBRANCH   1   3
BRANCH   1   8
ATOM      7  OXT GLU A   1      -1.182   2.296  -1.152  0.00  0.00    -0.248 OA
ATOM      8  C   GLU A   1      -0.740   1.978  -0.056  0.00  0.00    +0.332 C 
BRANCH   8   9
ATOM      9  O   GLU A   1      -0.211   2.876   0.816  0.00  0.00    -0.479 OA
ATOM     10  H   GLU A   1       0.116   2.588   1.645  0.00  0.00    +0.295 HD
ENDBRANCH   8   9
ENDBRANCH   1   8
BRANCH   1  11
ATOM     11  CB  GLU A   1       0.650   0.011   0.792  0.00  0.00    +0.043 C 
BRANCH  11  12
ATOM     12  CG  GLU A   1       1.577  -0.107  -0.424  0.00  0.00    +0.112 C 
BRANCH  12  14
ATOM     13  OE2 GLU A   1       3.313  -1.039   1.008  0.00  0.00    -0.250 OA
ATOM     14  CD  GLU A   1       2.940  -0.680  -0.100  0.00  0.00    +0.314 C 
BRANCH  14  15
ATOM     15  OE1 GLU A   1       3.741  -0.716  -1.196  0.00  0.00    -0.480 OA
ATOM     16  HE1 GLU A   1       3.413  -0.431  -2.026  0.00  0.00    +0.295 HD
ENDBRANCH  14  15
ENDBRANCH  12  14
ENDBRANCH  11  12
ENDBRANCH   1  11
TORSDOF 7
