REMARK  Name = 447959
REMARK  3 active torsions:
REMARK  status: ('A' for Active; 'I' for Inactive)
REMARK    1  A    between atoms: N_1  and  C_16
REMARK    2  A    between atoms: C_4  and  C_11
REMARK    3  A    between atoms: C_19  and  O_22
REMARK                            x       y       z     vdW  Elec       q    Type
REMARK                         _______ _______ _______ _____ _____    ______ ____
ROOT
ATOM      1  N   UNL     1      -2.078  -1.702  -0.086  0.00  0.00    -0.247 N 
ATOM      2  N   UNL     1       0.135  -0.925  -0.002  0.00  0.00    -0.341 NA
ATOM      3  N   UNL     1      -0.346  -3.284  -0.126  0.00  0.00    -0.170 NA
ATOM      4  C   UNL     1       1.449  -1.232   0.012  0.00  0.00    +0.140 C 
ATOM      5  C   UNL     1      -0.698  -1.983  -0.070  0.00  0.00    +0.148 C 
ATOM      6  C   UNL     1       1.936  -2.522  -0.040  0.00  0.00    +0.051 C 
ATOM      7  C   UNL     1       0.983  -3.518  -0.109  0.00  0.00    +0.114 C 
ATOM      8  H   UNL     1      -2.645  -2.505  -0.136  0.00  0.00    +0.165 HD
ENDROOT
BRANCH   4  11
ATOM      9  S   UNL     1       3.888  -0.181  -0.634  0.00  0.00    -0.074 S 
ATOM     10  N   UNL     1       3.223   2.018   0.551  0.00  0.00    -0.407 NA
ATOM     11  C   UNL     1       2.331  -0.098   0.085  0.00  0.00    +0.155 C 
ATOM     12  C   UNL     1       2.159   1.144   0.664  0.00  0.00    +0.104 C 
ATOM     13  C   UNL     1       4.190   1.426  -0.115  0.00  0.00    +0.135 C 
ATOM     14  C   UNL     1       0.955   1.613   1.381  0.00  0.00    +0.063 C 
ATOM     15  C   UNL     1       5.490   2.053  -0.438  0.00  0.00    +0.074 C 
ENDBRANCH   4  11
BRANCH   1  16
ATOM     16  C   UNL     1      -2.807  -0.495  -0.044  0.00  0.00    +0.061 C 
ATOM     17  C   UNL     1      -2.259   0.670  -0.581  0.00  0.00    +0.052 C 
ATOM     18  C   UNL     1      -4.076  -0.467   0.535  0.00  0.00    +0.015 C 
ATOM     19  C   UNL     1      -2.981   1.863  -0.539  0.00  0.00    +0.135 C 
ATOM     20  C   UNL     1      -4.797   0.726   0.577  0.00  0.00    +0.004 C 
ATOM     21  C   UNL     1      -4.250   1.891   0.040  0.00  0.00    +0.037 C 
BRANCH  19  22
ATOM     22  O   UNL     1      -2.447   3.001  -1.062  0.00  0.00    -0.505 OA
ATOM     23  H   UNL     1      -1.595   2.982  -1.451  0.00  0.00    +0.292 HD
ENDBRANCH  19  22
ENDBRANCH   1  16
TORSDOF 3
