REMARK  Name = 5494440
REMARK  14 active torsions:
REMARK  status: ('A' for Active; 'I' for Inactive)
REMARK    1  A    between atoms: C_3  and  C_10
REMARK    2  A    between atoms: C_7  and  C_24
REMARK    3  A    between atoms: N_9  and  C_12
REMARK    4  A    between atoms: C_12  and  C_13
REMARK    5  A    between atoms: C_13  and  C_14
REMARK    6  A    between atoms: C_14  and  C_15
REMARK    7  A    between atoms: C_15  and  N_16
REMARK    8  A    between atoms: N_16  and  C_19
REMARK    9  A    between atoms: C_24  and  N_25
REMARK   10  A    between atoms: C_24  and  C_37
REMARK   11  A    between atoms: N_25  and  S_27
REMARK   12  A    between atoms: S_27  and  C_30
REMARK   13  A    between atoms: C_30  and  C_31
REMARK   14  A    between atoms: C_37  and  C_38
REMARK                            x       y       z     vdW  Elec       q    Type
REMARK                         _______ _______ _______ _____ _____    ______ ____
ROOT
ATOM      1  O   UNL     1       0.924   0.323   0.110  0.00  0.00    -0.273 OA
ATOM      2  N   UNL     1       0.418  -1.934   0.045  0.00  0.00    -0.272 N 
ATOM      3  C   UNL     1       1.336  -2.341   1.101  0.00  0.00    +0.152 C 
ATOM      4  C   UNL     1       0.894  -3.751   1.476  0.00  0.00    +0.031 C 
ATOM      5  C   UNL     1      -0.371  -3.067  -0.432  0.00  0.00    +0.094 C 
ATOM      6  C   UNL     1       0.291  -4.291   0.182  0.00  0.00    +0.024 C 
ATOM      7  C   UNL     1       0.237  -0.608  -0.314  0.00  0.00    +0.242 C 
ENDROOT
BRANCH   3  10
ATOM      8  O   UNL     1       2.917  -2.553  -0.675  0.00  0.00    -0.273 OA
ATOM      9  N   UNL     1       3.686  -2.063   1.466  0.00  0.00    -0.303 N 
ATOM     10  C   UNL     1       2.716  -2.328   0.515  0.00  0.00    +0.241 C 
ATOM     11  H   UNL     1       3.401  -1.899   2.394  0.00  0.00    +0.149 HD
BRANCH   9  12
ATOM     12  C   UNL     1       5.098  -2.017   1.163  0.00  0.00    +0.090 C 
BRANCH  12  13
ATOM     13  C   UNL     1       5.563  -0.620   0.764  0.00  0.00    +0.023 C 
BRANCH  13  14
ATOM     14  C   UNL     1       5.346   0.412   1.878  0.00  0.00    +0.028 C 
BRANCH  14  15
ATOM     15  C   UNL     1       5.801   1.809   1.472  0.00  0.00    +0.129 C 
BRANCH  15  16
ATOM     16  N   UNL     1       5.040   2.260   0.305  0.00  0.00    -0.240 NA
BRANCH  16  19
ATOM     17  N   UNL     1       6.258   4.331   0.320  0.00  0.00    -0.370 N 
ATOM     18  N   UNL     1       4.653   3.936  -1.249  0.00  0.00    -0.370 N 
ATOM     19  C   UNL     1       5.323   3.439  -0.155  0.00  0.00    +0.189 C 
ATOM     20  H   UNL     1       6.808   4.097   1.103  0.00  0.00    +0.159 HD
ATOM     21  H   UNL     1       6.377   5.202  -0.122  0.00  0.00    +0.159 HD
ATOM     22  H   UNL     1       3.955   3.396  -1.686  0.00  0.00    +0.159 HD
ATOM     23  H   UNL     1       4.871   4.832  -1.594  0.00  0.00    +0.159 HD
ENDBRANCH  16  19
ENDBRANCH  15  16
ENDBRANCH  14  15
ENDBRANCH  13  14
ENDBRANCH  12  13
ENDBRANCH   9  12
ENDBRANCH   3  10
BRANCH   7  24
ATOM     24  C   UNL     1      -0.875  -0.347  -1.298  0.00  0.00    +0.151 C 
BRANCH  24  25
ATOM     25  N   UNL     1      -1.378   0.980  -0.901  0.00  0.00    -0.176 NA
ATOM     26  H   UNL     1      -0.569   1.530  -0.612  0.00  0.00    +0.149 HD
BRANCH  25  27
ATOM     27  S   UNL     1      -2.533   1.094   0.351  0.00  0.00    +0.045 S 
ATOM     28  O   UNL     1      -2.584   2.455   0.848  0.00  0.00    -0.157 OA
ATOM     29  O   UNL     1      -2.342  -0.021   1.258  0.00  0.00    -0.157 OA
BRANCH  27  30
ATOM     30  C   UNL     1      -4.030   0.788  -0.559  0.00  0.00    +0.195 C 
BRANCH  30  31
ATOM     31  C   UNL     1      -5.173   0.853   0.407  0.00  0.00    +0.003 C 
ATOM     32  C   UNL     1      -5.817   2.067   0.644  0.00  0.00    -0.003 C 
ATOM     33  C   UNL     1      -5.592  -0.301   1.070  0.00  0.00    -0.003 C 
ATOM     34  C   UNL     1      -6.882   2.127   1.544  0.00  0.00    -0.000 C 
ATOM     35  C   UNL     1      -6.656  -0.241   1.970  0.00  0.00    -0.000 C 
ATOM     36  C   UNL     1      -7.301   0.974   2.207  0.00  0.00    -0.000 C 
ENDBRANCH  30  31
ENDBRANCH  27  30
ENDBRANCH  25  27
ENDBRANCH  24  25
BRANCH  24  37
ATOM     37  C   UNL     1      -0.333  -0.340  -2.720  0.00  0.00    +0.027 C 
BRANCH  37  38
ATOM     38  C   UNL     1      -1.384  -0.018  -3.801  0.00  0.00    +0.002 C 
ATOM     39  C   UNL     1      -2.535  -1.024  -3.816  0.00  0.00    +0.000 C 
ATOM     40  C   UNL     1      -0.714   0.019  -5.178  0.00  0.00    +0.000 C 
ENDBRANCH  37  38
ENDBRANCH  24  37
ENDBRANCH   7  24
TORSDOF 14
