REMARK  Name = 446238
REMARK  5 active torsions:
REMARK  status: ('A' for Active; 'I' for Inactive)
REMARK    1  A    between atoms: N_2  and  C_17
REMARK    2  A    between atoms: C_3  and  C_5
REMARK    3  A    between atoms: C_6  and  S_11
REMARK    4  A    between atoms: S_11  and  N_14
REMARK    5  A    between atoms: C_17  and  C_20
REMARK                            x       y       z     vdW  Elec       q    Type
REMARK                         _______ _______ _______ _____ _____    ______ ____
ROOT
ATOM      1  O   UNL     1       0.453  -1.985  -1.429  0.00  0.00    -0.270 OA
ATOM      2  N   UNL     1       0.938  -1.252   0.717  0.00  0.00    -0.297 N 
ATOM      3  C   UNL     1       0.087  -1.422  -0.382  0.00  0.00    +0.246 C 
ATOM      4  H   UNL     1       0.583  -0.797   1.514  0.00  0.00    +0.150 HD
ENDROOT
BRANCH   3   5
ATOM      5  C   UNL     1      -1.258  -0.883  -0.265  0.00  0.00    +0.053 C 
ATOM      6  C   UNL     1      -3.840   0.151  -0.040  0.00  0.00    +0.122 C 
ATOM      7  C   UNL     1      -1.957  -0.496  -1.409  0.00  0.00    +0.006 C 
ATOM      8  C   UNL     1      -1.851  -0.753   0.991  0.00  0.00    +0.006 C 
ATOM      9  C   UNL     1      -3.247   0.021  -1.296  0.00  0.00    +0.020 C 
ATOM     10  C   UNL     1      -3.141  -0.236   1.104  0.00  0.00    +0.020 C 
BRANCH   6  11
ATOM     11  S   UNL     1      -5.456   0.796   0.101  0.00  0.00    +0.057 S 
ATOM     12  O   UNL     1      -6.150   0.576  -1.161  0.00  0.00    -0.153 OA
ATOM     13  O   UNL     1      -6.041   0.312   1.343  0.00  0.00    -0.153 OA
BRANCH  11  14
ATOM     14  N   UNL     1      -5.127   2.465   0.264  0.00  0.00    -0.203 NA
ATOM     15  H   UNL     1      -6.004   2.977   0.357  0.00  0.00    +0.144 HD
ATOM     16  H   UNL     1      -4.626   2.795  -0.562  0.00  0.00    +0.144 HD
ENDBRANCH  11  14
ENDBRANCH   6  11
ENDBRANCH   3   5
BRANCH   2  17
ATOM     17  C   UNL     1       2.308  -1.710   0.744  0.00  0.00    +0.119 C 
BRANCH  17  20
ATOM     18  F   UNL     1       3.498   0.145   2.514  0.00  0.00    -0.204 F 
ATOM     19  F   UNL     1       5.891   2.266  -0.974  0.00  0.00    -0.204 F 
ATOM     20  C   UNL     1       3.265  -0.646   0.288  0.00  0.00    +0.025 C 
ATOM     21  C   UNL     1       3.813   0.234   1.214  0.00  0.00    +0.140 C 
ATOM     22  C   UNL     1       3.594  -0.553  -1.060  0.00  0.00    +0.002 C 
ATOM     23  C   UNL     1       4.702   1.220   0.787  0.00  0.00    +0.059 C 
ATOM     24  C   UNL     1       4.482   0.433  -1.487  0.00  0.00    +0.030 C 
ATOM     25  C   UNL     1       5.036   1.320  -0.564  0.00  0.00    +0.142 C 
ENDBRANCH  17  20
ENDBRANCH   2  17
TORSDOF 5
