REMARK  Name = 6951123
REMARK  5 active torsions:
REMARK  status: ('A' for Active; 'I' for Inactive)
REMARK    1  A    between atoms: CA_1  and  N_2
REMARK    2  A    between atoms: CA_1  and  C_7
REMARK    3  A    between atoms: CA_1  and  CB_10
REMARK    4  A    between atoms: C_7  and  O_8
REMARK    5  A    between atoms: CB_10  and  CG_11
REMARK                            x       y       z     vdW  Elec       q    Type
REMARK                         _______ _______ _______ _____ _____    ______ ____
ROOT
ATOM      1  CA  LEU A   1       0.304  -0.075  -0.226  0.00  0.00    +0.039 C 
ENDROOT
BRANCH   1   2
ATOM      2  N   LEU A   1       0.237   1.369  -0.003  0.00  0.00    +0.391 N 
ATOM      3  C   ACE A   0       1.197   2.064  -0.845  0.00  0.00    -0.105 C 
ATOM      4  H1  LEU A   1       0.446   1.566   0.976  0.00  0.00    -0.084 HD
ATOM      5  H2  LEU A   1      -0.701   1.693  -0.238  0.00  0.00    -0.084 HD
ENDBRANCH   1   2
BRANCH   1   7
ATOM      6  OXT LEU A   1       2.415  -0.038   1.005  0.00  0.00    -0.253 OA
ATOM      7  C   LEU A   1       1.712  -0.525   0.129  0.00  0.00    +0.293 C 
BRANCH   7   8
ATOM      8  O   LEU A   1       2.130  -1.551  -0.660  0.00  0.00    -0.482 OA
ATOM      9  H   LEU A   1       1.561  -1.895  -1.321  0.00  0.00    +0.295 HD
ENDBRANCH   7   8
ENDBRANCH   1   7
BRANCH   1  10
ATOM     10  CB  LEU A   1      -0.713  -0.831   0.645  0.00  0.00    -0.010 C 
BRANCH  10  11
ATOM     11  CG  LEU A   1      -2.199  -0.532   0.356  0.00  0.00    -0.002 C 
ATOM     12  CD1 LEU A   1      -2.576  -0.811  -1.099  0.00  0.00    -0.000 C 
ATOM     13  CD2 LEU A   1      -2.506   0.929   0.698  0.00  0.00    -0.000 C 
ENDBRANCH  10  11
ENDBRANCH   1  10
TORSDOF 5
