11256664
  -OEChem-10061700023D

 42 44  0     0  0  0  0  0  0999 V2000
   -4.0759    1.1047    0.7647 O   0  0  0  0  0  0  0  0  0  0  0  0
    1.9676    2.7671   -0.5472 O   0  0  0  0  0  0  0  0  0  0  0  0
    4.2514    1.5027   -0.0759 O   0  0  0  0  0  0  0  0  0  0  0  0
    5.6105   -1.5653    1.1851 O   0  0  0  0  0  0  0  0  0  0  0  0
    7.5955   -1.4859    0.0889 O   0  0  0  0  0  0  0  0  0  0  0  0
    1.6766   -0.7777    0.2380 N   0  0  0  0  0  0  0  0  0  0  0  0
    4.1905   -0.6907   -0.8257 N   0  0  0  0  0  0  0  0  0  0  0  0
   -0.5318    0.2309    0.3804 C   0  0  0  0  0  0  0  0  0  0  0  0
    0.0127    1.4842    0.0320 C   0  0  0  0  0  0  0  0  0  0  0  0
    0.3459   -0.8516    0.4661 C   0  0  0  0  0  0  0  0  0  0  0  0
    1.3882    1.5820   -0.2082 C   0  0  0  0  0  0  0  0  0  0  0  0
   -1.9099    0.1118    0.6254 C   0  0  0  0  0  0  0  0  0  0  0  0
    2.1625    0.4376   -0.0931 C   0  0  0  0  0  0  0  0  0  0  0  0
   -0.8393    2.5966   -0.0640 C   0  0  0  0  0  0  0  0  0  0  0  0
   -2.7414    1.2270    0.5255 C   0  0  0  0  0  0  0  0  0  0  0  0
   -2.2073    2.4666    0.1817 C   0  0  0  0  0  0  0  0  0  0  0  0
   -0.1412   -2.2186    0.8290 C   0  0  0  0  0  0  0  0  0  0  0  0
    3.5982    0.4759   -0.3298 C   0  0  0  0  0  0  0  0  0  0  0  0
   -4.7349    0.0265    0.1985 C   0  0  0  0  0  0  0  0  0  0  0  0
    5.6058   -0.8171   -1.0895 C   0  0  0  0  0  0  0  0  0  0  0  0
   -4.4907   -0.2932   -1.1249 C   0  0  0  0  0  0  0  0  0  0  0  0
   -5.6212   -0.7026    0.9705 C   0  0  0  0  0  0  0  0  0  0  0  0
   -5.1553   -1.3787   -1.6956 C   0  0  0  0  0  0  0  0  0  0  0  0
   -6.2857   -1.7882    0.4000 C   0  0  0  0  0  0  0  0  0  0  0  0
   -6.0528   -2.1262   -0.9332 C   0  0  0  0  0  0  0  0  0  0  0  0
    6.3821   -1.3178    0.1012 C   0  0  0  0  0  0  0  0  0  0  0  0
   -2.3335   -0.8446    0.9209 H   0  0  0  0  0  0  0  0  0  0  0  0
   -0.4544    3.5784   -0.3304 H   0  0  0  0  0  0  0  0  0  0  0  0
   -2.8517    3.3380    0.1025 H   0  0  0  0  0  0  0  0  0  0  0  0
   -0.8738   -2.5766    0.0986 H   0  0  0  0  0  0  0  0  0  0  0  0
    0.6857   -2.9375    0.8392 H   0  0  0  0  0  0  0  0  0  0  0  0
   -0.5854   -2.2196    1.8296 H   0  0  0  0  0  0  0  0  0  0  0  0
    3.6038   -1.5035   -0.9921 H   0  0  0  0  0  0  0  0  0  0  0  0
    2.8981    2.6439   -0.7913 H   0  0  0  0  0  0  0  0  0  0  0  0
    6.0059    0.1580   -1.3821 H   0  0  0  0  0  0  0  0  0  0  0  0
    5.7198   -1.5338   -1.9075 H   0  0  0  0  0  0  0  0  0  0  0  0
   -3.8150    0.2871   -1.7463 H   0  0  0  0  0  0  0  0  0  0  0  0
   -5.8033   -0.4407    2.0084 H   0  0  0  0  0  0  0  0  0  0  0  0
   -4.9781   -1.6388   -2.7352 H   0  0  0  0  0  0  0  0  0  0  0  0
   -6.9846   -2.3701    0.9936 H   0  0  0  0  0  0  0  0  0  0  0  0
   -6.5712   -2.9707   -1.3778 H   0  0  0  0  0  0  0  0  0  0  0  0
    6.1385   -1.8901    1.9454 H   0  0  0  0  0  0  0  0  0  0  0  0
  1 15  1  0  0  0  0
  1 19  1  0  0  0  0
  2 11  1  0  0  0  0
  2 34  1  0  0  0  0
  3 18  2  0  0  0  0
  4 26  1  0  0  0  0
  4 42  1  0  0  0  0
  5 26  2  0  0  0  0
  6 10  1  0  0  0  0
  6 13  2  0  0  0  0
  7 18  1  0  0  0  0
  7 20  1  0  0  0  0
  7 33  1  0  0  0  0
  8  9  1  0  0  0  0
  8 10  2  0  0  0  0
  8 12  1  0  0  0  0
  9 11  2  0  0  0  0
  9 14  1  0  0  0  0
 10 17  1  0  0  0  0
 11 13  1  0  0  0  0
 12 15  2  0  0  0  0
 12 27  1  0  0  0  0
 13 18  1  0  0  0  0
 14 16  2  0  0  0  0
 14 28  1  0  0  0  0
 15 16  1  0  0  0  0
 16 29  1  0  0  0  0
 17 30  1  0  0  0  0
 17 31  1  0  0  0  0
 17 32  1  0  0  0  0
 19 21  2  0  0  0  0
 19 22  1  0  0  0  0
 20 26  1  0  0  0  0
 20 35  1  0  0  0  0
 20 36  1  0  0  0  0
 21 23  1  0  0  0  0
 21 37  1  0  0  0  0
 22 24  2  0  0  0  0
 22 38  1  0  0  0  0
 23 25  2  0  0  0  0
 23 39  1  0  0  0  0
 24 25  1  0  0  0  0
 24 40  1  0  0  0  0
 25 41  1  0  0  0  0
M  END
> <DATABASE_ID>
DB04847

> <DATABASE_NAME>
drugbank

> <ORIGINAL_SOURCE>
PUBCHEM

> <ORIGINAL_SOURCE_URL>
https://pubchem.ncbi.nlm.nih.gov/rest/pug/compound/inchikey/YOZBGTLTNGAVFU-UHFFFAOYSA-N/SDF?record_type=3d

> <SMILES>
CC1=NC(C(=O)NCC(O)=O)=C(O)C2=CC=C(OC3=CC=CC=C3)C=C12

> <INCHI_IDENTIFIER>
InChI=1S/C19H16N2O5/c1-11-15-9-13(26-12-5-3-2-4-6-12)7-8-14(15)18(24)17(21-11)19(25)20-10-16(22)23/h2-9,24H,10H2,1H3,(H,20,25)(H,22,23)

> <INCHI_KEY>
YOZBGTLTNGAVFU-UHFFFAOYSA-N

> <FORMULA>
C19H16N2O5

> <MOLECULAR_WEIGHT>
352.346

> <EXACT_MASS>
352.105921623

> <JCHEM_ACCEPTOR_COUNT>
5

> <JCHEM_ATOM_COUNT>
42

> <JCHEM_AVERAGE_POLARIZABILITY>
35.65366005671198

> <JCHEM_BIOAVAILABILITY>
1

> <JCHEM_DONOR_COUNT>
3

> <JCHEM_FORMAL_CHARGE>
0

> <JCHEM_GHOSE_FILTER>
1

> <JCHEM_IUPAC>
2-[(4-hydroxy-1-methyl-7-phenoxyisoquinolin-3-yl)formamido]acetic acid

> <ALOGPS_LOGP>
3.13

> <JCHEM_LOGP>
2.339588310164029

> <ALOGPS_LOGS>
-4.49

> <JCHEM_MDDR_LIKE_RULE>
0

> <JCHEM_NUMBER_OF_RINGS>
3

> <JCHEM_PHYSIOLOGICAL_CHARGE>
-1

> <JCHEM_PKA>
8.05853468078214

> <JCHEM_PKA_STRONGEST_ACIDIC>
3.3496911328616368

> <JCHEM_PKA_STRONGEST_BASIC>
2.2373442720052696

> <JCHEM_POLAR_SURFACE_AREA>
108.75000000000001

> <JCHEM_REFRACTIVITY>
92.85220000000002

> <JCHEM_ROTATABLE_BOND_COUNT>
5

> <JCHEM_RULE_OF_FIVE>
1

> <ALOGPS_SOLUBILITY>
1.15e-02 g/l

> <JCHEM_TRADITIONAL_IUPAC>
[(4-hydroxy-1-methyl-7-phenoxyisoquinolin-3-yl)formamido]acetic acid

> <JCHEM_VEBER_RULE>
0

> <DRUGBANK_ID>
DB04847

> <DRUG_GROUPS>
investigational

> <GENERIC_NAME>
Roxadustat

> <SYNONYMS>
roxadustat

$$$$
