REMARK  Name = 379
REMARK  7 active torsions:
REMARK  status: ('A' for Active; 'I' for Inactive)
REMARK    1  A    between atoms: C_1  and  C_2
REMARK    2  A    between atoms: C_1  and  C_7
REMARK    3  A    between atoms: C_2  and  C_3
REMARK    4  A    between atoms: C_3  and  C_4
REMARK    5  A    between atoms: C_4  and  C_5
REMARK    6  A    between atoms: C_7  and  C_9
REMARK    7  A    between atoms: C_9  and  O_10
REMARK                            x       y       z     vdW  Elec       q    Type
REMARK                         _______ _______ _______ _____ _____    ______ ____
ROOT
ATOM      1  C   UNL     1      -0.944   0.250  -0.022  0.00  0.00    +0.012 C 
ENDROOT
BRANCH   1   2
ATOM      2  C   UNL     1       0.398  -0.488  -0.033  0.00  0.00    +0.001 C 
BRANCH   2   3
ATOM      3  C   UNL     1       1.647   0.398  -0.011  0.00  0.00    +0.000 C 
BRANCH   3   4
ATOM      4  C   UNL     1       2.956  -0.394  -0.001  0.00  0.00    +0.000 C 
BRANCH   4   5
ATOM      5  C   UNL     1       4.167   0.540   0.029  0.00  0.00    +0.000 C 
ATOM      6  C   UNL     1       5.472  -0.240   0.002  0.00  0.00    +0.000 C 
ENDBRANCH   4   5
ENDBRANCH   3   4
ENDBRANCH   2   3
ENDBRANCH   1   2
BRANCH   1   7
ATOM      7  C   UNL     1      -2.152  -0.685   0.011  0.00  0.00    +0.109 C 
BRANCH   7   9
ATOM      8  O   UNL     1      -3.565   1.298  -0.002  0.00  0.00    -0.250 OA
ATOM      9  C   UNL     1      -3.456   0.080   0.009  0.00  0.00    +0.314 C 
BRANCH   9  10
ATOM     10  O   UNL     1      -4.524  -0.760   0.016  0.00  0.00    -0.480 OA
ATOM     11  H   UNL     1      -4.391  -1.687   0.025  0.00  0.00    +0.295 HD
ENDBRANCH   9  10
ENDBRANCH   7   9
ENDBRANCH   1   7
TORSDOF 7
