REMARK  Name = 3111
REMARK  4 active torsions:
REMARK  status: ('A' for Active; 'I' for Inactive)
REMARK    1  A    between atoms: N_3  and  C_9
REMARK    2  A    between atoms: C_4  and  N_15
REMARK    3  A    between atoms: N_15  and  C_17
REMARK    4  A    between atoms: C_17  and  S_18
REMARK                            x       y       z     vdW  Elec       q    Type
REMARK                         _______ _______ _______ _____ _____    ______ ____
ROOT
ATOM      1  O   UNL     1       0.039  -1.531  -1.022  0.00  0.00    -0.264 OA
ATOM      2  N   UNL     1      -0.689   1.529   0.435  0.00  0.00    -0.265 N 
ATOM      3  N   UNL     1      -1.109   0.242   0.068  0.00  0.00    -0.213 N 
ATOM      4  C   UNL     1       1.073   0.592  -0.654  0.00  0.00    +0.121 A 
ATOM      5  C   UNL     1       0.600   1.700  -0.065  0.00  0.00    +0.073 A 
ATOM      6  C   UNL     1      -0.036  -0.407  -0.551  0.00  0.00    +0.293 A 
ATOM      7  C   UNL     1       1.335   2.986   0.116  0.00  0.00    +0.053 C 
ATOM      8  C   UNL     1      -1.052   2.029   1.758  0.00  0.00    +0.152 C 
ENDROOT
BRANCH   3   9
ATOM      9  C   UNL     1      -2.469  -0.156   0.040  0.00  0.00    +0.084 C 
ATOM     10  C   UNL     1      -2.804  -1.510  -0.070  0.00  0.00    +0.019 C 
ATOM     11  C   UNL     1      -3.485   0.801   0.121  0.00  0.00    +0.019 C 
ATOM     12  C   UNL     1      -4.142  -1.902  -0.097  0.00  0.00    +0.002 C 
ATOM     13  C   UNL     1      -4.823   0.409   0.093  0.00  0.00    +0.002 C 
ATOM     14  C   UNL     1      -5.152  -0.943  -0.016  0.00  0.00    +0.000 C 
ENDBRANCH   3   9
BRANCH   4  15
ATOM     15  N   UNL     1       2.243   0.275  -1.246  0.00  0.00    -0.281 N 
ATOM     16  C   UNL     1       2.734   1.008  -2.418  0.00  0.00    +0.114 C 
BRANCH  15  17
ATOM     17  C   UNL     1       3.014  -0.918  -0.869  0.00  0.00    +0.253 C 
BRANCH  17  18
ATOM     18  S   UNL     1       3.521  -0.933   0.847  0.00  0.00    +0.042 S 
ATOM     19  O   UNL     1       4.475  -2.252   0.762  0.00  0.00    -0.068 OA
ATOM     20  O   UNL     1       4.353   0.226   1.100  0.00  0.00    -0.068 OA
ATOM     21  O   UNL     1       2.371  -1.246   1.670  0.00  0.00    -0.068 OA
ENDBRANCH  17  18
ENDBRANCH  15  17
ENDBRANCH   4  15
TORSDOF 4
