REMARK  Name = 71070
REMARK  8 active torsions:
REMARK  status: ('A' for Active; 'I' for Inactive)
REMARK    1  A    between atoms: CB_1  and  CG_2
REMARK    2  A    between atoms: CB_1  and  CA_12
REMARK    3  A    between atoms: CG_2  and  CD_3
REMARK    4  A    between atoms: CD_3  and  NE_4
REMARK    5  A    between atoms: NE_4  and  CZ_7
REMARK    6  A    between atoms: CA_12  and  N_13
REMARK    7  A    between atoms: CA_12  and  C_18
REMARK    8  A    between atoms: C_18  and  O_19
REMARK                            x       y       z     vdW  Elec       q    Type
REMARK                         _______ _______ _______ _____ _____    ______ ____
ROOT
ATOM      1  CB  ARG A   1       0.766  -0.609  -0.730  0.00  0.00    -0.009 C 
ENDROOT
BRANCH   1   2
ATOM      2  CG  ARG A   1       0.081  -1.011   0.585  0.00  0.00    +0.025 C 
BRANCH   2   3
ATOM      3  CD  ARG A   1      -1.436  -1.091   0.449  0.00  0.00    +0.129 C 
BRANCH   3   4
ATOM      4  NE  ARG A   1      -1.973   0.220   0.081  0.00  0.00    -0.240 NA
BRANCH   4   7
ATOM      5  NH1 ARG A   1      -3.845   1.511  -0.368  0.00  0.00    -0.370 N 
ATOM      6  NH2 ARG A   1      -4.200  -0.677   0.165  0.00  0.00    -0.370 N 
ATOM      7  CZ  ARG A   1      -3.262   0.314  -0.026  0.00  0.00    +0.189 C 
ATOM      8 HH11 ARG A   1      -3.284   2.303  -0.533  0.00  0.00    +0.159 HD
ATOM      9 HH12 ARG A   1      -4.824   1.576  -0.448  0.00  0.00    +0.159 HD
ATOM     10 HH21 ARG A   1      -3.913  -1.585   0.414  0.00  0.00    +0.159 HD
ATOM     11 HH22 ARG A   1      -5.157  -0.476   0.052  0.00  0.00    +0.159 HD
ENDBRANCH   4   7
ENDBRANCH   3   4
ENDBRANCH   2   3
ENDBRANCH   1   2
BRANCH   1  12
ATOM     12  CA  ARG A   1       2.295  -0.551  -0.592  0.00  0.00    +0.036 C 
BRANCH  12  13
ATOM     13  N   ARG A   1       2.886  -0.127  -1.859  0.00  0.00    +0.389 N 
ATOM     14  H1  ARG A   1       2.616  -0.779  -2.596  0.00  0.00    -0.088 HD
ATOM     15  H2  ARG A   1       3.902  -0.114  -1.773  0.00  0.00    -0.088 HD
ATOM     16  H3  ARG A   1       2.553   0.808  -2.094  0.00  0.00    -0.088 HD
ENDBRANCH  12  13
BRANCH  12  18
ATOM     17  OXT ARG A   1       2.487   1.662   0.410  0.00  0.00    -0.253 OA
ATOM     18  C   ARG A   1       2.744   0.466   0.441  0.00  0.00    +0.293 C 
BRANCH  18  19
ATOM     19  O   ARG A   1       3.457  -0.107   1.447  0.00  0.00    -0.482 OA
ATOM     20  H   ARG A   1       3.631  -1.028   1.432  0.00  0.00    +0.295 HD
ENDBRANCH  18  19
ENDBRANCH  12  18
ENDBRANCH   1  12
TORSDOF 8
