REMARK  Name = 2966
REMARK  0 active torsions:
REMARK  status: ('A' for Active; 'I' for Inactive)
REMARK                            x       y       z     vdW  Elec       q    Type
REMARK                         _______ _______ _______ _____ _____    ______ ____
ROOT
ATOM      1  N   UNL     1      -1.576  -0.011   0.230  0.00  0.00    -0.278 N 
ATOM      2  N   UNL     1      -3.292   1.485   0.072  0.00  0.00    -0.331 N 
ATOM      3  N   UNL     1      -3.555  -0.679  -0.811  0.00  0.00    -0.273 NA
ATOM      4  C   UNL     1       0.045  -1.817   0.062  0.00  0.00    +0.048 C 
ATOM      5  C   UNL     1      -1.181  -1.294   0.802  0.00  0.00    +0.098 C 
ATOM      6  C   UNL     1      -0.587   1.067   0.306  0.00  0.00    +0.120 C 
ATOM      7  C   UNL     1       1.140  -0.784   0.009  0.00  0.00    -0.023 C 
ATOM      8  C   UNL     1       0.832   0.585   0.103  0.00  0.00    -0.006 C 
ATOM      9  C   UNL     1       2.469  -1.185  -0.188  0.00  0.00    -0.004 C 
ATOM     10  C   UNL     1       1.867   1.528   0.029  0.00  0.00    -0.003 C 
ATOM     11  C   UNL     1      -2.839   0.221  -0.198  0.00  0.00    +0.174 C 
ATOM     12  C   UNL     1       3.488  -0.236  -0.264  0.00  0.00    -0.000 C 
ATOM     13  C   UNL     1       3.188   1.119  -0.153  0.00  0.00    -0.000 C 
ATOM     14  H   UNL     1      -2.710   2.128   0.539  0.00  0.00    +0.145 HD
ATOM     15  H   UNL     1      -4.200   1.751  -0.199  0.00  0.00    +0.145 HD
ATOM     16  H   UNL     1      -3.180  -1.574  -0.981  0.00  0.00    +0.189 HD
ENDROOT
TORSDOF 0
