REMARK  Name = 71353
REMARK  6 active torsions:
REMARK  status: ('A' for Active; 'I' for Inactive)
REMARK    1  A    between atoms: C_1  and  C_2
REMARK    2  A    between atoms: C_1  and  C_13
REMARK    3  A    between atoms: C_2  and  C_3
REMARK    4  A    between atoms: C_2  and  N_9
REMARK    5  A    between atoms: C_13  and  O_14
REMARK    6  A    between atoms: O_14  and  C_15
REMARK                            x       y       z     vdW  Elec       q    Type
REMARK                         _______ _______ _______ _____ _____    ______ ____
ROOT
ATOM      1  C   UNL     1       1.188   1.065   1.033  0.00  0.00    +0.031 C 
ENDROOT
BRANCH   1   2
ATOM      2  C   UNL     1       2.498   1.381   0.285  0.00  0.00    -0.031 C 
BRANCH   2   3
ATOM      3  C   UNL     1       3.460   0.209   0.237  0.00  0.00    -0.041 C 
ATOM      4  C   UNL     1       4.388   0.059   1.250  0.00  0.00    -0.006 C 
ATOM      5  C   UNL     1       3.384  -0.679  -0.820  0.00  0.00    -0.006 C 
ATOM      6  C   UNL     1       5.273  -1.018   1.205  0.00  0.00    -0.000 C 
ATOM      7  C   UNL     1       4.269  -1.757  -0.864  0.00  0.00    -0.000 C 
ATOM      8  C   UNL     1       5.214  -1.926   0.148  0.00  0.00    -0.000 C 
ENDBRANCH   2   3
BRANCH   2   9
ATOM      9  N   UNL     1       2.171   1.838  -1.072  0.00  0.00    +0.388 N 
ATOM     10  C   UNL     1       3.383   2.262  -1.768  0.00  0.00    -0.100 C 
ATOM     11  C   UNL     1       1.199   2.926  -1.018  0.00  0.00    -0.100 C 
ATOM     12  H   UNL     1       1.757   1.063  -1.590  0.00  0.00    -0.079 HD
ENDBRANCH   2   9
ENDBRANCH   1   2
BRANCH   1  13
ATOM     13  C   UNL     1       0.408  -0.093   0.413  0.00  0.00    +0.204 C 
BRANCH  13  14
ATOM     14  O   UNL     1      -0.796  -0.306   1.143  0.00  0.00    -0.476 OA
BRANCH  14  15
ATOM     15  C   UNL     1      -1.857  -0.815   0.450  0.00  0.00    +0.138 C 
ATOM     16  C   UNL     1      -3.068  -0.112   0.347  0.00  0.00    +0.034 C 
ATOM     17  C   UNL     1      -4.140  -0.681  -0.381  0.00  0.00    +0.003 C 
ATOM     18  C   UNL     1      -1.704  -2.062  -0.157  0.00  0.00    +0.037 C 
ATOM     19  C   UNL     1      -3.240   1.145   0.952  0.00  0.00    +0.003 C 
ATOM     20  C   UNL     1      -3.968  -1.937  -0.986  0.00  0.00    +0.000 C 
ATOM     21  C   UNL     1      -2.758  -2.622  -0.874  0.00  0.00    +0.003 C 
ATOM     22  C   UNL     1      -5.351   0.022  -0.484  0.00  0.00    +0.000 C 
ATOM     23  C   UNL     1      -4.450   1.829   0.840  0.00  0.00    +0.000 C 
ATOM     24  C   UNL     1      -5.504   1.269   0.123  0.00  0.00    +0.000 C 
ENDBRANCH  14  15
ENDBRANCH  13  14
ENDBRANCH   1  13
TORSDOF 6
