REMARK  Name = 181976
REMARK  7 active torsions:
REMARK  status: ('A' for Active; 'I' for Inactive)
REMARK    1  A    between atoms: C_1  and  O_2
REMARK    2  A    between atoms: C_1  and  C_4
REMARK    3  A    between atoms: C_1  and  C_9
REMARK    4  A    between atoms: C_4  and  C_6
REMARK    5  A    between atoms: C_6  and  O_7
REMARK    6  A    between atoms: C_9  and  C_11
REMARK    7  A    between atoms: C_11  and  O_12
REMARK                            x       y       z     vdW  Elec       q    Type
REMARK                         _______ _______ _______ _____ _____    ______ ____
ROOT
ATOM      1  C   UNL     1       0.007   0.017  -0.192  0.00  0.00    +0.133 C 
ENDROOT
BRANCH   1   2
ATOM      2  O   UNL     1       0.064   0.860   0.961  0.00  0.00    -0.383 OA
ATOM      3  H   UNL     1      -0.715   1.437   0.979  0.00  0.00    +0.210 HD
ENDBRANCH   1   2
BRANCH   1   4
ATOM      4  C   UNL     1      -1.268  -0.829  -0.129  0.00  0.00    +0.139 C 
BRANCH   4   6
ATOM      5  O   UNL     1      -2.567   1.236  -0.034  0.00  0.00    -0.250 OA
ATOM      6  C   UNL     1      -2.519   0.016  -0.063  0.00  0.00    +0.316 C 
BRANCH   6   7
ATOM      7  O   UNL     1      -3.618  -0.782  -0.036  0.00  0.00    -0.480 OA
ATOM      8  H   UNL     1      -3.521  -1.714  -0.061  0.00  0.00    +0.295 HD
ENDBRANCH   6   7
ENDBRANCH   4   6
ENDBRANCH   1   4
BRANCH   1   9
ATOM      9  C   UNL     1       1.249  -0.872  -0.179  0.00  0.00    +0.139 C 
BRANCH   9  11
ATOM     10  O   UNL     1       2.627   1.043  -0.706  0.00  0.00    -0.250 OA
ATOM     11  C   UNL     1       2.511  -0.044  -0.156  0.00  0.00    +0.316 C 
BRANCH  11  12
ATOM     12  O   UNL     1       3.515  -0.644   0.532  0.00  0.00    -0.480 OA
ATOM     13  H   UNL     1       3.374  -1.478   0.934  0.00  0.00    +0.295 HD
ENDBRANCH  11  12
ENDBRANCH   9  11
ENDBRANCH   1   9
TORSDOF 7
