REMARK  Name = 439774
REMARK  4 active torsions:
REMARK  status: ('A' for Active; 'I' for Inactive)
REMARK    1  A    between atoms: C_2  and  O_8
REMARK    2  A    between atoms: C_3  and  O_10
REMARK    3  A    between atoms: C_5  and  C_13
REMARK    4  A    between atoms: C_13  and  O_14
REMARK                            x       y       z     vdW  Elec       q    Type
REMARK                         _______ _______ _______ _____ _____    ______ ____
ROOT
ATOM      1  O   UNL     1       1.617  -2.363   0.089  0.00  0.00    -0.289 OA
ATOM      2  C   UNL     1       1.125   1.174  -0.398  0.00  0.00    +0.149 C 
ATOM      3  C   UNL     1       1.804   0.030   0.346  0.00  0.00    +0.199 C 
ATOM      4  C   UNL     1      -0.347   1.296  -0.004  0.00  0.00    +0.065 C 
ATOM      5  C   UNL     1      -1.042  -0.029   0.019  0.00  0.00    +0.059 C 
ATOM      6  C   UNL     1       1.049  -1.274   0.147  0.00  0.00    +0.202 C 
ATOM      7  C   UNL     1      -0.433  -1.219   0.067  0.00  0.00    +0.042 C 
ENDROOT
BRANCH   2   8
ATOM      8  O   UNL     1       1.772   2.404  -0.075  0.00  0.00    -0.381 OA
ATOM      9  H   UNL     1       2.709   2.350  -0.317  0.00  0.00    +0.210 HD
ENDBRANCH   2   8
BRANCH   3  10
ATOM     10  O   UNL     1       3.123  -0.128  -0.155  0.00  0.00    -0.375 OA
ATOM     11  H   UNL     1       3.616   0.698  -0.033  0.00  0.00    +0.211 HD
ENDBRANCH   3  10
BRANCH   5  13
ATOM     12  O   UNL     1      -3.170  -0.922  -0.551  0.00  0.00    -0.245 OA
ATOM     13  C   UNL     1      -2.507  -0.039  -0.040  0.00  0.00    +0.334 C 
BRANCH  13  14
ATOM     14  O   UNL     1      -2.990   1.071   0.555  0.00  0.00    -0.477 OA
ATOM     15  H   UNL     1      -2.401   1.700   0.923  0.00  0.00    +0.295 HD
ENDBRANCH  13  14
ENDBRANCH   5  13
TORSDOF 4
