REMARK  Name = 94214
REMARK  6 active torsions:
REMARK  status: ('A' for Active; 'I' for Inactive)
REMARK    1  A    between atoms: C_2  and  O_7
REMARK    2  A    between atoms: C_3  and  O_9
REMARK    3  A    between atoms: C_4  and  C_15
REMARK    4  A    between atoms: C_5  and  O_11
REMARK    5  A    between atoms: C_6  and  O_13
REMARK    6  A    between atoms: C_15  and  O_16
REMARK                            x       y       z     vdW  Elec       q    Type
REMARK                         _______ _______ _______ _____ _____    ______ ____
ROOT
ATOM      1  O   UNL     1       0.856   0.638  -0.176  0.00  0.00    -0.326 OA
ATOM      2  C   UNL     1       0.158  -1.671   0.108  0.00  0.00    +0.169 C 
ATOM      3  C   UNL     1      -1.244  -1.197   0.493  0.00  0.00    +0.172 C 
ATOM      4  C   UNL     1       1.187  -0.596   0.474  0.00  0.00    +0.176 C 
ATOM      5  C   UNL     1      -1.538   0.183  -0.094  0.00  0.00    +0.196 C 
ATOM      6  C   UNL     1      -0.408   1.162   0.231  0.00  0.00    +0.266 C 
ENDROOT
BRANCH   2   7
ATOM      7  O   UNL     1       0.213  -1.908  -1.300  0.00  0.00    -0.379 OA
ATOM      8  H   UNL     1      -0.436  -2.588  -1.539  0.00  0.00    +0.211 HD
ENDBRANCH   2   7
BRANCH   3   9
ATOM      9  O   UNL     1      -2.221  -2.123   0.026  0.00  0.00    -0.379 OA
ATOM     10  H   UNL     1      -2.038  -3.001   0.397  0.00  0.00    +0.211 HD
ENDBRANCH   3   9
BRANCH   5  11
ATOM     11  O   UNL     1      -2.749   0.686   0.470  0.00  0.00    -0.378 OA
ATOM     12  H   UNL     1      -3.476   0.075   0.272  0.00  0.00    +0.211 HD
ENDBRANCH   5  11
BRANCH   6  13
ATOM     13  O   UNL     1      -0.670   2.380  -0.465  0.00  0.00    -0.326 OA
ATOM     14  C   UNL     1       0.339   3.345  -0.214  0.00  0.00    +0.177 C 
ENDBRANCH   6  13
BRANCH   4  15
ATOM     15  C   UNL     1       2.599  -0.973   0.041  0.00  0.00    +0.169 C 
BRANCH  15  16
ATOM     16  O   UNL     1       3.479   0.074   0.406  0.00  0.00    -0.379 OA
ATOM     17  H   UNL     1       4.382  -0.154   0.136  0.00  0.00    +0.211 HD
ENDBRANCH  15  16
ENDBRANCH   4  15
TORSDOF 6
