REMARK  Name = 5287459
REMARK  5 active torsions:
REMARK  status: ('A' for Active; 'I' for Inactive)
REMARK    1  A    between atoms: C_1  and  C_7
REMARK    2  A    between atoms: C_4  and  C_21
REMARK    3  A    between atoms: C_5  and  C_25
REMARK    4  A    between atoms: C_8  and  C_13
REMARK    5  A    between atoms: C_25  and  O_26
REMARK                            x       y       z     vdW  Elec       q    Type
REMARK                         _______ _______ _______ _____ _____    ______ ____
ROOT
ATOM      1  C   UNL     1       1.371  -0.012   0.002  0.00  0.00    +0.000 C 
ATOM      2  C   UNL     1       2.069   1.195   0.002  0.00  0.00    +0.005 C 
ATOM      3  C   UNL     1       2.067  -1.220   0.001  0.00  0.00    +0.006 C 
ATOM      4  C   UNL     1       3.464   1.194   0.003  0.00  0.00    +0.053 C 
ATOM      5  C   UNL     1       3.462  -1.222   0.001  0.00  0.00    +0.076 C 
ATOM      6  C   UNL     1       4.160  -0.014   0.002  0.00  0.00    +0.011 C 
ENDROOT
BRANCH   1   7
ATOM      7  C   UNL     1      -0.076  -0.011   0.001  0.00  0.00    +0.000 C 
ATOM      8  C   UNL     1      -2.866  -0.008   0.000  0.00  0.00    +0.000 C 
ATOM      9  C   UNL     1      -0.773   1.036   0.605  0.00  0.00    +0.000 C 
ATOM     10  C   UNL     1      -0.774  -1.056  -0.604  0.00  0.00    +0.000 C 
ATOM     11  C   UNL     1      -2.168   1.037   0.605  0.00  0.00    +0.000 C 
ATOM     12  C   UNL     1      -2.169  -1.055  -0.604  0.00  0.00    +0.000 C 
BRANCH   8  13
ATOM     13  C   UNL     1      -4.313  -0.008   0.000  0.00  0.00    +0.000 C 
ATOM     14  C   UNL     1      -5.011  -0.612   1.045  0.00  0.00    +0.000 C 
ATOM     15  C   UNL     1      -5.009   0.597  -1.046  0.00  0.00    +0.000 C 
ATOM     16  C   UNL     1      -6.406  -0.611   1.045  0.00  0.00    +0.000 C 
ATOM     17  C   UNL     1      -6.404   0.598  -1.047  0.00  0.00    +0.000 C 
ATOM     18  C   UNL     1      -7.103  -0.006  -0.002  0.00  0.00    +0.000 C 
ENDBRANCH   8  13
ENDBRANCH   1   7
BRANCH   4  21
ATOM     19  O   UNL     1       5.436   2.482  -0.013  0.00  0.00    -0.270 OA
ATOM     20  N   UNL     1       3.451   3.631   0.004  0.00  0.00    -0.325 N 
ATOM     21  C   UNL     1       4.192   2.453   0.003  0.00  0.00    +0.243 C 
ATOM     22  H   UNL     1       3.910   4.502   0.005  0.00  0.00    +0.145 HD
ATOM     23  H   UNL     1       2.467   3.593   0.004  0.00  0.00    +0.145 HD
ENDBRANCH   4  21
BRANCH   5  25
ATOM     24  O   UNL     1       3.674  -3.605  -0.001  0.00  0.00    -0.245 OA
ATOM     25  C   UNL     1       4.188  -2.482   0.000  0.00  0.00    +0.338 C 
BRANCH  25  26
ATOM     26  O   UNL     1       5.538  -2.304  -0.001  0.00  0.00    -0.477 OA
ATOM     27  H   UNL     1       5.897  -1.439  -0.001  0.00  0.00    +0.295 HD
ENDBRANCH  25  26
ENDBRANCH   5  25
TORSDOF 5
