REMARK  Name = 7000165
REMARK  5 active torsions:
REMARK  status: ('A' for Active; 'I' for Inactive)
REMARK    1  A    between atoms: C_1  and  C_4
REMARK    2  A    between atoms: C_1  and  CA_12
REMARK    3  A    between atoms: CA_12  and  N_13
REMARK    4  A    between atoms: CA_12  and  C_18
REMARK    5  A    between atoms: C_18  and  O_19
REMARK                            x       y       z     vdW  Elec       q    Type
REMARK                         _______ _______ _______ _____ _____    ______ ____
ROOT
ATOM      1  C   UNL     1       1.496   0.999  -0.977  0.00  0.00    +0.017 C 
ENDROOT
BRANCH   1   4
ATOM      2  N   UNL     1      -1.690   1.942   0.549  0.00  0.00    -0.297 N 
ATOM      3  N   UNL     1      -3.162   0.037   0.447  0.00  0.00    -0.229 NA
ATOM      4  C   UNL     1       0.132   1.114  -0.424  0.00  0.00    -0.006 C 
ATOM      5  C   UNL     1      -0.861   0.098  -0.400  0.00  0.00    +0.029 C 
ATOM      6  C   UNL     1      -1.984   0.646   0.213  0.00  0.00    +0.132 C 
ATOM      7  C   UNL     1      -0.407   2.237   0.166  0.00  0.00    +0.059 C 
ATOM      8  C   UNL     1      -0.946  -1.237  -0.828  0.00  0.00    +0.004 C 
ATOM      9  C   UNL     1      -2.143  -1.915  -0.611  0.00  0.00    +0.021 C 
ATOM     10  C   UNL     1      -3.186  -1.245   0.014  0.00  0.00    +0.100 C 
ATOM     11  H   UNL     1      -2.306   2.566   0.997  0.00  0.00    +0.154 HD
ENDBRANCH   1   4
BRANCH   1  12
ATOM     12  CA  UNL     1       2.554   0.515   0.047  0.00  0.00    +0.040 C 
BRANCH  12  13
ATOM     13  N   UNL     1       3.876   0.425  -0.570  0.00  0.00    +0.389 N 
ATOM     14  H1  UNL     1       4.139   1.337  -0.944  0.00  0.00    -0.088 HD
ATOM     15  H2  UNL     1       3.851  -0.259  -1.327  0.00  0.00    -0.088 HD
ATOM     16  H3  UNL     1       4.559   0.134   0.129  0.00  0.00    -0.088 HD
ENDBRANCH  12  13
BRANCH  12  18
ATOM     17  OXT UNL     1       2.604  -1.920   0.074  0.00  0.00    -0.253 OA
ATOM     18  C   UNL     1       2.228  -0.870   0.580  0.00  0.00    +0.293 C 
BRANCH  18  19
ATOM     19  O   UNL     1       1.489  -0.825   1.718  0.00  0.00    -0.482 OA
ATOM     20  H   UNL     1       1.222   0.001   2.072  0.00  0.00    +0.295 HD
ENDBRANCH  18  19
ENDBRANCH  12  18
ENDBRANCH   1  12
TORSDOF 5
