REMARK  Name = 656917
REMARK  12 active torsions:
REMARK  status: ('A' for Active; 'I' for Inactive)
REMARK    1  A    between atoms: C_2  and  O_7
REMARK    2  A    between atoms: C_3  and  O_9
REMARK    3  A    between atoms: C_4  and  O_11
REMARK    4  A    between atoms: C_5  and  C_21
REMARK    5  A    between atoms: C_6  and  S_13
REMARK    6  A    between atoms: S_13  and  C_14
REMARK    7  A    between atoms: C_14  and  C_15
REMARK    8  A    between atoms: C_15  and  C_16
REMARK    9  A    between atoms: C_16  and  C_17
REMARK   10  A    between atoms: C_17  and  C_18
REMARK   11  A    between atoms: C_18  and  C_19
REMARK   12  A    between atoms: C_21  and  O_22
REMARK                            x       y       z     vdW  Elec       q    Type
REMARK                         _______ _______ _______ _____ _____    ______ ____
ROOT
ATOM      1  O   UNL     1       1.669   0.551  -0.353  0.00  0.00    -0.340 OA
ATOM      2  C   UNL     1       4.139  -0.753   0.308  0.00  0.00    +0.170 C 
ATOM      3  C   UNL     1       4.082   0.702  -0.160  0.00  0.00    +0.169 C 
ATOM      4  C   UNL     1       2.902  -1.536  -0.146  0.00  0.00    +0.177 C 
ATOM      5  C   UNL     1       2.733   1.330   0.196  0.00  0.00    +0.175 C 
ATOM      6  C   UNL     1       1.618  -0.769   0.187  0.00  0.00    +0.192 C 
ENDROOT
BRANCH   2   7
ATOM      7  O   UNL     1       5.291  -1.388  -0.250  0.00  0.00    -0.379 OA
ATOM      8  H   UNL     1       6.089  -0.909   0.024  0.00  0.00    +0.211 HD
ENDBRANCH   2   7
BRANCH   3   9
ATOM      9  O   UNL     1       5.121   1.446   0.471  0.00  0.00    -0.379 OA
ATOM     10  H   UNL     1       5.980   1.053   0.251  0.00  0.00    +0.211 HD
ENDBRANCH   3   9
BRANCH   4  11
ATOM     11  O   UNL     1       2.895  -2.796   0.524  0.00  0.00    -0.379 OA
ATOM     12  H   UNL     1       3.708  -3.280   0.312  0.00  0.00    +0.211 HD
ENDBRANCH   4  11
BRANCH   6  13
ATOM     13  S   UNL     1       0.163  -1.653  -0.484  0.00  0.00    -0.110 S 
BRANCH  13  14
ATOM     14  C   UNL     1      -1.125  -0.502   0.079  0.00  0.00    +0.060 C 
BRANCH  14  15
ATOM     15  C   UNL     1      -2.509  -1.011  -0.316  0.00  0.00    +0.012 C 
BRANCH  15  16
ATOM     16  C   UNL     1      -3.640  -0.073   0.123  0.00  0.00    +0.001 C 
BRANCH  16  17
ATOM     17  C   UNL     1      -5.030  -0.560  -0.292  0.00  0.00    +0.000 C 
BRANCH  17  18
ATOM     18  C   UNL     1      -6.123   0.373   0.233  0.00  0.00    +0.000 C 
BRANCH  18  19
ATOM     19  C   UNL     1      -7.515  -0.132  -0.148  0.00  0.00    +0.000 C 
ATOM     20  C   UNL     1      -8.606   0.774   0.399  0.00  0.00    +0.000 C 
ENDBRANCH  18  19
ENDBRANCH  17  18
ENDBRANCH  16  17
ENDBRANCH  15  16
ENDBRANCH  14  15
ENDBRANCH  13  14
ENDBRANCH   6  13
BRANCH   5  21
ATOM     21  C   UNL     1       2.603   2.743  -0.364  0.00  0.00    +0.169 C 
BRANCH  21  22
ATOM     22  O   UNL     1       1.332   3.255  -0.006  0.00  0.00    -0.379 OA
ATOM     23  H   UNL     1       1.235   4.154  -0.357  0.00  0.00    +0.211 HD
ENDBRANCH  21  22
ENDBRANCH   5  21
TORSDOF 12
