REMARK  Name = 2893
REMARK  5 active torsions:
REMARK  status: ('A' for Active; 'I' for Inactive)
REMARK    1  A    between atoms: C_2  and  O_3
REMARK    2  A    between atoms: C_2  and  C_13
REMARK    3  A    between atoms: O_3  and  C_8
REMARK    4  A    between atoms: C_13  and  C_14
REMARK    5  A    between atoms: C_13  and  O_20
REMARK                            x       y       z     vdW  Elec       q    Type
REMARK                         _______ _______ _______ _____ _____    ______ ____
ROOT
ATOM      1  O   UNL     1       0.517   2.689  -0.749  0.00  0.00    -0.247 OA
ATOM      2  C   UNL     1       0.845   1.935   0.159  0.00  0.00    +0.348 C 
ENDROOT
BRANCH   2   3
ATOM      3  O   UNL     1      -0.013   1.295   1.010  0.00  0.00    -0.450 OA
BRANCH   3   8
ATOM      4  C   UNL     1      -2.463  -0.453  -1.311  0.00  0.00    +0.003 C 
ATOM      5  C   UNL     1      -3.305  -1.088  -0.179  0.00  0.00    +0.000 C 
ATOM      6  C   UNL     1      -3.479  -0.175   1.046  0.00  0.00    +0.004 C 
ATOM      7  C   UNL     1      -1.125   0.065  -0.742  0.00  0.00    +0.044 C 
ATOM      8  C   UNL     1      -1.295   0.977   0.474  0.00  0.00    +0.169 C 
ATOM      9  C   UNL     1      -2.119   0.301   1.567  0.00  0.00    +0.044 C 
ATOM     10  C   UNL     1      -2.171  -1.525  -2.378  0.00  0.00    +0.000 C 
ATOM     11  C   UNL     1      -3.241   0.690  -1.991  0.00  0.00    +0.000 C 
ATOM     12  C   UNL     1      -4.250  -0.901   2.149  0.00  0.00    +0.000 C 
ENDBRANCH   3   8
ENDBRANCH   2   3
BRANCH   2  13
ATOM     13  C   UNL     1       2.277   1.552   0.478  0.00  0.00    +0.232 C 
BRANCH  13  14
ATOM     14  C   UNL     1       2.539   0.077   0.302  0.00  0.00    +0.015 C 
ATOM     15  C   UNL     1       2.349  -0.780   1.374  0.00  0.00    -0.001 C 
ATOM     16  C   UNL     1       2.965  -0.396  -0.930  0.00  0.00    -0.001 C 
ATOM     17  C   UNL     1       2.591  -2.144   1.211  0.00  0.00    -0.000 C 
ATOM     18  C   UNL     1       3.207  -1.760  -1.093  0.00  0.00    -0.000 C 
ATOM     19  C   UNL     1       3.020  -2.634  -0.022  0.00  0.00    -0.000 C 
ENDBRANCH  13  14
BRANCH  13  20
ATOM     20  O   UNL     1       3.152   2.275  -0.376  0.00  0.00    -0.371 OA
ATOM     21  H   UNL     1       2.993   3.226  -0.272  0.00  0.00    +0.211 HD
ENDBRANCH  13  20
ENDBRANCH   2  13
TORSDOF 5
