REMARK  Name = 643798
REMARK  4 active torsions:
REMARK  status: ('A' for Active; 'I' for Inactive)
REMARK    1  A    between atoms: C_1  and  C_5
REMARK    2  A    between atoms: C_3  and  C_9
REMARK    3  A    between atoms: C_5  and  O_6
REMARK    4  A    between atoms: C_9  and  O_10
REMARK                            x       y       z     vdW  Elec       q    Type
REMARK                         _______ _______ _______ _____ _____    ______ ____
ROOT
ATOM      1  C   UNL     1      -0.740  -0.830  -0.059  0.00  0.00    +0.060 C 
ATOM      2  C   UNL     1      -1.813  -1.878  -0.042  0.00  0.00    +0.038 C 
ATOM      3  C   UNL     1       0.589  -1.030  -0.042  0.00  0.00    +0.084 C 
ENDROOT
BRANCH   1   5
ATOM      4  O   UNL     1      -1.350   1.294  -1.035  0.00  0.00    -0.245 OA
ATOM      5  C   UNL     1      -1.162   0.599  -0.049  0.00  0.00    +0.334 C 
BRANCH   5   6
ATOM      6  O   UNL     1      -1.325   1.035   1.223  0.00  0.00    -0.477 OA
ATOM      7  H   UNL     1      -1.166   0.455   1.941  0.00  0.00    +0.295 HD
ENDBRANCH   5   6
ENDBRANCH   1   5
BRANCH   3   9
ATOM      8  O   UNL     1       1.381   1.256  -0.033  0.00  0.00    -0.245 OA
ATOM      9  C   UNL     1       1.594   0.056  -0.015  0.00  0.00    +0.338 C 
BRANCH   9  10
ATOM     10  O   UNL     1       2.826  -0.503   0.050  0.00  0.00    -0.477 OA
ATOM     11  H   UNL     1       2.917  -1.436   0.060  0.00  0.00    +0.295 HD
ENDBRANCH   9  10
ENDBRANCH   3   9
TORSDOF 4
