REMARK  Name = 6918961
REMARK  2 active torsions:
REMARK  status: ('A' for Active; 'I' for Inactive)
REMARK    1  A    between atoms: C_1  and  N_6
REMARK    2  A    between atoms: C_1  and  C_12
REMARK                            x       y       z     vdW  Elec       q    Type
REMARK                         _______ _______ _______ _____ _____    ______ ____
ROOT
ATOM      1  C   UNL     1       0.092  -0.219  -0.181  0.00  0.00    +0.047 C 
ATOM      2  C   UNL     1      -0.633  -0.476   1.136  0.00  0.00    -0.009 C 
ATOM      3  C   UNL     1      -0.733   0.895  -0.813  0.00  0.00    -0.009 C 
ATOM      4  C   UNL     1      -2.115  -0.286   0.821  0.00  0.00    -0.002 C 
ATOM      5  C   UNL     1      -2.180   0.586  -0.433  0.00  0.00    -0.002 C 
ENDROOT
BRANCH   1   6
ATOM      6  N   UNL     1       0.015  -1.442  -1.032  0.00  0.00    +0.390 N 
ATOM      7  H   UNL     1      -0.963  -1.686  -1.189  0.00  0.00    -0.088 HD
ATOM      8  H   UNL     1       0.487  -2.214  -0.562  0.00  0.00    -0.088 HD
ATOM      9  H   UNL     1       0.468  -1.261  -1.928  0.00  0.00    -0.088 HD
ENDBRANCH   1   6
BRANCH   1  12
ATOM     10  O   UNL     1       1.686   1.458   0.229  0.00  0.00    -0.248 OA
ATOM     11  O   UNL     1       2.352  -0.730   0.173  0.00  0.00    -0.248 OA
ATOM     12  C   UNL     1       1.516   0.214   0.101  0.00  0.00    +0.346 C 
ENDBRANCH   1  12
TORSDOF 2
