REMARK  Name = 12192007
REMARK  4 active torsions:
REMARK  status: ('A' for Active; 'I' for Inactive)
REMARK    1  A    between atoms: C_1  and  CA_10
REMARK    2  A    between atoms: CA_10  and  N_11
REMARK    3  A    between atoms: CA_10  and  C_16
REMARK    4  A    between atoms: C_16  and  O_17
REMARK                            x       y       z     vdW  Elec       q    Type
REMARK                         _______ _______ _______ _____ _____    ______ ____
ROOT
ATOM      1  C   UNL     1      -0.789   0.391  -0.230  0.00  0.00    -0.001 C 
ATOM      2  C   UNL     1       0.225   1.470   0.208  0.00  0.00    +0.025 C 
ATOM      3  C   UNL     1      -0.148  -0.972   0.108  0.00  0.00    +0.025 C 
ATOM      4  C   UNL     1       1.520   0.735   0.059  0.00  0.00    -0.026 C 
ATOM      5  C   UNL     1       1.309  -0.647   0.003  0.00  0.00    -0.026 C 
ATOM      6  C   UNL     1       2.799   1.265   0.021  0.00  0.00    -0.005 C 
ATOM      7  C   UNL     1       2.373  -1.528  -0.093  0.00  0.00    -0.005 C 
ATOM      8  C   UNL     1       3.877   0.384  -0.087  0.00  0.00    -0.000 C 
ATOM      9  C   UNL     1       3.666  -1.003  -0.144  0.00  0.00    -0.000 C 
ENDROOT
BRANCH   1  10
ATOM     10  CA  UNL     1      -2.153   0.573   0.418  0.00  0.00    +0.036 C 
BRANCH  10  11
ATOM     11  N   UNL     1      -2.700   1.869   0.036  0.00  0.00    +0.389 N 
ATOM     12  H1  UNL     1      -2.068   2.609   0.344  0.00  0.00    -0.088 HD
ATOM     13  H2  UNL     1      -3.611   1.997   0.476  0.00  0.00    -0.088 HD
ATOM     14  H3  UNL     1      -2.803   1.910  -0.978  0.00  0.00    -0.088 HD
ENDBRANCH  10  11
BRANCH  10  16
ATOM     15  OXT UNL     1      -3.825  -0.455  -1.034  0.00  0.00    -0.253 OA
ATOM     16  C   UNL     1      -3.105  -0.503  -0.047  0.00  0.00    +0.293 C 
BRANCH  16  17
ATOM     17  O   UNL     1      -3.048  -1.580   0.781  0.00  0.00    -0.482 OA
ATOM     18  H   UNL     1      -2.479  -1.568   1.526  0.00  0.00    +0.295 HD
ENDBRANCH  16  17
ENDBRANCH  10  16
ENDBRANCH   1  10
TORSDOF 4
