REMARK  Name = 790
REMARK  0 active torsions:
REMARK  status: ('A' for Active; 'I' for Inactive)
REMARK                            x       y       z     vdW  Elec       q    Type
REMARK                         _______ _______ _______ _____ _____    ______ ____
ROOT
ATOM      1  O   UNL     1      -1.750   1.904   0.000  0.00  0.00    -0.221 OA
ATOM      2  N   UNL     1       1.218   1.375   0.000  0.00  0.00    -0.305 N 
ATOM      3  N   UNL     1      -0.066  -1.824   0.000  0.00  0.00    -0.299 N 
ATOM      4  N   UNL     1       2.082  -0.688   0.000  0.00  0.00    -0.304 N 
ATOM      5  N   UNL     1      -2.026  -0.391  -0.001  0.00  0.00    -0.179 NA
ATOM      6  C   UNL     1       0.153   0.520   0.000  0.00  0.00    +0.157 C 
ATOM      7  C   UNL     1       0.720  -0.732   0.000  0.00  0.00    +0.121 C 
ATOM      8  C   UNL     1      -1.265   0.778   0.000  0.00  0.00    +0.168 C 
ATOM      9  C   UNL     1       2.354   0.602   0.000  0.00  0.00    +0.183 C 
ATOM     10  C   UNL     1      -1.419  -1.544   0.000  0.00  0.00    +0.230 C 
ATOM     11  H   UNL     1       1.179   2.359   0.000  0.00  0.00    +0.149 HD
ATOM     12  H   UNL     1       0.292  -2.741   0.001  0.00  0.00    +0.150 HD
ATOM     13  H   UNL     1       2.714  -1.443   0.000  0.00  0.00    +0.150 HD
ENDROOT
TORSDOF 0
