REMARK  Name = 7302
REMARK  0 active torsions:
REMARK  status: ('A' for Active; 'I' for Inactive)
REMARK                            x       y       z     vdW  Elec       q    Type
REMARK                         _______ _______ _______ _____ _____    ______ ____
ROOT
ATOM      1  O   UNL     1       0.034  -1.128  -0.042  0.00  0.00    -0.448 OA
ATOM      2  O   UNL     1       2.018   0.023  -0.061  0.00  0.00    -0.250 OA
ATOM      3  C   UNL     1      -1.429   0.674  -0.233  0.00  0.00    +0.059 C 
ATOM      4  C   UNL     1      -0.081   1.206   0.187  0.00  0.00    +0.113 C 
ATOM      5  C   UNL     1      -1.342  -0.781   0.146  0.00  0.00    +0.209 C 
ATOM      6  C   UNL     1       0.799   0.006   0.003  0.00  0.00    +0.317 C 
ENDROOT
TORSDOF 0
