REMARK  Name = 65457
REMARK  1 active torsions:
REMARK  status: ('A' for Active; 'I' for Inactive)
REMARK    1  A    between atoms: C_6  and  C_13
REMARK                            x       y       z     vdW  Elec       q    Type
REMARK                         _______ _______ _______ _____ _____    ______ ____
ROOT
ATOM      1 BR   UNL     1       0.190  -2.764  -0.003  0.00  0.00    -0.034 Br
ATOM      2  O   UNL     1       3.127  -1.960   0.000  0.00  0.00    -0.209 OA
ATOM      3  N   UNL     1       0.865   1.313   0.001  0.00  0.00    -0.275 N 
ATOM      4  N   UNL     1       3.006   0.326   0.000  0.00  0.00    -0.302 NA
ATOM      5  N   UNL     1       2.728   2.662  -0.001  0.00  0.00    -0.320 N 
ATOM      6  C   UNL     1       0.224   0.099   0.001  0.00  0.00    +0.069 C 
ATOM      7  C   UNL     1       0.931  -1.048  -0.001  0.00  0.00    +0.142 C 
ATOM      8  C   UNL     1       2.236   1.382   0.001  0.00  0.00    +0.248 C 
ATOM      9  C   UNL     1       2.441  -0.941   0.000  0.00  0.00    +0.215 C 
ATOM     10  H   UNL     1       0.336   2.143   0.002  0.00  0.00    +0.156 HD
ATOM     11  H   UNL     1       2.109   3.427   0.000  0.00  0.00    +0.146 HD
ATOM     12  H   UNL     1       3.700   2.815  -0.003  0.00  0.00    +0.146 HD
ENDROOT
BRANCH   6  13
ATOM     13  C   UNL     1      -1.231   0.127   0.000  0.00  0.00    +0.015 C 
ATOM     14  C   UNL     1      -1.928   0.140   1.208  0.00  0.00    +0.001 C 
ATOM     15  C   UNL     1      -1.927   0.143  -1.208  0.00  0.00    +0.001 C 
ATOM     16  C   UNL     1      -3.322   0.167   1.208  0.00  0.00    +0.000 C 
ATOM     17  C   UNL     1      -3.322   0.171  -1.208  0.00  0.00    +0.000 C 
ATOM     18  C   UNL     1      -4.019   0.183   0.000  0.00  0.00    +0.000 C 
ENDBRANCH   6  13
TORSDOF 1
