REMARK  Name = 154000
REMARK  7 active torsions:
REMARK  status: ('A' for Active; 'I' for Inactive)
REMARK    1  A    between atoms: O_1  and  C_5
REMARK    2  A    between atoms: O_1  and  C_17
REMARK    3  A    between atoms: C_2  and  C_8
REMARK    4  A    between atoms: C_8  and  C_13
REMARK    5  A    between atoms: C_17  and  C_18
REMARK    6  A    between atoms: C_18  and  C_21
REMARK    7  A    between atoms: C_23  and  C_25
REMARK                            x       y       z     vdW  Elec       q    Type
REMARK                         _______ _______ _______ _____ _____    ______ ____
ROOT
ATOM      1  O   UNL     1       0.626   2.492   1.235  0.00  0.00    -0.475 OA
ENDROOT
BRANCH   1   5
ATOM      2  C   UNL     1      -3.136   0.804   0.944  0.00  0.00    -0.021 C 
ATOM      3  C   UNL     1      -2.926   2.087   0.460  0.00  0.00    -0.001 C 
ATOM      4  C   UNL     1      -2.107   0.078   1.524  0.00  0.00    -0.001 C 
ATOM      5  C   UNL     1      -0.613   1.937   1.139  0.00  0.00    +0.139 C 
ATOM      6  C   UNL     1      -1.657   2.657   0.558  0.00  0.00    +0.037 C 
ATOM      7  C   UNL     1      -0.838   0.648   1.622  0.00  0.00    +0.037 C 
BRANCH   2   8
ATOM      8  C   UNL     1      -4.509   0.189   0.839  0.00  0.00    +0.047 C 
BRANCH   8  13
ATOM      9  O   UNL     1      -5.104  -2.858  -0.645  0.00  0.00    -0.346 OA
ATOM     10  O   UNL     1      -6.995   0.069  -0.883  0.00  0.00    -0.272 OA
ATOM     11  O   UNL     1      -2.955  -2.248  -0.111  0.00  0.00    -0.247 OA
ATOM     12  N   UNL     1      -6.307  -2.157  -0.872  0.00  0.00    -0.144 N 
ATOM     13  C   UNL     1      -4.692  -0.572  -0.460  0.00  0.00    +0.184 C 
ATOM     14  C   UNL     1      -6.143  -0.797  -0.761  0.00  0.00    +0.264 C 
ATOM     15  C   UNL     1      -4.111  -1.959  -0.373  0.00  0.00    +0.348 C 
ATOM     16  H   UNL     1      -7.164  -2.592  -1.085  0.00  0.00    +0.196 HD
ENDBRANCH   8  13
ENDBRANCH   2   8
ENDBRANCH   1   5
BRANCH   1  17
ATOM     17  C   UNL     1       0.996   3.433   0.227  0.00  0.00    +0.213 C 
BRANCH  17  18
ATOM     18  C   UNL     1       2.507   3.398   0.019  0.00  0.00    +0.105 C 
BRANCH  18  21
ATOM     19  O   UNL     1       3.619   0.354  -1.660  0.00  0.00    -0.449 OA
ATOM     20  N   UNL     1       3.367   1.121   0.453  0.00  0.00    -0.373 NA
ATOM     21  C   UNL     1       3.000   2.060  -0.452  0.00  0.00    +0.134 C 
ATOM     22  C   UNL     1       3.141   1.628  -1.726  0.00  0.00    +0.216 C 
ATOM     23  C   UNL     1       3.727   0.123  -0.323  0.00  0.00    +0.277 C 
ATOM     24  C   UNL     1       2.909   2.186  -3.063  0.00  0.00    +0.055 C 
BRANCH  23  25
ATOM     25  C   UNL     1       4.221  -1.178   0.035  0.00  0.00    +0.066 C 
ATOM     26  C   UNL     1       4.551  -2.104  -0.959  0.00  0.00    +0.006 C 
ATOM     27  C   UNL     1       4.372  -1.526   1.380  0.00  0.00    +0.006 C 
ATOM     28  C   UNL     1       5.028  -3.367  -0.610  0.00  0.00    +0.000 C 
ATOM     29  C   UNL     1       4.850  -2.789   1.729  0.00  0.00    +0.000 C 
ATOM     30  C   UNL     1       5.178  -3.710   0.734  0.00  0.00    +0.000 C 
ENDBRANCH  23  25
ENDBRANCH  18  21
ENDBRANCH  17  18
ENDBRANCH   1  17
TORSDOF 7
