REMARK  Name = 78598
REMARK  1 active torsions:
REMARK  status: ('A' for Active; 'I' for Inactive)
REMARK    1  A    between atoms: C_6  and  O_12
REMARK                            x       y       z     vdW  Elec       q    Type
REMARK                         _______ _______ _______ _____ _____    ______ ____
ROOT
ATOM      1  N   UNL     1       1.726   1.500   0.000  0.00  0.00    -0.315 N 
ATOM      2  N   UNL     1       2.612  -0.538   0.000  0.00  0.00    -0.315 N 
ATOM      3  C   UNL     1       0.660   0.638   0.000  0.00  0.00    +0.062 C 
ATOM      4  C   UNL     1       1.238  -0.628   0.000  0.00  0.00    +0.059 C 
ATOM      5  C   UNL     1      -0.720   0.850   0.000  0.00  0.00    +0.052 C 
ATOM      6  C   UNL     1      -1.532  -0.289   0.000  0.00  0.00    +0.140 C 
ATOM      7  C   UNL     1       0.407  -1.761   0.000  0.00  0.00    +0.019 C 
ATOM      8  C   UNL     1      -0.980  -1.572   0.000  0.00  0.00    +0.038 C 
ATOM      9  C   UNL     1       2.869   0.750   0.000  0.00  0.00    +0.182 C 
ATOM     10  H   UNL     1       1.677   2.483   0.000  0.00  0.00    +0.148 HD
ATOM     11  H   UNL     1       3.260  -1.279   0.000  0.00  0.00    +0.148 HD
ENDROOT
BRANCH   6  12
ATOM     12  O   UNL     1      -2.888  -0.142   0.000  0.00  0.00    -0.471 OA
ATOM     13  C   UNL     1      -3.393   1.191   0.000  0.00  0.00    +0.252 C 
ENDBRANCH   6  12
TORSDOF 1
