REMARK  Name = 448022
REMARK  5 active torsions:
REMARK  status: ('A' for Active; 'I' for Inactive)
REMARK    1  A    between atoms: N_2  and  CA_10
REMARK    2  A    between atoms: C_3  and  O_5
REMARK    3  A    between atoms: O_5  and  C_6
REMARK    4  A    between atoms: CA_10  and  C_11
REMARK    5  A    between atoms: CA_10  and  C_18
REMARK                            x       y       z     vdW  Elec       q    Type
REMARK                         _______ _______ _______ _____ _____    ______ ____
ROOT
ATOM      1  O   UNL     1      -1.730   0.614   1.365  0.00  0.00    -0.226 OA
ATOM      2  N   UNL     1      -0.172   0.605  -0.355  0.00  0.00    -0.265 N 
ATOM      3  C   UNL     1      -1.412   0.357   0.209  0.00  0.00    +0.402 C 
ATOM      4  H   UNL     1      -0.035   0.354  -1.297  0.00  0.00    +0.153 HD
ENDROOT
BRANCH   3   5
ATOM      5  O   UNL     1      -2.239  -0.219  -0.714  0.00  0.00    -0.442 OA
BRANCH   5   6
ATOM      6  C   UNL     1      -3.561  -0.529  -0.259  0.00  0.00    +0.138 C 
ATOM      7  C   UNL     1      -4.237   0.765   0.190  0.00  0.00    +0.044 C 
ATOM      8  C   UNL     1      -4.317  -1.151  -1.432  0.00  0.00    +0.044 C 
ATOM      9  C   UNL     1      -3.457  -1.520   0.899  0.00  0.00    +0.044 C 
ENDBRANCH   5   6
ENDBRANCH   3   5
BRANCH   2  10
ATOM     10  CA  UNL     1       0.926   1.204   0.348  0.00  0.00    +0.139 C 
BRANCH  10  11
ATOM     11  C   UNL     1       2.142   0.280   0.359  0.00  0.00    +0.026 C 
ATOM     12  C   UNL     1       1.819  -1.032   1.085  0.00  0.00    +0.002 C 
ATOM     13  C   UNL     1       2.628   0.007  -1.071  0.00  0.00    +0.002 C 
ATOM     14  C   UNL     1       3.003  -1.996   1.063  0.00  0.00    +0.000 C 
ATOM     15  C   UNL     1       3.811  -0.958  -1.090  0.00  0.00    +0.000 C 
ATOM     16  C   UNL     1       3.489  -2.257  -0.359  0.00  0.00    +0.000 C 
ENDBRANCH  10  11
BRANCH  10  18
ATOM     17  O   UNL     1       2.074   3.312   0.085  0.00  0.00    -0.286 OA
ATOM     18  C   UNL     1       1.233   2.517  -0.327  0.00  0.00    +0.227 C 
ENDBRANCH  10  18
ENDBRANCH   2  10
TORSDOF 5
