REMARK  Name = 65059
REMARK  7 active torsions:
REMARK  status: ('A' for Active; 'I' for Inactive)
REMARK    1  A    between atoms: C_2  and  N_7
REMARK    2  A    between atoms: C_3  and  O_20
REMARK    3  A    between atoms: C_5  and  C_22
REMARK    4  A    between atoms: C_22  and  O_23
REMARK    5  A    between atoms: O_23  and  P_24
REMARK    6  A    between atoms: P_24  and  O_26
REMARK    7  A    between atoms: P_24  and  O_28
REMARK                            x       y       z     vdW  Elec       q    Type
REMARK                         _______ _______ _______ _____ _____    ______ ____
ROOT
ATOM      1  O   UNL     1      -1.186   0.889   0.901  0.00  0.00    -0.338 OA
ATOM      2  C   UNL     1       0.035   1.261   0.238  0.00  0.00    +0.182 C 
ATOM      3  C   UNL     1      -1.656   2.620  -0.668  0.00  0.00    +0.144 C 
ATOM      4  C   UNL     1      -0.363   1.944  -1.063  0.00  0.00    +0.079 C 
ATOM      5  C   UNL     1      -2.275   1.639   0.321  0.00  0.00    +0.174 C 
ENDROOT
BRANCH   2   7
ATOM      6  O   UNL     1       4.308  -2.840  -0.339  0.00  0.00    -0.208 OA
ATOM      7  N   UNL     1       0.884   0.088   0.064  0.00  0.00    -0.209 NA
ATOM      8  N   UNL     1       3.131   0.998   0.271  0.00  0.00    -0.279 N 
ATOM      9  N   UNL     1       1.466  -2.055  -0.279  0.00  0.00    -0.241 NA
ATOM     10  N   UNL     1       4.884  -0.628   0.043  0.00  0.00    -0.301 NA
ATOM     11  N   UNL     1       5.342   1.651   0.433  0.00  0.00    -0.320 N 
ATOM     12  C   UNL     1       2.237   0.023   0.086  0.00  0.00    +0.191 C 
ATOM     13  C   UNL     1       0.461  -1.204  -0.161  0.00  0.00    +0.205 C 
ATOM     14  C   UNL     1       2.582  -1.281  -0.123  0.00  0.00    +0.183 C 
ATOM     15  C   UNL     1       3.976  -1.675  -0.154  0.00  0.00    +0.224 C 
ATOM     16  C   UNL     1       4.469   0.611   0.239  0.00  0.00    +0.245 C 
ATOM     17  H   UNL     1       2.861   1.932   0.420  0.00  0.00    +0.152 HD
ATOM     18  H   UNL     1       4.997   2.562   0.577  0.00  0.00    +0.146 HD
ATOM     19  H   UNL     1       6.313   1.487   0.429  0.00  0.00    +0.146 HD
ENDBRANCH   2   7
BRANCH   3  20
ATOM     20  O   UNL     1      -1.341   3.839   0.002  0.00  0.00    -0.382 OA
ATOM     21  H   UNL     1      -0.947   4.462  -0.628  0.00  0.00    +0.210 HD
ENDBRANCH   3  20
BRANCH   5  22
ATOM     22  C   UNL     1      -3.223   0.652  -0.346  0.00  0.00    +0.186 C 
BRANCH  22  23
ATOM     23  O   UNL     1      -3.738  -0.222   0.643  0.00  0.00    -0.271 OA
BRANCH  23  24
ATOM     24  P   UNL     1      -4.780  -1.375   0.188  0.00  0.00    +0.473 P 
ATOM     25  O   UNL     1      -5.276  -2.255   1.298  0.00  0.00    -0.227 OA
BRANCH  24  26
ATOM     26  O   UNL     1      -4.007  -2.140  -1.009  0.00  0.00    -0.303 OA
ATOM     27  H   UNL     1      -3.726  -1.495  -1.676  0.00  0.00    +0.222 HD
ENDBRANCH  24  26
BRANCH  24  28
ATOM     28  O   UNL     1      -5.929  -0.539  -0.586  0.00  0.00    -0.303 OA
ATOM     29  H   UNL     1      -5.523  -0.001  -1.283  0.00  0.00    +0.222 HD
ENDBRANCH  24  28
ENDBRANCH  23  24
ENDBRANCH  22  23
ENDBRANCH   5  22
TORSDOF 7
