REMARK  Name = 445750
REMARK  6 active torsions:
REMARK  status: ('A' for Active; 'I' for Inactive)
REMARK    1  A    between atoms: C_2  and  N_8
REMARK    2  A    between atoms: C_3  and  O_12
REMARK    3  A    between atoms: C_4  and  O_14
REMARK    4  A    between atoms: C_5  and  C_18
REMARK    5  A    between atoms: C_6  and  O_16
REMARK    6  A    between atoms: C_18  and  O_19
REMARK                            x       y       z     vdW  Elec       q    Type
REMARK                         _______ _______ _______ _____ _____    ______ ____
ROOT
ATOM      1  O   UNL     1      -1.553  -0.859  -0.284  0.00  0.00    -0.327 OA
ATOM      2  C   UNL     1       0.744  -0.078  -0.115  0.00  0.00    +0.158 C 
ATOM      3  C   UNL     1       0.235   1.308   0.294  0.00  0.00    +0.162 C 
ATOM      4  C   UNL     1      -1.208   1.534  -0.163  0.00  0.00    +0.169 C 
ATOM      5  C   UNL     1      -2.094   0.353   0.244  0.00  0.00    +0.176 C 
ATOM      6  C   UNL     1      -0.268  -1.169   0.252  0.00  0.00    +0.256 C 
ENDROOT
BRANCH   2   8
ATOM      7  O   UNL     1       3.378   0.593  -1.136  0.00  0.00    -0.275 OA
ATOM      8  N   UNL     1       2.024  -0.345   0.508  0.00  0.00    -0.299 N 
ATOM      9  C   UNL     1       3.232   0.017  -0.062  0.00  0.00    +0.223 C 
ATOM     10  C   UNL     1       4.404  -0.356   0.806  0.00  0.00    +0.095 C 
ATOM     11  H   UNL     1       2.035  -0.805   1.379  0.00  0.00    +0.150 HD
ENDBRANCH   2   8
BRANCH   3  12
ATOM     12  O   UNL     1       1.071   2.296  -0.312  0.00  0.00    -0.380 OA
ATOM     13  H   UNL     1       1.989   2.161  -0.029  0.00  0.00    +0.211 HD
ENDBRANCH   3  12
BRANCH   4  14
ATOM     14  O   UNL     1      -1.677   2.739   0.437  0.00  0.00    -0.379 OA
ATOM     15  H   UNL     1      -1.106   3.476   0.170  0.00  0.00    +0.211 HD
ENDBRANCH   4  14
BRANCH   6  16
ATOM     16  O   UNL     1       0.189  -2.405  -0.297  0.00  0.00    -0.327 OA
ATOM     17  C   UNL     1      -0.705  -3.465   0.005  0.00  0.00    +0.177 C 
ENDBRANCH   6  16
BRANCH   5  18
ATOM     18  C   UNL     1      -3.515   0.485  -0.294  0.00  0.00    +0.169 C 
BRANCH  18  19
ATOM     19  O   UNL     1      -4.260  -0.647   0.116  0.00  0.00    -0.379 OA
ATOM     20  H   UNL     1      -5.167  -0.576  -0.220  0.00  0.00    +0.211 HD
ENDBRANCH  18  19
ENDBRANCH   5  18
TORSDOF 6
