REMARK  Name = 5287890
REMARK  2 active torsions:
REMARK  status: ('A' for Active; 'I' for Inactive)
REMARK    1  A    between atoms: N_2  and  C_4
REMARK    2  A    between atoms: N_2  and  C_9
REMARK                            x       y       z     vdW  Elec       q    Type
REMARK                         _______ _______ _______ _____ _____    ______ ____
ROOT
ATOM      1  O   UNL     1       0.444   2.904   0.051  0.00  0.00    -0.265 OA
ATOM      2  N   UNL     1       0.329   0.561   0.008  0.00  0.00    -0.276 N 
ATOM      3  C   UNL     1       0.971   1.797   0.028  0.00  0.00    +0.303 C 
ENDROOT
BRANCH   2   4
ATOM      4  C   UNL     1      -1.103   0.463   0.015  0.00  0.00    +0.076 C 
ATOM      5  C   UNL     1      -1.649  -0.291  -1.190  0.00  0.00    +0.020 C 
ATOM      6  C   UNL     1      -1.638  -0.333   1.201  0.00  0.00    +0.020 C 
ATOM      7  C   UNL     1      -3.068  -0.629  -0.762  0.00  0.00    +0.002 C 
ATOM      8  C   UNL     1      -2.969  -0.924   0.733  0.00  0.00    +0.002 C 
ENDBRANCH   2   4
BRANCH   2   9
ATOM      9  C   UNL     1       1.114  -0.674  -0.015  0.00  0.00    +0.076 C 
ATOM     10  C   UNL     1       2.233  -0.744   1.045  0.00  0.00    +0.020 C 
ATOM     11  C   UNL     1       2.228  -0.708  -1.082  0.00  0.00    +0.020 C 
ATOM     12  C   UNL     1       3.106  -1.421  -0.032  0.00  0.00    +0.003 C 
ENDBRANCH   2   9
TORSDOF 2
