REMARK  Name = 447406
REMARK  7 active torsions:
REMARK  status: ('A' for Active; 'I' for Inactive)
REMARK    1  A    between atoms: C_2  and  O_12
REMARK    2  A    between atoms: C_3  and  O_16
REMARK    3  A    between atoms: C_4  and  N_8
REMARK    4  A    between atoms: C_5  and  C_21
REMARK    5  A    between atoms: C_6  and  O_14
REMARK    6  A    between atoms: O_16  and  S_17
REMARK    7  A    between atoms: C_21  and  O_22
REMARK                            x       y       z     vdW  Elec       q    Type
REMARK                         _______ _______ _______ _____ _____    ______ ____
ROOT
ATOM      1  O   UNL     1      -0.918  -1.992  -0.836  0.00  0.00    -0.327 OA
ATOM      2  C   UNL     1       0.019   0.255   0.736  0.00  0.00    +0.165 C 
ATOM      3  C   UNL     1       0.794  -0.287  -0.470  0.00  0.00    +0.205 C 
ATOM      4  C   UNL     1      -1.466  -0.106   0.626  0.00  0.00    +0.158 C 
ATOM      5  C   UNL     1       0.494  -1.763  -0.775  0.00  0.00    +0.179 C 
ATOM      6  C   UNL     1      -1.636  -1.606   0.337  0.00  0.00    +0.253 C 
ENDROOT
BRANCH   4   8
ATOM      7  O   UNL     1      -2.729   2.489   0.968  0.00  0.00    -0.275 OA
ATOM      8  N   UNL     1      -2.111   0.701  -0.389  0.00  0.00    -0.299 N 
ATOM      9  C   UNL     1      -2.688   1.933  -0.126  0.00  0.00    +0.223 C 
ATOM     10  C   UNL     1      -3.264   2.569  -1.363  0.00  0.00    +0.095 C 
ATOM     11  H   UNL     1      -2.140   0.358  -1.311  0.00  0.00    +0.150 HD
ENDBRANCH   4   8
BRANCH   2  12
ATOM     12  O   UNL     1       0.550  -0.296   1.940  0.00  0.00    -0.380 OA
ATOM     13  H   UNL     1       1.491  -0.070   2.012  0.00  0.00    +0.211 HD
ENDBRANCH   2  12
BRANCH   6  14
ATOM     14  O   UNL     1      -3.027  -1.893   0.192  0.00  0.00    -0.359 OA
ATOM     15  H   UNL     1      -3.144  -2.839   0.009  0.00  0.00    +0.213 HD
ENDBRANCH   6  14
BRANCH   3  16
ATOM     16  O   UNL     1       2.186  -0.060  -0.294  0.00  0.00    -0.198 OA
BRANCH  16  17
ATOM     17  S   UNL     1       2.736   1.465  -0.126  0.00  0.00    +0.239 S 
ATOM     18  O   UNL     1       4.358   1.292  -0.130  0.00  0.00    -0.116 OA
ATOM     19  O   UNL     1       2.372   2.190  -1.330  0.00  0.00    -0.116 OA
ATOM     20  O   UNL     1       2.344   1.972   1.176  0.00  0.00    -0.022 OA
ENDBRANCH  16  17
ENDBRANCH   3  16
BRANCH   5  21
ATOM     21  C   UNL     1       1.185  -2.780   0.134  0.00  0.00    +0.169 C 
BRANCH  21  22
ATOM     22  O   UNL     1       0.799  -4.081  -0.270  0.00  0.00    -0.379 OA
ATOM     23  H   UNL     1       1.231  -4.738   0.299  0.00  0.00    +0.211 HD
ENDBRANCH  21  22
ENDBRANCH   5  21
TORSDOF 7
