REMARK  Name = 46936985
REMARK  10 active torsions:
REMARK  status: ('A' for Active; 'I' for Inactive)
REMARK    1  A    between atoms: C_1  and  C_2
REMARK    2  A    between atoms: C_1  and  CA_11
REMARK    3  A    between atoms: C_2  and  C_3
REMARK    4  A    between atoms: C_3  and  C_4
REMARK    5  A    between atoms: C_4  and  C_5
REMARK    6  A    between atoms: C_5  and  C_6
REMARK    7  A    between atoms: C_6  and  N_7
REMARK    8  A    between atoms: CA_11  and  N_12
REMARK    9  A    between atoms: CA_11  and  C_17
REMARK   10  A    between atoms: C_17  and  O_18
REMARK                            x       y       z     vdW  Elec       q    Type
REMARK                         _______ _______ _______ _____ _____    ______ ____
ROOT
ATOM      1  C   UNL     1       1.391  -0.986   0.139  0.00  0.00    -0.011 C 
ENDROOT
BRANCH   1   2
ATOM      2  C   UNL     1       0.206  -0.204  -0.441  0.00  0.00    -0.002 C 
BRANCH   2   3
ATOM      3  C   UNL     1      -1.105  -0.602   0.241  0.00  0.00    -0.000 C 
BRANCH   3   4
ATOM      4  C   UNL     1      -2.323   0.167  -0.281  0.00  0.00    -0.002 C 
BRANCH   4   5
ATOM      5  C   UNL     1      -3.675  -0.231   0.321  0.00  0.00    -0.024 C 
BRANCH   5   6
ATOM      6  C   UNL     1      -4.858   0.508  -0.305  0.00  0.00    -0.086 C 
BRANCH   6   7
ATOM      7  N   UNL     1      -6.114   0.104   0.318  0.00  0.00    +0.380 N 
ATOM      8  H   UNL     1      -6.887   0.610  -0.115  0.00  0.00    -0.089 HD
ATOM      9  H   UNL     1      -6.084   0.319   1.315  0.00  0.00    -0.089 HD
ATOM     10  H   UNL     1      -6.250  -0.899   0.190  0.00  0.00    -0.089 HD
ENDBRANCH   6   7
ENDBRANCH   5   6
ENDBRANCH   4   5
ENDBRANCH   3   4
ENDBRANCH   2   3
ENDBRANCH   1   2
BRANCH   1  11
ATOM     11  CA  UNL     1       2.734  -0.568  -0.472  0.00  0.00    +0.036 C 
BRANCH  11  12
ATOM     12  N   UNL     1       3.747  -1.580  -0.163  0.00  0.00    +0.389 N 
ATOM     13  H1  UNL     1       3.457  -2.480  -0.545  0.00  0.00    -0.088 HD
ATOM     14  H2  UNL     1       3.852  -1.658   0.849  0.00  0.00    -0.088 HD
ATOM     15  H3  UNL     1       4.639  -1.306  -0.576  0.00  0.00    -0.088 HD
ENDBRANCH  11  12
BRANCH  11  17
ATOM     16  OXT UNL     1       3.886   0.838   1.152  0.00  0.00    -0.253 OA
ATOM     17  C   UNL     1       3.228   0.738   0.124  0.00  0.00    +0.293 C 
BRANCH  17  18
ATOM     18  O   UNL     1       2.882   1.813  -0.633  0.00  0.00    -0.482 OA
ATOM     19  H   UNL     1       2.378   1.693  -1.413  0.00  0.00    +0.295 HD
ENDBRANCH  17  18
ENDBRANCH  11  17
ENDBRANCH   1  11
TORSDOF 10
