REMARK  Name = 5585
REMARK  0 active torsions:
REMARK  status: ('A' for Active; 'I' for Inactive)
REMARK                            x       y       z     vdW  Elec       q    Type
REMARK                         _______ _______ _______ _____ _____    ______ ____
ROOT
ATOM      1  O   UNL     1      -2.861  -0.924   0.000  0.00  0.00    -0.458 OA
ATOM      2  O   UNL     1       1.944  -1.380   0.001  0.00  0.00    -0.421 OA
ATOM      3  O   UNL     1       4.225  -1.526  -0.001  0.00  0.00    -0.244 OA
ATOM      4  C   UNL     1       0.880   0.822   0.001  0.00  0.00    +0.031 C 
ATOM      5  C   UNL     1      -1.555   0.919   0.000  0.00  0.00    +0.037 C 
ATOM      6  C   UNL     1      -1.576  -0.471   0.001  0.00  0.00    +0.144 C 
ATOM      7  C   UNL     1      -0.435  -1.266   0.001  0.00  0.00    +0.047 C 
ATOM      8  C   UNL     1       0.782  -0.574   0.001  0.00  0.00    +0.147 C 
ATOM      9  C   UNL     1      -0.309   1.578   0.000  0.00  0.00    +0.006 C 
ATOM     10  C   UNL     1       2.218   1.433   0.000  0.00  0.00    -0.012 C 
ATOM     11  C   UNL     1      -2.916   1.325  -0.001  0.00  0.00    +0.036 C 
ATOM     12  C   UNL     1      -3.665   0.171  -0.001  0.00  0.00    +0.123 C 
ATOM     13  C   UNL     1      -0.493  -2.755   0.000  0.00  0.00    +0.037 C 
ATOM     14  C   UNL     1       3.298   0.639  -0.001  0.00  0.00    +0.078 C 
ATOM     15  C   UNL     1       2.360   2.927   0.001  0.00  0.00    +0.031 C 
ATOM     16  C   UNL     1       3.215  -0.831  -0.001  0.00  0.00    +0.346 C 
ATOM     17  C   UNL     1      -5.112  -0.087  -0.002  0.00  0.00    +0.072 C 
ENDROOT
TORSDOF 0
