REMARK  Name = 439196
REMARK  7 active torsions:
REMARK  status: ('A' for Active; 'I' for Inactive)
REMARK    1  A    between atoms: C_1  and  O_2
REMARK    2  A    between atoms: C_1  and  C_4
REMARK    3  A    between atoms: C_1  and  C_10
REMARK    4  A    between atoms: C_4  and  O_5
REMARK    5  A    between atoms: C_4  and  C_7
REMARK    6  A    between atoms: C_7  and  S_8
REMARK    7  A    between atoms: C_10  and  S_11
REMARK                            x       y       z     vdW  Elec       q    Type
REMARK                         _______ _______ _______ _____ _____    ______ ____
ROOT
ATOM      1  C   UNL     1       0.815  -0.539   0.509  0.00  0.00    +0.148 C 
ENDROOT
BRANCH   1   2
ATOM      2  O   UNL     1       1.589  -1.500  -0.207  0.00  0.00    -0.381 OA
ATOM      3  H   UNL     1       1.060  -2.300  -0.349  0.00  0.00    +0.210 HD
ENDBRANCH   1   2
BRANCH   1   4
ATOM      4  C   UNL     1      -0.533  -0.299  -0.201  0.00  0.00    +0.148 C 
BRANCH   4   5
ATOM      5  O   UNL     1      -1.187  -1.558  -0.348  0.00  0.00    -0.381 OA
ATOM      6  H   UNL     1      -0.619  -2.161  -0.853  0.00  0.00    +0.210 HD
ENDBRANCH   4   5
BRANCH   4   7
ATOM      7  C   UNL     1      -1.437   0.649   0.599  0.00  0.00    +0.085 C 
BRANCH   7   8
ATOM      8  S   UNL     1      -3.023   0.930  -0.252  0.00  0.00    -0.165 S 
ATOM      9  H   UNL     1      -3.792   1.773   0.488  0.00  0.00    +0.102 HD
ENDBRANCH   7   8
ENDBRANCH   4   7
ENDBRANCH   1   4
BRANCH   1  10
ATOM     10  C   UNL     1       1.678   0.715   0.719  0.00  0.00    +0.085 C 
BRANCH  10  11
ATOM     11  S   UNL     1       2.099   1.600  -0.817  0.00  0.00    -0.165 S 
ATOM     12  H   UNL     1       2.860   2.687  -0.519  0.00  0.00    +0.102 HD
ENDBRANCH  10  11
ENDBRANCH   1  10
TORSDOF 7
