REMARK  Name = 439767
REMARK  3 active torsions:
REMARK  status: ('A' for Active; 'I' for Inactive)
REMARK    1  A    between atoms: C_1  and  C_7
REMARK    2  A    between atoms: C_7  and  O_8
REMARK    3  A    between atoms: C_7  and  C_11
REMARK                            x       y       z     vdW  Elec       q    Type
REMARK                         _______ _______ _______ _____ _____    ______ ____
ROOT
ATOM      1  C   UNL     1      -0.052  -0.075  -0.318  0.00  0.00    +0.019 C 
ATOM      2  C   UNL     1      -0.646  -1.026   0.513  0.00  0.00    -0.001 C 
ATOM      3  C   UNL     1      -0.805   0.993  -0.806  0.00  0.00    -0.001 C 
ATOM      4  C   UNL     1      -1.993  -0.908   0.855  0.00  0.00    -0.000 C 
ATOM      5  C   UNL     1      -2.152   1.110  -0.464  0.00  0.00    -0.000 C 
ATOM      6  C   UNL     1      -2.746   0.160   0.367  0.00  0.00    -0.000 C 
ENDROOT
BRANCH   1   7
ATOM      7  C   UNL     1       1.389  -0.201  -0.683  0.00  0.00    +0.225 C 
BRANCH   7   8
ATOM      8  O   UNL     1       1.756  -1.585  -0.757  0.00  0.00    -0.368 OA
ATOM      9  H   UNL     1       1.172  -2.042  -1.382  0.00  0.00    +0.212 HD
ENDBRANCH   7   8
BRANCH   7  11
ATOM     10  N   UNL     1       2.970   1.041   1.024  0.00  0.00    -0.193 NA
ATOM     11  C   UNL     1       2.279   0.492   0.270  0.00  0.00    +0.107 C 
ENDBRANCH   7  11
ENDBRANCH   1   7
TORSDOF 3
