REMARK  Name = 638035
REMARK  6 active torsions:
REMARK  status: ('A' for Active; 'I' for Inactive)
REMARK    1  A    between atoms: C_7  and  C_12
REMARK    2  A    between atoms: C_12  and  C_13
REMARK    3  A    between atoms: C_13  and  C_14
REMARK    4  A    between atoms: C_14  and  C_15
REMARK    5  A    between atoms: C_15  and  C_17
REMARK    6  A    between atoms: C_17  and  O_18
REMARK                            x       y       z     vdW  Elec       q    Type
REMARK                         _______ _______ _______ _____ _____    ______ ____
ROOT
ATOM      1  S   UNL     1      -1.224   1.003   1.336  0.00  0.00    -0.138 S 
ATOM      2  O   UNL     1      -5.488  -0.959   0.503  0.00  0.00    -0.253 OA
ATOM      3  N   UNL     1      -3.253  -1.274  -0.126  0.00  0.00    -0.288 N 
ATOM      4  N   UNL     1      -4.149   0.783  -0.311  0.00  0.00    -0.288 N 
ATOM      5  C   UNL     1      -2.173  -0.465  -0.661  0.00  0.00    +0.102 C 
ATOM      6  C   UNL     1      -2.792   0.942  -0.795  0.00  0.00    +0.103 C 
ATOM      7  C   UNL     1      -0.962  -0.448   0.277  0.00  0.00    +0.067 C 
ATOM      8  C   UNL     1      -2.011   1.961   0.023  0.00  0.00    +0.079 C 
ATOM      9  C   UNL     1      -4.423  -0.534   0.076  0.00  0.00    +0.301 C 
ATOM     10  H   UNL     1      -3.172  -2.235   0.073  0.00  0.00    +0.151 HD
ATOM     11  H   UNL     1      -4.803   1.517  -0.259  0.00  0.00    +0.151 HD
ENDROOT
BRANCH   7  12
ATOM     12  C   UNL     1       0.349  -0.305  -0.489  0.00  0.00    +0.013 C 
BRANCH  12  13
ATOM     13  C   UNL     1       1.581  -0.275   0.416  0.00  0.00    +0.001 C 
BRANCH  13  14
ATOM     14  C   UNL     1       2.931  -0.189  -0.300  0.00  0.00    +0.012 C 
BRANCH  14  15
ATOM     15  C   UNL     1       4.127  -0.226   0.651  0.00  0.00    +0.109 C 
BRANCH  15  17
ATOM     16  O   UNL     1       5.560   0.090  -1.292  0.00  0.00    -0.250 OA
ATOM     17  C   UNL     1       5.436  -0.046  -0.083  0.00  0.00    +0.314 C 
BRANCH  17  18
ATOM     18  O   UNL     1       6.491  -0.059   0.774  0.00  0.00    -0.480 OA
ATOM     19  H   UNL     1       6.346  -0.166   1.694  0.00  0.00    +0.295 HD
ENDBRANCH  17  18
ENDBRANCH  15  17
ENDBRANCH  14  15
ENDBRANCH  13  14
ENDBRANCH  12  13
ENDBRANCH   7  12
TORSDOF 6
