REMARK  Name = 656965
REMARK  5 active torsions:
REMARK  status: ('A' for Active; 'I' for Inactive)
REMARK    1  A    between atoms: N_1  and  C_8
REMARK    2  A    between atoms: C_4  and  C_17
REMARK    3  A    between atoms: C_13  and  O_14
REMARK    4  A    between atoms: C_17  and  O_18
REMARK    5  A    between atoms: O_18  and  C_19
REMARK                            x       y       z     vdW  Elec       q    Type
REMARK                         _______ _______ _______ _____ _____    ______ ____
ROOT
ATOM      1  N   UNL     1       0.218  -0.354  -0.189  0.00  0.00    -0.234 N 
ATOM      2  N   UNL     1      -0.241  -1.617  -0.320  0.00  0.00    -0.170 NA
ATOM      3  C   UNL     1      -0.785   0.580  -0.152  0.00  0.00    +0.068 A 
ATOM      4  C   UNL     1      -1.963  -0.117  -0.266  0.00  0.00    +0.104 A 
ATOM      5  C   UNL     1      -1.567  -1.464  -0.366  0.00  0.00    +0.087 A 
ATOM      6  C   UNL     1      -0.526   2.028  -0.013  0.00  0.00    +0.052 C 
ATOM      7  C   UNL     1      -2.429  -2.651  -0.509  0.00  0.00    +0.054 C 
ENDROOT
BRANCH   1   8
ATOM      8  C   UNL     1       1.578  -0.113  -0.106  0.00  0.00    +0.083 C 
ATOM      9  C   UNL     1       2.104   1.087  -0.584  0.00  0.00    +0.022 C 
ATOM     10  C   UNL     1       2.423  -1.071   0.454  0.00  0.00    +0.022 C 
ATOM     11  C   UNL     1       3.475   1.329  -0.501  0.00  0.00    +0.038 C 
ATOM     12  C   UNL     1       3.794  -0.829   0.537  0.00  0.00    +0.038 C 
ATOM     13  C   UNL     1       4.320   0.372   0.060  0.00  0.00    +0.139 C 
BRANCH  13  14
ATOM     14  O   UNL     1       5.658   0.608   0.140  0.00  0.00    -0.471 OA
ATOM     15  C   UNL     1       6.464  -0.413   0.725  0.00  0.00    +0.252 C 
ENDBRANCH  13  14
ENDBRANCH   1   8
BRANCH   4  17
ATOM     16  O   UNL     1      -3.550   1.586  -0.706  0.00  0.00    -0.245 OA
ATOM     17  C   UNL     1      -3.279   0.449  -0.276  0.00  0.00    +0.344 C 
BRANCH  17  18
ATOM     18  O   UNL     1      -4.258  -0.379   0.240  0.00  0.00    -0.445 OA
BRANCH  18  19
ATOM     19  C   UNL     1      -5.598   0.125   0.260  0.00  0.00    +0.209 C 
ATOM     20  C   UNL     1      -5.835   0.845   1.571  0.00  0.00    +0.051 C 
ENDBRANCH  18  19
ENDBRANCH  17  18
ENDBRANCH   4  17
TORSDOF 5
