REMARK  Name = 23644529
REMARK  9 active torsions:
REMARK  status: ('A' for Active; 'I' for Inactive)
REMARK    1  A    between atoms: C_1  and  S_2
REMARK    2  A    between atoms: C_1  and  C_10
REMARK    3  A    between atoms: S_2  and  C_3
REMARK    4  A    between atoms: C_3  and  C_4
REMARK    5  A    between atoms: C_4  and  C_5
REMARK    6  A    between atoms: C_5  and  N_6
REMARK    7  A    between atoms: C_10  and  N_11
REMARK    8  A    between atoms: C_10  and  C_15
REMARK    9  A    between atoms: C_15  and  O_16
REMARK                            x       y       z     vdW  Elec       q    Type
REMARK                         _______ _______ _______ _____ _____    ______ ____
ROOT
ATOM      1  C   UNK     1       1.347   0.297  -1.042  0.00  0.00    +0.038 C 
ENDROOT
BRANCH   1   2
ATOM      2  S   UNK     1      -0.033  -0.880  -0.898  0.00  0.00    -0.142 S 
BRANCH   2   3
ATOM      3  C   UNK     1      -1.308   0.281  -0.359  0.00  0.00    +0.055 C 
BRANCH   3   4
ATOM      4  C   UNK     1      -2.638  -0.438  -0.145  0.00  0.00    -0.012 C 
BRANCH   4   5
ATOM      5  C   UNK     1      -3.720   0.545   0.305  0.00  0.00    -0.085 C 
BRANCH   5   6
ATOM      6  N   UNK     1      -4.980  -0.154   0.527  0.00  0.00    +0.380 N 
ATOM      7  H   UNK     1      -5.691   0.514   0.826  0.00  0.00    -0.089 HD
ATOM      8  H   UNK     1      -4.853  -0.862   1.250  0.00  0.00    -0.089 HD
ATOM      9  H   UNK     1      -5.278  -0.602  -0.340  0.00  0.00    -0.089 HD
ENDBRANCH   5   6
ENDBRANCH   4   5
ENDBRANCH   3   4
ENDBRANCH   2   3
ENDBRANCH   1   2
BRANCH   1  10
ATOM     10  C   UNK     1       2.014   0.603   0.308  0.00  0.00    -0.025 C 
BRANCH  10  11
ATOM     11  N   UNK     1       3.079   1.593   0.097  0.00  0.00    +0.384 N 
ATOM     12  H   UNK     1       2.692   2.414  -0.369  0.00  0.00    -0.089 HD
ATOM     13  H   UNK     1       3.812   1.186  -0.484  0.00  0.00    -0.089 HD
ATOM     14  H   UNK     1       3.471   1.868   0.998  0.00  0.00    -0.089 HD
ENDBRANCH  10  11
BRANCH  10  15
ATOM     15  C   UNK     1       2.623  -0.619   1.010  0.00  0.00    +0.116 C 
BRANCH  15  16
ATOM     16  O   UNK     1       3.617  -1.230   0.197  0.00  0.00    -0.384 OA
ATOM     17  H   UNK     1       3.986  -1.998   0.661  0.00  0.00    +0.210 HD
ENDBRANCH  15  16
ENDBRANCH  10  15
ENDBRANCH   1  10
TORSDOF 9
