REMARK  Name = 444763
REMARK  5 active torsions:
REMARK  status: ('A' for Active; 'I' for Inactive)
REMARK    1  A    between atoms: C_4  and  N_12
REMARK    2  A    between atoms: C_6  and  C_20
REMARK    3  A    between atoms: C_13  and  C_16
REMARK    4  A    between atoms: C_16  and  O_17
REMARK    5  A    between atoms: C_20  and  O_21
REMARK                            x       y       z     vdW  Elec       q    Type
REMARK                         _______ _______ _______ _____ _____    ______ ____
ROOT
ATOM      1  N   UNL     1      -2.893  -2.170  -0.006  0.00  0.00    -0.312 N 
ATOM      2  C   UNL     1      -1.985  -1.135   0.004  0.00  0.00    +0.050 C 
ATOM      3  C   UNL     1      -2.717   0.054   0.030  0.00  0.00    +0.015 C 
ATOM      4  C   UNL     1       0.083   0.068   0.007  0.00  0.00    +0.058 C 
ATOM      5  C   UNL     1      -0.586  -1.160  -0.008  0.00  0.00    +0.029 C 
ATOM      6  C   UNL     1      -0.622   1.270   0.033  0.00  0.00    +0.089 C 
ATOM      7  C   UNL     1      -2.022   1.279   0.044  0.00  0.00    +0.009 C 
ATOM      8  C   UNL     1      -4.095  -0.304   0.035  0.00  0.00    +0.017 C 
ATOM      9  C   UNL     1      -4.170  -1.678   0.013  0.00  0.00    +0.062 C 
ATOM     10  H   UNL     1      -2.657  -3.126  -0.024  0.00  0.00    +0.152 HD
ENDROOT
BRANCH   4  12
ATOM     11  O   UNL     1       2.053  -2.228  -0.048  0.00  0.00    -0.263 OA
ATOM     12  N   UNL     1       1.482   0.063  -0.004  0.00  0.00    -0.275 N 
ATOM     13  C   UNL     1       2.329  -1.040  -0.029  0.00  0.00    +0.325 C 
ATOM     14  H   UNL     1       1.918   0.945   0.007  0.00  0.00    +0.155 HD
BRANCH  13  16
ATOM     15  O   UNL     1       4.166   0.515  -0.015  0.00  0.00    -0.240 OA
ATOM     16  C   UNL     1       3.792  -0.640  -0.034  0.00  0.00    +0.393 C 
BRANCH  16  17
ATOM     17  O   UNL     1       4.571  -1.733  -0.059  0.00  0.00    -0.474 OA
ATOM     18  H   UNL     1       4.181  -2.586  -0.072  0.00  0.00    +0.296 HD
ENDBRANCH  16  17
ENDBRANCH  13  16
ENDBRANCH   4  12
BRANCH   6  20
ATOM     19  O   UNL     1       1.183   2.753   0.547  0.00  0.00    -0.245 OA
ATOM     20  C   UNL     1       0.073   2.551   0.049  0.00  0.00    +0.339 C 
BRANCH  20  21
ATOM     21  O   UNL     1      -0.643   3.535  -0.558  0.00  0.00    -0.477 OA
ATOM     22  H   UNL     1      -1.483   3.344  -0.925  0.00  0.00    +0.295 HD
ENDBRANCH  20  21
ENDBRANCH   6  20
TORSDOF 5
