REMARK  Name = 34870
REMARK  9 active torsions:
REMARK  status: ('A' for Active; 'I' for Inactive)
REMARK    1  A    between atoms: C_1  and  N_16
REMARK    2  A    between atoms: N_16  and  C_19
REMARK    3  A    between atoms: C_19  and  C_20
REMARK    4  A    between atoms: C_20  and  C_21
REMARK    5  A    between atoms: C_21  and  C_22
REMARK    6  A    between atoms: C_22  and  C_23
REMARK    7  A    between atoms: C_23  and  C_24
REMARK    8  A    between atoms: C_24  and  C_26
REMARK    9  A    between atoms: C_26  and  O_27
REMARK                            x       y       z     vdW  Elec       q    Type
REMARK                         _______ _______ _______ _____ _____    ______ ____
ROOT
ATOM      1  C   UNL     1      -1.903   0.297   0.688  0.00  0.00    -0.016 C 
ATOM      2  C   UNL     1      -3.166   1.098   0.390  0.00  0.00    -0.042 C 
ATOM      3  C   UNL     1      -2.016  -1.203   0.477  0.00  0.00    -0.042 C 
ATOM      4  C   UNL     1      -3.870  -0.117  -1.818  0.00  0.00    +0.031 C 
ATOM      5  C   UNL     1      -2.555  -0.872  -1.970  0.00  0.00    +0.031 C 
ATOM      6  C   UNL     1      -4.007   0.929  -0.730  0.00  0.00    -0.027 C 
ATOM      7  C   UNL     1      -2.292  -1.759  -0.784  0.00  0.00    -0.027 C 
ATOM      8  C   UNL     1      -3.474   2.128   1.311  0.00  0.00    -0.006 C 
ATOM      9  C   UNL     1      -1.809  -2.068   1.567  0.00  0.00    -0.006 C 
ATOM     10  C   UNL     1      -5.136   1.772  -0.861  0.00  0.00    -0.005 C 
ATOM     11  C   UNL     1      -2.356  -3.154  -0.931  0.00  0.00    -0.005 C 
ATOM     12  C   UNL     1      -4.587   2.953   1.155  0.00  0.00    -0.000 C 
ATOM     13  C   UNL     1      -1.876  -3.452   1.410  0.00  0.00    -0.000 C 
ATOM     14  C   UNL     1      -5.423   2.772   0.066  0.00  0.00    -0.000 C 
ATOM     15  C   UNL     1      -2.148  -3.995   0.160  0.00  0.00    -0.000 C 
ENDROOT
BRANCH   1  16
ATOM     16  N   UNL     1      -0.733   0.865   0.001  0.00  0.00    +0.390 N 
ATOM     17  H   UNL     1      -0.697   1.869   0.174  0.00  0.00    -0.083 HD
ATOM     18  H   UNL     1      -0.818   0.684  -1.000  0.00  0.00    -0.083 HD
BRANCH  16  19
ATOM     19  C   UNL     1       0.490   0.251   0.487  0.00  0.00    -0.081 C 
BRANCH  19  20
ATOM     20  C   UNL     1       1.705   0.869  -0.204  0.00  0.00    -0.023 C 
BRANCH  20  21
ATOM     21  C   UNL     1       3.006   0.249   0.312  0.00  0.00    -0.002 C 
BRANCH  21  22
ATOM     22  C   UNL     1       4.260   0.813  -0.363  0.00  0.00    +0.000 C 
BRANCH  22  23
ATOM     23  C   UNL     1       5.594   0.245   0.130  0.00  0.00    +0.012 C 
BRANCH  23  24
ATOM     24  C   UNL     1       6.805   0.797  -0.622  0.00  0.00    +0.109 C 
BRANCH  24  26
ATOM     25  O   UNL     1       8.212  -0.467   0.912  0.00  0.00    -0.250 OA
ATOM     26  C   UNL     1       8.106   0.286  -0.047  0.00  0.00    +0.314 C 
BRANCH  26  27
ATOM     27  O   UNL     1       9.175   0.763  -0.736  0.00  0.00    -0.480 OA
ATOM     28  H   UNL     1       9.044   1.338  -1.465  0.00  0.00    +0.295 HD
ENDBRANCH  26  27
ENDBRANCH  24  26
ENDBRANCH  23  24
ENDBRANCH  22  23
ENDBRANCH  21  22
ENDBRANCH  20  21
ENDBRANCH  19  20
ENDBRANCH  16  19
ENDBRANCH   1  16
TORSDOF 9
