REMARK  Name = 1478
REMARK  9 active torsions:
REMARK  status: ('A' for Active; 'I' for Inactive)
REMARK    1  A    between atoms: N_1  and  C_29
REMARK    2  A    between atoms: C_3  and  C_16
REMARK    3  A    between atoms: C_4  and  C_9
REMARK    4  A    between atoms: C_5  and  C_22
REMARK    5  A    between atoms: C_6  and  C_26
REMARK    6  A    between atoms: C_16  and  O_17
REMARK    7  A    between atoms: O_17  and  C_18
REMARK    8  A    between atoms: C_22  and  O_23
REMARK    9  A    between atoms: C_26  and  O_27
REMARK                            x       y       z     vdW  Elec       q    Type
REMARK                         _______ _______ _______ _____ _____    ______ ____
ROOT
ATOM      1  N   UNL     1       2.140  -1.387  -0.021  0.00  0.00    -0.300 N 
ATOM      2  C   UNL     1       0.918  -1.885   0.209  0.00  0.00    +0.102 C 
ATOM      3  C   UNL     1      -0.183  -1.041   0.237  0.00  0.00    +0.071 C 
ATOM      4  C   UNL     1       0.008   0.323   0.023  0.00  0.00    +0.012 C 
ATOM      5  C   UNL     1       2.355  -0.081  -0.230  0.00  0.00    +0.131 C 
ATOM      6  C   UNL     1       1.291   0.810  -0.214  0.00  0.00    +0.095 C 
ATOM      7  C   UNL     1       0.770  -3.355   0.430  0.00  0.00    +0.027 C 
ENDROOT
BRANCH   4   9
ATOM      8 CL   UNL     1      -0.749   1.588   2.733  0.00  0.00    -0.082 Cl
ATOM      9  C   UNL     1      -1.124   1.229   0.045  0.00  0.00    +0.011 C 
ATOM     10  C   UNL     1      -1.545   1.852   1.220  0.00  0.00    +0.058 C 
ATOM     11  C   UNL     1      -1.797   1.472  -1.152  0.00  0.00    +0.001 C 
ATOM     12  C   UNL     1      -2.639   2.718   1.198  0.00  0.00    +0.011 C 
ATOM     13  C   UNL     1      -2.890   2.338  -1.175  0.00  0.00    +0.000 C 
ATOM     14  C   UNL     1      -3.311   2.961   0.000  0.00  0.00    +0.001 C 
ENDBRANCH   4   9
BRANCH   3  16
ATOM     15  O   UNL     1      -2.014  -1.711   1.610  0.00  0.00    -0.245 OA
ATOM     16  C   UNL     1      -1.513  -1.589   0.488  0.00  0.00    +0.339 C 
BRANCH  16  17
ATOM     17  O   UNL     1      -2.130  -1.948  -0.677  0.00  0.00    -0.449 OA
BRANCH  17  18
ATOM     18  C   UNL     1      -3.446  -2.501  -0.562  0.00  0.00    +0.169 C 
ATOM     19  C   UNL     1      -4.364  -1.493   0.112  0.00  0.00    +0.047 C 
ATOM     20  C   UNL     1      -3.957  -2.852  -1.952  0.00  0.00    +0.047 C 
ENDBRANCH  17  18
ENDBRANCH  16  17
ENDBRANCH   3  16
BRANCH   5  22
ATOM     21  O   UNL     1       4.519   0.720   0.401  0.00  0.00    -0.244 OA
ATOM     22  C   UNL     1       3.722   0.366  -0.471  0.00  0.00    +0.352 C 
BRANCH  22  23
ATOM     23  O   UNL     1       4.045   0.353  -1.792  0.00  0.00    -0.476 OA
ATOM     24  H   UNL     1       3.413   0.077  -2.426  0.00  0.00    +0.295 HD
ENDBRANCH  22  23
ENDBRANCH   5  22
BRANCH   6  26
ATOM     25  O   UNL     1       1.773   3.062   0.435  0.00  0.00    -0.245 OA
ATOM     26  C   UNL     1       1.528   2.234  -0.443  0.00  0.00    +0.339 C 
BRANCH  26  27
ATOM     27  O   UNL     1       1.450   2.563  -1.759  0.00  0.00    -0.477 OA
ATOM     28  H   UNL     1       1.261   1.902  -2.396  0.00  0.00    +0.295 HD
ENDBRANCH  26  27
ENDBRANCH   6  26
BRANCH   1  29
ATOM     29  C   UNL     1       3.282  -2.310  -0.045  0.00  0.00    +0.091 C 
ATOM     30  C   UNL     1       3.861  -2.433   1.351  0.00  0.00    +0.023 C 
ENDBRANCH   1  29
TORSDOF 9
