REMARK  Name = 367584
REMARK  6 active torsions:
REMARK  status: ('A' for Active; 'I' for Inactive)
REMARK    1  A    between atoms: C_3  and  C_6
REMARK    2  A    between atoms: C_3  and  C_9
REMARK    3  A    between atoms: C_6  and  O_7
REMARK    4  A    between atoms: C_9  and  P_10
REMARK    5  A    between atoms: P_10  and  O_12
REMARK    6  A    between atoms: P_10  and  O_14
REMARK                            x       y       z     vdW  Elec       q    Type
REMARK                         _______ _______ _______ _____ _____    ______ ____
ROOT
ATOM      1 CL   UNL     1      -0.748   2.737  -0.395  0.00  0.00    -0.070 Cl
ATOM      2 CL   UNL     1      -2.851   1.100   0.816  0.00  0.00    -0.070 Cl
ATOM      3  C   UNL     1      -0.642   0.041  -0.370  0.00  0.00    +0.087 C 
ATOM      4  C   UNL     1      -1.341   1.143  -0.040  0.00  0.00    +0.118 C 
ENDROOT
BRANCH   3   6
ATOM      5  O   UNL     1      -1.014  -1.917   0.983  0.00  0.00    -0.245 OA
ATOM      6  C   UNL     1      -1.200  -1.300  -0.054  0.00  0.00    +0.336 C 
BRANCH   6   7
ATOM      7  O   UNL     1      -1.959  -1.733  -1.087  0.00  0.00    -0.477 OA
ATOM      8  H   UNL     1      -2.056  -1.201  -1.852  0.00  0.00    +0.295 HD
ENDBRANCH   6   7
ENDBRANCH   3   6
BRANCH   3   9
ATOM      9  C   UNL     1       0.673   0.032  -1.098  0.00  0.00    +0.150 C 
BRANCH   9  10
ATOM     10  P   UNL     1       1.988   0.074   0.130  0.00  0.00    +0.341 P 
ATOM     11  O   UNL     1       1.956   1.277   1.010  0.00  0.00    -0.258 OA
BRANCH  10  12
ATOM     12  O   UNL     1       3.315  -0.109  -0.767  0.00  0.00    -0.323 OA
ATOM     13  H   UNL     1       4.097  -0.100  -0.193  0.00  0.00    +0.220 HD
ENDBRANCH  10  12
BRANCH  10  14
ATOM     14  O   UNL     1       1.825  -1.347   0.872  0.00  0.00    -0.323 OA
ATOM     15  H   UNL     1       2.499  -1.429   1.565  0.00  0.00    +0.220 HD
ENDBRANCH  10  14
ENDBRANCH   9  10
ENDBRANCH   3   9
TORSDOF 6
