REMARK  Name = 79143
REMARK  0 active torsions:
REMARK  status: ('A' for Active; 'I' for Inactive)
REMARK                            x       y       z     vdW  Elec       q    Type
REMARK                         _______ _______ _______ _____ _____    ______ ____
ROOT
ATOM      1  O   UNL     1       1.463  -1.813  -0.001  0.00  0.00    -0.193 OA
ATOM      2  N   UNL     1       1.148   0.471   0.001  0.00  0.00    -0.203 N 
ATOM      3  N   UNL     1      -0.682  -1.071   0.001  0.00  0.00    -0.306 NA
ATOM      4  N   UNL     1      -2.878  -0.304   0.000  0.00  0.00    -0.332 N 
ATOM      5  C   UNL     1       0.265   1.526   0.000  0.00  0.00    +0.081 C 
ATOM      6  C   UNL     1      -1.054   1.341  -0.001  0.00  0.00    +0.065 C 
ATOM      7  C   UNL     1       0.686  -0.857   0.000  0.00  0.00    +0.274 C 
ATOM      8  C   UNL     1       2.575   0.776   0.001  0.00  0.00    +0.132 C 
ATOM      9  C   UNL     1      -1.522  -0.069   0.000  0.00  0.00    +0.193 C 
ATOM     10  H   UNL     1      -3.217  -1.228   0.001  0.00  0.00    +0.145 HD
ATOM     11  H   UNL     1      -3.508   0.452   0.000  0.00  0.00    +0.145 HD
ENDROOT
TORSDOF 0
