REMARK  Name = 160556
REMARK  15 active torsions:
REMARK  status: ('A' for Active; 'I' for Inactive)
REMARK    1  A    between atoms: N_1  and  CE_4
REMARK    2  A    between atoms: N_1  and  CA_17
REMARK    3  A    between atoms: CE_4  and  CD_5
REMARK    4  A    between atoms: CD_5  and  CG_6
REMARK    5  A    between atoms: CG_6  and  CB_7
REMARK    6  A    between atoms: CB_7  and  CA_8
REMARK    7  A    between atoms: CA_8  and  N_9
REMARK    8  A    between atoms: CA_8  and  C_14
REMARK    9  A    between atoms: C_14  and  O_15
REMARK   10  A    between atoms: CA_17  and  C_19
REMARK   11  A    between atoms: CA_17  and  CB_22
REMARK   12  A    between atoms: C_19  and  O_20
REMARK   13  A    between atoms: CB_22  and  CG_23
REMARK   14  A    between atoms: CG_23  and  CD_25
REMARK   15  A    between atoms: CD_25  and  OE1_26
REMARK                            x       y       z     vdW  Elec       q    Type
REMARK                         _______ _______ _______ _____ _____    ______ ____
ROOT
ATOM      1  N   LYS A   1      -1.121   0.712   1.096  0.00  0.00    +0.392 N 
ATOM      2  H1  LYS A   1      -1.099   1.708   1.315  0.00  0.00    -0.084 HD
ATOM      3  H2  LYS A   1      -1.101   0.158   1.953  0.00  0.00    -0.084 HD
ENDROOT
BRANCH   1   4
ATOM      4  CE  LYS A   1       0.049   0.373   0.295  0.00  0.00    -0.081 C 
BRANCH   4   5
ATOM      5  CD  LYS A   1       1.331   0.705   1.059  0.00  0.00    -0.023 C 
BRANCH   5   6
ATOM      6  CG  LYS A   1       2.571   0.363   0.229  0.00  0.00    -0.004 C 
BRANCH   6   7
ATOM      7  CB  LYS A   1       3.893   0.652   0.953  0.00  0.00    -0.011 C 
BRANCH   7   8
ATOM      8  CA  LYS A   1       5.152   0.385   0.118  0.00  0.00    +0.036 C 
BRANCH   8   9
ATOM      9  N   LYS A   1       5.171   1.203  -1.095  0.00  0.00    +0.389 N 
ATOM     10  H1  LYS A   1       5.081   2.187  -0.842  0.00  0.00    -0.088 HD
ATOM     11  H2  LYS A   1       4.394   0.935  -1.699  0.00  0.00    -0.088 HD
ATOM     12  H3  LYS A   1       6.052   1.058  -1.589  0.00  0.00    -0.088 HD
ENDBRANCH   8   9
BRANCH   8  14
ATOM     13  OXT LYS A   1       5.301  -1.423  -1.475  0.00  0.00    -0.253 OA
ATOM     14  C   LYS A   1       5.288  -1.064  -0.302  0.00  0.00    +0.293 C 
BRANCH  14  15
ATOM     15  O   LYS A   1       5.376  -1.936   0.732  0.00  0.00    -0.482 OA
ATOM     16  H   LYS A   1       5.362  -1.621   1.614  0.00  0.00    +0.295 HD
ENDBRANCH  14  15
ENDBRANCH   8  14
ENDBRANCH   7   8
ENDBRANCH   6   7
ENDBRANCH   5   6
ENDBRANCH   4   5
ENDBRANCH   1   4
BRANCH   1  17
ATOM     17  CA  LYS A   1      -2.349   0.409   0.375  0.00  0.00    +0.040 C 
BRANCH  17  19
ATOM     18  OXT LYS A   1      -2.341   2.715  -0.427  0.00  0.00    -0.253 OA
ATOM     19  C   LYS A   1      -2.607   1.535  -0.611  0.00  0.00    +0.293 C 
BRANCH  19  20
ATOM     20  O   LYS A   1      -3.183   1.084  -1.757  0.00  0.00    -0.482 OA
ATOM     21  H   LYS A   1      -3.371   0.172  -1.860  0.00  0.00    +0.295 HD
ENDBRANCH  19  20
ENDBRANCH  17  19
BRANCH  17  22
ATOM     22  CB  LYS A   1      -3.539   0.185   1.323  0.00  0.00    +0.001 C 
BRANCH  22  23
ATOM     23  CG  LYS A   1      -4.842  -0.288   0.672  0.00  0.00    +0.108 C 
BRANCH  23  25
ATOM     24  OE2 LYS A   1      -3.940  -2.470   0.164  0.00  0.00    -0.250 OA
ATOM     25  CD  LYS A   1      -4.698  -1.556  -0.132  0.00  0.00    +0.314 C 
BRANCH  25  26
ATOM     26  OE1 LYS A   1      -5.511  -1.584  -1.217  0.00  0.00    -0.480 OA
ATOM     27  HE1 LYS A   1      -6.074  -0.857  -1.399  0.00  0.00    +0.295 HD
ENDBRANCH  25  26
ENDBRANCH  23  25
ENDBRANCH  22  23
ENDBRANCH  17  22
ENDBRANCH   1  17
TORSDOF 15
