REMARK  Name = 182230
REMARK  6 active torsions:
REMARK  status: ('A' for Active; 'I' for Inactive)
REMARK    1  A    between atoms: CA_1  and  N_3
REMARK    2  A    between atoms: CA_1  and  C_8
REMARK    3  A    between atoms: CA_1  and  CB_11
REMARK    4  A    between atoms: C_8  and  O_9
REMARK    5  A    between atoms: CB_11  and  CG_12
REMARK    6  A    between atoms: CG_12  and  CD_15
REMARK                            x       y       z     vdW  Elec       q    Type
REMARK                         _______ _______ _______ _____ _____    ______ ____
ROOT
ATOM      1  CA  GLN A   1      -0.721   0.566   0.528  0.00  0.00    +0.172 C 
ENDROOT
BRANCH   1   3
ATOM      2  O   UNK A   0      -2.579  -1.563   1.190  0.00  0.00    -0.275 OA
ATOM      3  N   GLN A   1      -1.539  -0.196  -0.382  0.00  0.00    -0.297 N 
ATOM      4  C   UNK A   0      -2.402  -1.200   0.030  0.00  0.00    +0.223 C 
ATOM      5  C   UNK A   0      -3.154  -1.816  -1.119  0.00  0.00    +0.095 C 
ATOM      6  H   GLN A   1      -1.483   0.007  -1.343  0.00  0.00    +0.150 HD
ENDBRANCH   1   3
BRANCH   1   8
ATOM      7  OXT GLN A   1       0.061   2.842   0.753  0.00  0.00    -0.248 OA
ATOM      8  C   GLN A   1      -0.531   2.006   0.078  0.00  0.00    +0.332 C 
BRANCH   8   9
ATOM      9  O   GLN A   1      -1.110   2.310  -1.108  0.00  0.00    -0.479 OA
ATOM     10  H   GLN A   1      -1.554   1.645  -1.596  0.00  0.00    +0.295 HD
ENDBRANCH   8   9
ENDBRANCH   1   8
BRANCH   1  11
ATOM     11  CB  GLN A   1       0.631  -0.116   0.770  0.00  0.00    +0.041 C 
BRANCH  11  12
ATOM     12  CG  GLN A   1       1.556  -0.111  -0.452  0.00  0.00    +0.087 C 
BRANCH  12  15
ATOM     13  OE1 GLN A   1       3.135  -1.201   0.999  0.00  0.00    -0.275 OA
ATOM     14  NE2 GLN A   1       3.766  -0.774  -1.173  0.00  0.00    -0.329 N 
ATOM     15  CD  GLN A   1       2.887  -0.746  -0.114  0.00  0.00    +0.219 C 
ATOM     16 HE21 GLN A   1       4.661  -1.167  -1.059  0.00  0.00    +0.145 HD
ATOM     17 HE22 GLN A   1       3.499  -0.401  -2.044  0.00  0.00    +0.145 HD
ENDBRANCH  12  15
ENDBRANCH  11  12
ENDBRANCH   1  11
TORSDOF 6
