REMARK  Name = 4470577
REMARK  5 active torsions:
REMARK  status: ('A' for Active; 'I' for Inactive)
REMARK    1  A    between atoms: N_2  and  C_24
REMARK    2  A    between atoms: C_13  and  C_16
REMARK    3  A    between atoms: C_21  and  O_22
REMARK    4  A    between atoms: C_24  and  C_25
REMARK    5  A    between atoms: C_30  and  O_31
REMARK                            x       y       z     vdW  Elec       q    Type
REMARK                         _______ _______ _______ _____ _____    ______ ____
ROOT
ATOM      1  O   UNL     1       3.742   2.159   1.852  0.00  0.00    -0.270 OA
ATOM      2  N   UNL     1      -1.389   0.462  -0.725  0.00  0.00    -0.325 N 
ATOM      3  N   UNL     1       1.643   1.299   1.280  0.00  0.00    -0.270 N 
ATOM      4  C   UNL     1      -0.457   0.997   0.117  0.00  0.00    +0.054 A 
ATOM      5  C   UNL     1      -0.914   2.223   0.550  0.00  0.00    -0.006 A 
ATOM      6  C   UNL     1      -0.113   3.063   1.480  0.00  0.00    +0.049 C 
ATOM      7  C   UNL     1       0.820   0.340   0.500  0.00  0.00    +0.137 C 
ATOM      8  C   UNL     1       0.920   2.190   2.213  0.00  0.00    +0.099 C 
ATOM      9  C   UNL     1      -2.178   2.451  -0.061  0.00  0.00    +0.013 A 
ATOM     10  C   UNL     1      -2.452   1.331  -0.854  0.00  0.00    +0.060 A 
ATOM     11  C   UNL     1      -3.119   3.499  -0.020  0.00  0.00    +0.001 C 
ATOM     12  C   UNL     1      -3.626   1.211  -1.607  0.00  0.00    +0.017 C 
ATOM     13  C   UNL     1       3.040   1.374   1.217  0.00  0.00    +0.249 C 
ATOM     14  C   UNL     1      -4.296   3.391  -0.769  0.00  0.00    +0.000 C 
ATOM     15  C   UNL     1      -4.544   2.263  -1.549  0.00  0.00    +0.001 C 
ENDROOT
BRANCH  13  16
ATOM     16  C   UNL     1       3.747   0.440   0.327  0.00  0.00    +0.054 C 
ATOM     17  C   UNL     1       3.995   0.796  -0.995  0.00  0.00    +0.008 C 
ATOM     18  C   UNL     1       4.163  -0.797   0.813  0.00  0.00    +0.008 C 
ATOM     19  C   UNL     1       4.665  -0.090  -1.839  0.00  0.00    +0.037 C 
ATOM     20  C   UNL     1       4.833  -1.683  -0.030  0.00  0.00    +0.037 C 
ATOM     21  C   UNL     1       5.084  -1.330  -1.356  0.00  0.00    +0.134 C 
BRANCH  21  22
ATOM     22  O   UNL     1       5.737  -2.195  -2.179  0.00  0.00    -0.506 OA
ATOM     23  H   UNL     1       5.906  -1.958  -3.069  0.00  0.00    +0.292 HD
ENDBRANCH  21  22
ENDBRANCH  13  16
BRANCH   2  24
ATOM     24  C   UNL     1      -1.280  -0.820  -1.388  0.00  0.00    +0.132 C 
BRANCH  24  25
ATOM     25  C   UNL     1      -1.874  -1.923  -0.554  0.00  0.00    +0.001 C 
ATOM     26  C   UNL     1      -3.217  -2.244  -0.699  0.00  0.00    +0.001 C 
ATOM     27  C   UNL     1      -1.070  -2.604   0.350  0.00  0.00    +0.001 C 
ATOM     28  C   UNL     1      -3.767  -3.266   0.074  0.00  0.00    +0.036 C 
ATOM     29  C   UNL     1      -1.620  -3.627   1.123  0.00  0.00    +0.036 C 
ATOM     30  C   UNL     1      -2.968  -3.957   0.986  0.00  0.00    +0.134 C 
BRANCH  30  31
ATOM     31  O   UNL     1      -3.505  -4.954   1.741  0.00  0.00    -0.506 OA
ATOM     32  H   UNL     1      -4.411  -5.176   1.648  0.00  0.00    +0.292 HD
ENDBRANCH  30  31
ENDBRANCH  24  25
ENDBRANCH   2  24
TORSDOF 5
