REMARK  Name = 3092847
REMARK  4 active torsions:
REMARK  status: ('A' for Active; 'I' for Inactive)
REMARK    1  A    between atoms: C_1  and  N_8
REMARK    2  A    between atoms: C_2  and  N_21
REMARK    3  A    between atoms: C_4  and  S_13
REMARK    4  A    between atoms: S_13  and  N_16
REMARK                            x       y       z     vdW  Elec       q    Type
REMARK                         _______ _______ _______ _____ _____    ______ ____
ROOT
ATOM      1  C   UNL     1       0.614   0.456  -0.146  0.00  0.00    +0.076 C 
ATOM      2  C   UNL     1      -0.034  -0.778  -0.020  0.00  0.00    +0.158 C 
ATOM      3  C   UNL     1      -0.148   1.629  -0.192  0.00  0.00    +0.018 C 
ATOM      4  C   UNL     1      -2.178   0.335   0.012  0.00  0.00    +0.123 C 
ATOM      5  C   UNL     1      -1.426  -0.838   0.059  0.00  0.00    +0.045 C 
ATOM      6  C   UNL     1      -1.539   1.569  -0.113  0.00  0.00    +0.021 C 
ENDROOT
BRANCH   1   8
ATOM      7  O   UNL     1       2.718   0.740   2.051  0.00  0.00    -0.275 OA
ATOM      8  N   UNL     1       2.035   0.547  -0.228  0.00  0.00    -0.257 N 
ATOM      9  C   UNL     1       2.735   0.594  -1.498  0.00  0.00    +0.099 C 
ATOM     10  C   UNL     1       4.170   0.275  -1.137  0.00  0.00    +0.031 C 
ATOM     11  C   UNL     1       4.316   0.842   0.261  0.00  0.00    +0.087 C 
ATOM     12  C   UNL     1       2.932   0.684   0.849  0.00  0.00    +0.229 C 
ENDBRANCH   1   8
BRANCH   4  13
ATOM     13  S   UNL     1      -3.920   0.261   0.111  0.00  0.00    +0.057 S 
ATOM     14  O   UNL     1      -4.289  -0.973   0.792  0.00  0.00    -0.153 OA
ATOM     15  O   UNL     1      -4.410   1.537   0.611  0.00  0.00    -0.153 OA
BRANCH  13  16
ATOM     16  N   UNL     1      -4.334   0.123  -1.541  0.00  0.00    -0.203 NA
ATOM     17  H   UNL     1      -5.348   0.069  -1.634  0.00  0.00    +0.144 HD
ATOM     18  H   UNL     1      -3.912  -0.720  -1.929  0.00  0.00    +0.144 HD
ENDBRANCH  13  16
ENDBRANCH   4  13
BRANCH   2  21
ATOM     19  O   UNL     1       0.090  -3.075   0.141  0.00  0.00    -0.126 OA
ATOM     20  O   UNL     1       1.959  -1.938  -0.042  0.00  0.00    -0.126 OA
ATOM     21  N   UNL     1       0.709  -1.991   0.029  0.00  0.00    +0.059 N 
ENDBRANCH   2  21
TORSDOF 4
