REMARK  Name = 91552
REMARK  6 active torsions:
REMARK  status: ('A' for Active; 'I' for Inactive)
REMARK    1  A    between atoms: CA_1  and  N_2
REMARK    2  A    between atoms: CA_1  and  C_7
REMARK    3  A    between atoms: CA_1  and  C_10
REMARK    4  A    between atoms: C_7  and  O_8
REMARK    5  A    between atoms: C_10  and  C_11
REMARK    6  A    between atoms: C_11  and  S_12
REMARK                            x       y       z     vdW  Elec       q    Type
REMARK                         _______ _______ _______ _____ _____    ______ ____
ROOT
ATOM      1  CA  UNL     1      -0.553   0.621  -0.706  0.00  0.00    +0.037 C 
ENDROOT
BRANCH   1   2
ATOM      2  N   UNL     1      -0.615   1.882   0.040  0.00  0.00    +0.389 N 
ATOM      3  H1  UNL     1      -0.074   2.594  -0.451  0.00  0.00    -0.088 HD
ATOM      4  H2  UNL     1      -0.227   1.744   0.974  0.00  0.00    -0.088 HD
ATOM      5  H3  UNL     1      -1.586   2.185   0.116  0.00  0.00    -0.088 HD
ENDBRANCH   1   2
BRANCH   1   7
ATOM      6  OXT UNL     1      -1.905  -0.169   1.162  0.00  0.00    -0.253 OA
ATOM      7  C   UNL     1      -1.375  -0.386   0.080  0.00  0.00    +0.293 C 
BRANCH   7   8
ATOM      8  O   UNL     1      -1.491  -1.574  -0.567  0.00  0.00    -0.482 OA
ATOM      9  H   UNL     1      -1.070  -1.701  -1.395  0.00  0.00    +0.295 HD
ENDBRANCH   7   8
ENDBRANCH   1   7
BRANCH   1  10
ATOM     10  C   UNL     1       0.911   0.172  -0.819  0.00  0.00    +0.000 C 
BRANCH  10  11
ATOM     11  C   UNL     1       1.656   0.009   0.509  0.00  0.00    +0.052 C 
BRANCH  11  12
ATOM     12  S   UNL     1       3.372  -0.555   0.301  0.00  0.00    -0.168 S 
ATOM     13  H   UNL     1       3.960  -0.674   1.522  0.00  0.00    +0.102 HD
ENDBRANCH  11  12
ENDBRANCH  10  11
ENDBRANCH   1  10
TORSDOF 6
