REMARK  Name = 448384
REMARK  11 active torsions:
REMARK  status: ('A' for Active; 'I' for Inactive)
REMARK    1  A    between atoms: C_1  and  C_3
REMARK    2  A    between atoms: C_1  and  C_6
REMARK    3  A    between atoms: C_1  and  C_19
REMARK    4  A    between atoms: C_3  and  O_4
REMARK    5  A    between atoms: C_6  and  C_7
REMARK    6  A    between atoms: C_7  and  N_10
REMARK    7  A    between atoms: C_19  and  C_21
REMARK    8  A    between atoms: C_21  and  C_22
REMARK    9  A    between atoms: C_25  and  C_28
REMARK   10  A    between atoms: C_33  and  O_34
REMARK   11  A    between atoms: O_34  and  C_35
REMARK                            x       y       z     vdW  Elec       q    Type
REMARK                         _______ _______ _______ _____ _____    ______ ____
ROOT
ATOM      1  C   UNL     1       2.685   2.084  -0.139  0.00  0.00    +0.108 C 
ENDROOT
BRANCH   1   3
ATOM      2  O   UNL     1       2.920   4.498   0.061  0.00  0.00    -0.250 OA
ATOM      3  C   UNL     1       3.304   3.444  -0.431  0.00  0.00    +0.314 C 
BRANCH   3   4
ATOM      4  O   UNL     1       4.344   3.374  -1.299  0.00  0.00    -0.480 OA
ATOM      5  H   UNL     1       4.604   2.546  -1.652  0.00  0.00    +0.295 HD
ENDBRANCH   3   4
ENDBRANCH   1   3
BRANCH   1   6
ATOM      6  C   UNL     1       2.804   1.758   1.364  0.00  0.00    +0.034 C 
BRANCH   6   7
ATOM      7  C   UNL     1       4.207   1.330   1.795  0.00  0.00    +0.102 C 
BRANCH   7  10
ATOM      8  O   UNL     1       3.026  -1.406   1.849  0.00  0.00    -0.269 OA
ATOM      9  O   UNL     1       6.584   0.941   0.033  0.00  0.00    -0.269 OA
ATOM     10  N   UNL     1       4.662   0.137   1.140  0.00  0.00    -0.223 N 
ATOM     11  C   UNL     1       4.028  -1.093   1.233  0.00  0.00    +0.255 C 
ATOM     12  C   UNL     1       5.789   0.071   0.334  0.00  0.00    +0.255 C 
ATOM     13  C   UNL     1       4.810  -2.017   0.412  0.00  0.00    +0.058 C 
ATOM     14  C   UNL     1       5.875  -1.313  -0.132  0.00  0.00    +0.058 C 
ATOM     15  C   UNL     1       4.616  -3.359   0.157  0.00  0.00    +0.005 C 
ATOM     16  C   UNL     1       6.801  -1.914  -0.958  0.00  0.00    +0.005 C 
ATOM     17  C   UNL     1       5.542  -3.989  -0.678  0.00  0.00    +0.000 C 
ATOM     18  C   UNL     1       6.625  -3.274  -1.230  0.00  0.00    +0.000 C 
ENDBRANCH   7  10
ENDBRANCH   6   7
ENDBRANCH   1   6
BRANCH   1  19
ATOM     19  C   UNL     1       1.204   2.120  -0.565  0.00  0.00    +0.080 C 
BRANCH  19  21
ATOM     20  O   UNL     1       1.292  -0.233  -1.110  0.00  0.00    -0.291 OA
ATOM     21  C   UNL     1       0.609   0.731  -0.773  0.00  0.00    +0.174 C 
BRANCH  21  22
ATOM     22  C   UNL     1      -0.857   0.545  -0.569  0.00  0.00    +0.035 C 
ATOM     23  C   UNL     1      -1.736   1.600  -0.816  0.00  0.00    +0.003 C 
ATOM     24  C   UNL     1      -1.349  -0.685  -0.132  0.00  0.00    +0.003 C 
ATOM     25  C   UNL     1      -3.598   0.195  -0.188  0.00  0.00    +0.000 C 
ATOM     26  C   UNL     1      -3.106   1.425  -0.625  0.00  0.00    +0.000 C 
ATOM     27  C   UNL     1      -2.720  -0.860   0.059  0.00  0.00    +0.000 C 
BRANCH  25  28
ATOM     28  C   UNL     1      -5.020   0.013   0.011  0.00  0.00    +0.000 C 
ATOM     29  C   UNL     1      -5.815   1.097   0.386  0.00  0.00    +0.003 C 
ATOM     30  C   UNL     1      -5.595  -1.245  -0.169  0.00  0.00    +0.003 C 
ATOM     31  C   UNL     1      -7.185   0.922   0.580  0.00  0.00    +0.037 C 
ATOM     32  C   UNL     1      -6.965  -1.419   0.025  0.00  0.00    +0.037 C 
ATOM     33  C   UNL     1      -7.760  -0.336   0.400  0.00  0.00    +0.139 C 
BRANCH  33  34
ATOM     34  O   UNL     1      -9.098  -0.505   0.587  0.00  0.00    -0.475 OA
BRANCH  34  35
ATOM     35  C   UNL     1      -9.739  -1.518  -0.187  0.00  0.00    +0.206 C 
ATOM     36  C   UNL     1     -11.181  -1.120  -0.422  0.00  0.00    +0.051 C 
ENDBRANCH  34  35
ENDBRANCH  33  34
ENDBRANCH  25  28
ENDBRANCH  21  22
ENDBRANCH  19  21
ENDBRANCH   1  19
TORSDOF 11
