REMARK  Name = 5289078
REMARK  6 active torsions:
REMARK  status: ('A' for Active; 'I' for Inactive)
REMARK    1  A    between atoms: S_1  and  C_3
REMARK    2  A    between atoms: S_1  and  C_7
REMARK    3  A    between atoms: C_3  and  C_4
REMARK    4  A    between atoms: C_4  and  C_6
REMARK    5  A    between atoms: C_7  and  C_8
REMARK    6  A    between atoms: C_8  and  C_10
REMARK                            x       y       z     vdW  Elec       q    Type
REMARK                         _______ _______ _______ _____ _____    ______ ____
ROOT
ATOM      1  S   UNL     1       0.190  -1.154   0.020  0.00  0.00    -0.077 S 
ENDROOT
BRANCH   1   3
ATOM      2  O   UNL     1      -0.834   1.277   0.013  0.00  0.00    -0.284 OA
ATOM      3  C   UNL     1      -1.079   0.077   0.013  0.00  0.00    +0.200 C 
BRANCH   3   4
ATOM      4  C   UNL     1      -2.480  -0.510   0.006  0.00  0.00    +0.088 C 
BRANCH   4   6
ATOM      5  S   UNL     1      -5.211  -0.193  -0.062  0.00  0.00    -0.082 S 
ATOM      6  C   UNL     1      -3.554   0.583   0.034  0.00  0.00    +0.077 C 
ENDBRANCH   4   6
ENDBRANCH   3   4
ENDBRANCH   1   3
BRANCH   1   7
ATOM      7  C   UNL     1       1.663  -0.109   0.028  0.00  0.00    +0.073 C 
BRANCH   7   8
ATOM      8  C   UNL     1       2.925  -0.959  -0.009  0.00  0.00    +0.084 C 
BRANCH   8  10
ATOM      9  O   UNL     1       4.200   1.107  -0.028  0.00  0.00    -0.288 OA
ATOM     10  C   UNL     1       4.180  -0.119  -0.015  0.00  0.00    +0.208 C 
ENDBRANCH   8  10
ENDBRANCH   7   8
ENDBRANCH   1   7
TORSDOF 6
