REMARK  Name = 7244
REMARK  1 active torsions:
REMARK  status: ('A' for Active; 'I' for Inactive)
REMARK    1  A    between atoms: C_2  and  O_8
REMARK                            x       y       z     vdW  Elec       q    Type
REMARK                         _______ _______ _______ _____ _____    ______ ____
ROOT
ATOM      1 BR   UNL     1       2.478  -1.148   0.000  0.00  0.00    -0.046 Br
ATOM      2  C   UNL     1       0.391   0.832   0.000  0.00  0.00    +0.140 C 
ATOM      3  C   UNL     1       0.685  -0.531   0.000  0.00  0.00    +0.068 C 
ATOM      4  C   UNL     1      -0.937   1.259   0.000  0.00  0.00    +0.037 C 
ATOM      5  C   UNL     1      -0.348  -1.468   0.000  0.00  0.00    +0.010 C 
ATOM      6  C   UNL     1      -1.971   0.323   0.000  0.00  0.00    +0.003 C 
ATOM      7  C   UNL     1      -1.676  -1.041   0.000  0.00  0.00    +0.001 C 
ENDROOT
BRANCH   2   8
ATOM      8  O   UNL     1       1.378   1.773   0.000  0.00  0.00    -0.505 OA
ATOM      9  H   UNL     1       2.277   1.509   0.000  0.00  0.00    +0.292 HD
ENDBRANCH   2   8
TORSDOF 1
