REMARK  Name = 181426
REMARK  3 active torsions:
REMARK  status: ('A' for Active; 'I' for Inactive)
REMARK    1  A    between atoms: N_1  and  C_4
REMARK    2  A    between atoms: N_1  and  C_9
REMARK    3  A    between atoms: N_2  and  O_15
REMARK                            x       y       z     vdW  Elec       q    Type
REMARK                         _______ _______ _______ _____ _____    ______ ____
ROOT
ATOM      1  N   UNL     1      -1.359  -0.136  -0.602  0.00  0.00    -0.212 NA
ENDROOT
BRANCH   1   3
ATOM      2 CL   UNL     1       4.482   0.033   0.274  0.00  0.00    -0.082 Cl
ATOM      3  C   UNL     1       0.023  -0.096  -0.395  0.00  0.00    +0.084 C 
ATOM      4  C   UNL     1       0.694  -1.233   0.056  0.00  0.00    +0.020 C 
ATOM      5  C   UNL     1       0.732   1.080  -0.641  0.00  0.00    +0.020 C 
ATOM      6  C   UNL     1       2.073  -1.193   0.263  0.00  0.00    +0.013 C 
ATOM      7  C   UNL     1       2.111   1.120  -0.434  0.00  0.00    +0.013 C 
ATOM      8  C   UNL     1       2.781  -0.017   0.018  0.00  0.00    +0.058 C 
ENDBRANCH   1   3
BRANCH   1  11
ATOM      9  N   UNL     1      -3.537   0.165   0.264  0.00  0.00    -0.237 N 
ATOM     10  N   UNL     1      -1.786   0.559   1.661  0.00  0.00    -0.368 N 
ATOM     11  C   UNL     1      -2.163   0.176   0.389  0.00  0.00    +0.220 C 
ATOM     12  H   UNL     1      -4.121   0.581   0.938  0.00  0.00    +0.197 HD
ATOM     13  H   UNL     1      -0.831   0.613   1.896  0.00  0.00    +0.159 HD
ATOM     14  H   UNL     1      -2.471   0.779   2.332  0.00  0.00    +0.159 HD
BRANCH   9  15
ATOM     15  O   UNL     1      -4.050  -0.459  -0.853  0.00  0.00    -0.287 OA
ATOM     16  H   UNL     1      -5.019  -0.406  -0.836  0.00  0.00    +0.244 HD
ENDBRANCH   9  15
ENDBRANCH   1  11
TORSDOF 3
