REMARK  Name = 16259
REMARK  4 active torsions:
REMARK  status: ('A' for Active; 'I' for Inactive)
REMARK    1  A    between atoms: C_1  and  C_2
REMARK    2  A    between atoms: C_1  and  C_8
REMARK    3  A    between atoms: C_8  and  C_9
REMARK    4  A    between atoms: C_9  and  N_10
REMARK                            x       y       z     vdW  Elec       q    Type
REMARK                         _______ _______ _______ _____ _____    ______ ____
ROOT
ATOM      1  C   UNL     1       0.953   0.010  -0.927  0.00  0.00    +0.024 C 
ENDROOT
BRANCH   1   2
ATOM      2  C   UNL     1      -0.470   0.004  -0.428  0.00  0.00    -0.022 C 
ATOM      3  C   UNL     1      -1.108  -1.206  -0.204  0.00  0.00    -0.004 C 
ATOM      4  C   UNL     1      -1.118   1.210  -0.202  0.00  0.00    -0.004 C 
ATOM      5  C   UNL     1      -2.424  -1.212   0.258  0.00  0.00    -0.000 C 
ATOM      6  C   UNL     1      -2.434   1.204   0.260  0.00  0.00    -0.000 C 
ATOM      7  C   UNL     1      -3.087  -0.007   0.490  0.00  0.00    -0.000 C 
ENDBRANCH   1   2
BRANCH   1   8
ATOM      8  C   UNL     1       1.958   0.013   0.228  0.00  0.00    -0.019 C 
BRANCH   8   9
ATOM      9  C   UNL     1       3.394  -0.019  -0.293  0.00  0.00    -0.086 C 
BRANCH   9  10
ATOM     10  N   UNL     1       4.336   0.004   0.819  0.00  0.00    +0.380 N 
ATOM     11  H   UNL     1       5.290  -0.018   0.457  0.00  0.00    -0.089 HD
ATOM     12  H   UNL     1       4.180  -0.809   1.414  0.00  0.00    -0.089 HD
ATOM     13  H   UNL     1       4.199   0.856   1.363  0.00  0.00    -0.089 HD
ENDBRANCH   9  10
ENDBRANCH   8   9
ENDBRANCH   1   8
TORSDOF 4
