REMARK  Name = 12897341
REMARK  6 active torsions:
REMARK  status: ('A' for Active; 'I' for Inactive)
REMARK    1  A    between atoms: N_2  and  CA_9
REMARK    2  A    between atoms: C_3  and  CA_19
REMARK    3  A    between atoms: CA_13  and  C_16
REMARK    4  A    between atoms: C_16  and  O_17
REMARK    5  A    between atoms: CA_19  and  C_20
REMARK    6  A    between atoms: CA_19  and  N_26
REMARK                            x       y       z     vdW  Elec       q    Type
REMARK                         _______ _______ _______ _____ _____    ______ ____
ROOT
ATOM      1  O   UNL     1      -1.762  -1.471  -0.426  0.00  0.00    -0.277 OA
ATOM      2  N   UNL     1      -0.686   0.478   0.224  0.00  0.00    -0.298 N 
ATOM      3  C   UNL     1      -1.736  -0.444   0.250  0.00  0.00    +0.206 C 
ATOM      4  H   UNL     1      -0.745   1.275   0.799  0.00  0.00    +0.150 HD
ENDROOT
BRANCH   2   9
ATOM      5 CL   UNL     1       5.939  -1.671   0.043  0.00  0.00    -0.085 Cl
ATOM      6  O   UNL     1       1.771   2.521  -0.317  0.00  0.00    -0.273 OA
ATOM      7  N   UNL     1       2.494   0.288  -0.138  0.00  0.00    -0.251 N 
ATOM      8  C   UNL     1       1.505  -0.784  -0.170  0.00  0.00    +0.107 C 
ATOM      9  CA  UNL     1       0.496   0.310  -0.618  0.00  0.00    +0.168 C 
ATOM     10  C   UNL     1       2.012  -1.883  -1.082  0.00  0.00    +0.028 C 
ATOM     11  C   UNL     1       1.644   1.319  -0.315  0.00  0.00    +0.249 C 
ATOM     12  C   UNL     1       3.364  -2.368  -0.521  0.00  0.00    +0.041 C 
ATOM     13  CA  UNL     1       3.821   0.044   0.006  0.00  0.00    +0.137 C 
ATOM     14  C   UNL     1       4.277  -1.218  -0.133  0.00  0.00    +0.055 C 
BRANCH  13  16
ATOM     15  OXT UNL     1       5.223   1.863  -0.605  0.00  0.00    -0.244 OA
ATOM     16  C   UNL     1       4.709   1.184   0.263  0.00  0.00    +0.353 C 
BRANCH  16  17
ATOM     17  O   UNL     1       4.854   1.350   1.593  0.00  0.00    -0.476 OA
ATOM     18  H   UNL     1       4.416   0.774   2.188  0.00  0.00    +0.295 HD
ENDBRANCH  16  17
ENDBRANCH  13  16
ENDBRANCH   2   9
BRANCH   3  19
ATOM     19  CA  UNL     1      -2.864  -0.036   1.191  0.00  0.00    +0.036 C 
BRANCH  19  20
ATOM     20  C   UNL     1      -4.168   0.119   0.436  0.00  0.00    -0.034 C 
ATOM     21  C   UNL     1      -4.494   1.352  -0.100  0.00  0.00    -0.006 C 
ATOM     22  C   UNL     1      -5.003  -0.975   0.300  0.00  0.00    -0.006 C 
ATOM     23  C   UNL     1      -5.695   1.495  -0.795  0.00  0.00    -0.000 C 
ATOM     24  C   UNL     1      -6.203  -0.833  -0.395  0.00  0.00    -0.000 C 
ATOM     25  C   UNL     1      -6.550   0.403  -0.943  0.00  0.00    -0.000 C 
ENDBRANCH  19  20
BRANCH  19  26
ATOM     26  N   UNL     1      -2.949  -1.044   2.251  0.00  0.00    +0.390 N 
ATOM     27  H1  UNL     1      -2.051  -1.112   2.729  0.00  0.00    -0.088 HD
ATOM     28  H2  UNL     1      -3.186  -1.948   1.842  0.00  0.00    -0.088 HD
ATOM     29  H3  UNL     1      -3.671  -0.775   2.920  0.00  0.00    -0.088 HD
ENDBRANCH  19  26
ENDBRANCH   3  19
TORSDOF 6
