REMARK  Name = 49866858
REMARK  13 active torsions:
REMARK  status: ('A' for Active; 'I' for Inactive)
REMARK    1  A    between atoms: N_1  and  C_18
REMARK    2  A    between atoms: C_3  and  SG_7
REMARK    3  A    between atoms: SG_7  and  CB_8
REMARK    4  A    between atoms: CB_8  and  CA_9
REMARK    5  A    between atoms: CA_9  and  N_10
REMARK    6  A    between atoms: CA_9  and  C_15
REMARK    7  A    between atoms: C_15  and  O_16
REMARK    8  A    between atoms: C_18  and  C_19
REMARK    9  A    between atoms: C_19  and  C_20
REMARK   10  A    between atoms: C_20  and  CA_21
REMARK   11  A    between atoms: CA_21  and  N_22
REMARK   12  A    between atoms: CA_21  and  C_27
REMARK   13  A    between atoms: C_27  and  O_28
REMARK                            x       y       z     vdW  Elec       q    Type
REMARK                         _______ _______ _______ _____ _____    ______ ____
ROOT
ATOM      1  N   CYS A   1       0.292   2.163   0.544  0.00  0.00    -0.315 N 
ATOM      2  N   CYS A   1       1.489   2.168  -1.483  0.00  0.00    -0.382 N 
ATOM      3  C   CYS A   1       1.414   2.028  -0.164  0.00  0.00    +0.126 C 
ATOM      4  H   CYS A   1       0.340   2.034   1.519  0.00  0.00    +0.149 HD
ATOM      5  H   CYS A   1       2.353   2.054  -1.942  0.00  0.00    +0.158 HD
ATOM      6  H   CYS A   1       0.681   2.386  -2.002  0.00  0.00    +0.158 HD
ENDROOT
BRANCH   3   7
ATOM      7  SG  CYS A   1       2.865   1.623   0.718  0.00  0.00    -0.084 S 
BRANCH   7   8
ATOM      8  CB  CYS A   1       2.368   0.055   1.468  0.00  0.00    +0.054 C 
BRANCH   8   9
ATOM      9  CA  CYS A   1       2.070  -1.014   0.415  0.00  0.00    +0.047 C 
BRANCH   9  10
ATOM     10  N   CYS A   1       1.697  -2.270   1.067  0.00  0.00    +0.389 N 
ATOM     11  H1  CYS A   1       0.891  -2.112   1.673  0.00  0.00    -0.088 HD
ATOM     12  H2  CYS A   1       2.480  -2.609   1.626  0.00  0.00    -0.088 HD
ATOM     13  H3  CYS A   1       1.459  -2.964   0.359  0.00  0.00    -0.088 HD
ENDBRANCH   9  10
BRANCH   9  15
ATOM     14  OXT CYS A   1       4.356  -1.661  -0.038  0.00  0.00    -0.253 OA
ATOM     15  C   CYS A   1       3.268  -1.298  -0.471  0.00  0.00    +0.294 C 
BRANCH  15  16
ATOM     16  O   CYS A   1       3.038  -1.079  -1.791  0.00  0.00    -0.482 OA
ATOM     17  H   CYS A   1       2.191  -0.802  -2.079  0.00  0.00    +0.295 HD
ENDBRANCH  15  16
ENDBRANCH   9  15
ENDBRANCH   8   9
ENDBRANCH   7   8
ENDBRANCH   3   7
BRANCH   1  18
ATOM     18  C   CYS A   1      -1.006   2.493  -0.046  0.00  0.00    +0.088 C 
BRANCH  18  19
ATOM     19  C   CYS A   1      -1.732   1.210  -0.430  0.00  0.00    +0.020 C 
BRANCH  19  20
ATOM     20  C   CYS A   1      -1.948   0.284   0.778  0.00  0.00    -0.009 C 
BRANCH  20  21
ATOM     21  CA  CYS A   1      -2.725  -1.006   0.474  0.00  0.00    +0.036 C 
BRANCH  21  22
ATOM     22  N   CYS A   1      -1.993  -1.882  -0.441  0.00  0.00    +0.389 N 
ATOM     23  H1  CYS A   1      -1.069  -2.079  -0.057  0.00  0.00    -0.088 HD
ATOM     24  H2  CYS A   1      -1.895  -1.421  -1.346  0.00  0.00    -0.088 HD
ATOM     25  H3  CYS A   1      -2.506  -2.756  -0.559  0.00  0.00    -0.088 HD
ENDBRANCH  21  22
BRANCH  21  27
ATOM     26  OXT CYS A   1      -4.486  -1.098  -1.213  0.00  0.00    -0.253 OA
ATOM     27  C   CYS A   1      -4.096  -0.725  -0.115  0.00  0.00    +0.293 C 
BRANCH  27  28
ATOM     28  O   CYS A   1      -4.871   0.008   0.728  0.00  0.00    -0.482 OA
ATOM     29  H   CYS A   1      -4.535   0.274   1.562  0.00  0.00    +0.295 HD
ENDBRANCH  27  28
ENDBRANCH  21  27
ENDBRANCH  20  21
ENDBRANCH  19  20
ENDBRANCH  18  19
ENDBRANCH   1  18
TORSDOF 13
