REMARK  Name = 487
REMARK  4 active torsions:
REMARK  status: ('A' for Active; 'I' for Inactive)
REMARK    1  A    between atoms: C_1  and  C_4
REMARK    2  A    between atoms: C_1  and  C_8
REMARK    3  A    between atoms: C_4  and  O_5
REMARK    4  A    between atoms: C_8  and  O_9
REMARK                            x       y       z     vdW  Elec       q    Type
REMARK                         _______ _______ _______ _____ _____    ______ ____
ROOT
ATOM      1  C   UNL     1       0.015  -0.593  -0.207  0.00  0.00    +0.197 C 
ATOM      2  C   UNL     1       0.073  -1.724   0.815  0.00  0.00    +0.024 C 
ENDROOT
BRANCH   1   4
ATOM      3  O   UNL     1       1.262   1.478   0.091  0.00  0.00    -0.250 OA
ATOM      4  C   UNL     1       1.258   0.276  -0.140  0.00  0.00    +0.324 C 
BRANCH   4   5
ATOM      5  O   UNL     1       2.394  -0.426  -0.389  0.00  0.00    -0.480 OA
ATOM      6  H   UNL     1       2.348  -1.346  -0.561  0.00  0.00    +0.295 HD
ENDBRANCH   4   5
ENDBRANCH   1   4
BRANCH   1   8
ATOM      7  O   UNL     1      -1.405   1.164   0.656  0.00  0.00    -0.250 OA
ATOM      8  C   UNL     1      -1.286   0.169  -0.050  0.00  0.00    +0.324 C 
BRANCH   8   9
ATOM      9  O   UNL     1      -2.310  -0.344  -0.776  0.00  0.00    -0.480 OA
ATOM     10  H   UNL     1      -2.175  -1.107  -1.303  0.00  0.00    +0.295 HD
ENDBRANCH   8   9
ENDBRANCH   1   8
TORSDOF 4
