REMARK  Name = 75019
REMARK  6 active torsions:
REMARK  status: ('A' for Active; 'I' for Inactive)
REMARK    1  A    between atoms: C_1  and  C_11
REMARK    2  A    between atoms: C_4  and  O_7
REMARK    3  A    between atoms: C_5  and  O_9
REMARK    4  A    between atoms: C_11  and  C_12
REMARK    5  A    between atoms: C_12  and  C_14
REMARK    6  A    between atoms: C_14  and  O_15
REMARK                            x       y       z     vdW  Elec       q    Type
REMARK                         _______ _______ _______ _____ _____    ______ ____
ROOT
ATOM      1  C   UNL     1       0.445  -0.160  -0.432  0.00  0.00    -0.018 C 
ATOM      2  C   UNL     1      -0.321   0.941  -0.048  0.00  0.00    +0.036 C 
ATOM      3  C   UNL     1      -0.150  -1.417  -0.547  0.00  0.00    -0.001 C 
ATOM      4  C   UNL     1      -1.680   0.786   0.221  0.00  0.00    +0.172 C 
ATOM      5  C   UNL     1      -2.275  -0.470   0.106  0.00  0.00    +0.172 C 
ATOM      6  C   UNL     1      -1.510  -1.571  -0.278  0.00  0.00    +0.040 C 
ENDROOT
BRANCH   4   7
ATOM      7  O   UNL     1      -2.417   1.869   0.595  0.00  0.00    -0.468 OA
ATOM      8  C   UNL     1      -3.036   2.623  -0.446  0.00  0.00    +0.253 C 
ENDBRANCH   4   7
BRANCH   5   9
ATOM      9  O   UNL     1      -3.602  -0.634   0.365  0.00  0.00    -0.468 OA
ATOM     10  C   UNL     1      -4.132  -1.951   0.225  0.00  0.00    +0.253 C 
ENDBRANCH   5   9
BRANCH   1  11
ATOM     11  C   UNL     1       1.898   0.006  -0.721  0.00  0.00    +0.038 C 
BRANCH  11  12
ATOM     12  C   UNL     1       2.797  -0.189   0.507  0.00  0.00    +0.114 C 
BRANCH  12  14
ATOM     13  O   UNL     1       4.658   0.327  -0.945  0.00  0.00    -0.250 OA
ATOM     14  C   UNL     1       4.253   0.024   0.171  0.00  0.00    +0.314 C 
BRANCH  14  15
ATOM     15  O   UNL     1       5.074  -0.183   1.229  0.00  0.00    -0.480 OA
ATOM     16  H   UNL     1       4.715  -0.414   2.063  0.00  0.00    +0.295 HD
ENDBRANCH  14  15
ENDBRANCH  12  14
ENDBRANCH  11  12
ENDBRANCH   1  11
TORSDOF 6
