REMARK  Name = 54676868
REMARK  9 active torsions:
REMARK  status: ('A' for Active; 'I' for Inactive)
REMARK    1  A    between atoms: C_3  and  C_10
REMARK    2  A    between atoms: C_4  and  O_20
REMARK    3  A    between atoms: C_6  and  O_22
REMARK    4  A    between atoms: C_7  and  O_24
REMARK    5  A    between atoms: C_10  and  C_11
REMARK    6  A    between atoms: C_11  and  C_13
REMARK    7  A    between atoms: C_13  and  C_14
REMARK    8  A    between atoms: C_14  and  C_17
REMARK    9  A    between atoms: C_17  and  C_19
REMARK                            x       y       z     vdW  Elec       q    Type
REMARK                         _______ _______ _______ _____ _____    ______ ____
ROOT
ATOM      1  O   UNL     1      -0.739   2.835  -1.262  0.00  0.00    -0.267 OA
ATOM      2  N   UNL     1      -2.402   1.250  -1.143  0.00  0.00    -0.290 N 
ATOM      3  C   UNL     1      -0.470   1.104   0.349  0.00  0.00    +0.127 A 
ATOM      4  C   UNL     1      -1.011  -0.005   0.887  0.00  0.00    +0.180 A 
ATOM      5  C   UNL     1      -1.201   1.817  -0.751  0.00  0.00    +0.266 A 
ATOM      6  C   UNL     1      -2.303  -0.496   0.437  0.00  0.00    +0.224 A 
ATOM      7  C   UNL     1      -2.941   0.130  -0.561  0.00  0.00    +0.243 A 
ATOM      8  H   UNL     1      -2.897   1.674  -1.880  0.00  0.00    +0.172 HD
ENDROOT
BRANCH   3  10
ATOM      9  O   UNL     1       0.971   1.869   2.029  0.00  0.00    -0.291 OA
ATOM     10  C   UNL     1       0.837   1.587   0.841  0.00  0.00    +0.180 C 
BRANCH  10  11
ATOM     11  C   UNL     1       1.973   1.673  -0.174  0.00  0.00    +0.062 C 
ATOM     12  C   UNL     1       2.381   3.144  -0.280  0.00  0.00    +0.008 C 
BRANCH  11  13
ATOM     13  C   UNL     1       3.188   0.810   0.225  0.00  0.00    +0.009 C 
BRANCH  13  14
ATOM     14  C   UNL     1       2.884  -0.706   0.378  0.00  0.00    +0.017 C 
ATOM     15  C   UNL     1       3.937  -1.435   1.221  0.00  0.00    +0.001 C 
BRANCH  14  17
ATOM     16 CL   UNL     1       4.157  -1.214  -2.030  0.00  0.00    -0.114 Cl
ATOM     17  C   UNL     1       2.670  -1.350  -1.025  0.00  0.00    +0.096 C 
BRANCH  17  19
ATOM     18 CL   UNL     1       0.718  -3.078  -0.137  0.00  0.00    -0.112 Cl
ATOM     19  C   UNL     1       2.240  -2.821  -1.025  0.00  0.00    +0.111 C 
ENDBRANCH  17  19
ENDBRANCH  14  17
ENDBRANCH  13  14
ENDBRANCH  11  13
ENDBRANCH  10  11
ENDBRANCH   3  10
BRANCH   4  20
ATOM     20  O   UNL     1      -0.393  -0.719   1.896  0.00  0.00    -0.503 OA
ATOM     21  H   UNL     1       0.441  -0.443   2.221  0.00  0.00    +0.292 HD
ENDBRANCH   4  20
BRANCH   6  22
ATOM     22  O   UNL     1      -2.788  -1.617   1.071  0.00  0.00    -0.464 OA
ATOM     23  C   UNL     1      -3.568  -1.263   2.198  0.00  0.00    +0.253 C 
ENDBRANCH   6  22
BRANCH   7  24
ATOM     24  O   UNL     1      -4.154  -0.294  -1.043  0.00  0.00    -0.455 OA
ATOM     25  C   UNL     1      -3.985  -1.221  -2.100  0.00  0.00    +0.254 C 
ENDBRANCH   7  24
TORSDOF 9
