REMARK  Name = 446018
REMARK  10 active torsions:
REMARK  status: ('A' for Active; 'I' for Inactive)
REMARK    1  A    between atoms: S_1  and  C_2
REMARK    2  A    between atoms: S_1  and  C_12
REMARK    3  A    between atoms: C_2  and  C_4
REMARK    4  A    between atoms: C_2  and  C_7
REMARK    5  A    between atoms: C_4  and  O_5
REMARK    6  A    between atoms: C_7  and  C_9
REMARK    7  A    between atoms: C_9  and  O_10
REMARK    8  A    between atoms: C_12  and  C_13
REMARK    9  A    between atoms: C_13  and  N_14
REMARK   10  A    between atoms: N_14  and  C_17
REMARK                            x       y       z     vdW  Elec       q    Type
REMARK                         _______ _______ _______ _____ _____    ______ ____
ROOT
ATOM      1  S   UNL     1       0.138  -1.286  -0.419  0.00  0.00    -0.127 S 
ENDROOT
BRANCH   1   2
ATOM      2  C   UNL     1       1.611  -0.395   0.200  0.00  0.00    +0.157 C 
BRANCH   2   4
ATOM      3  O   UNL     1       1.742   1.244  -1.611  0.00  0.00    -0.249 OA
ATOM      4  C   UNL     1       1.620   0.993  -0.419  0.00  0.00    +0.324 C 
BRANCH   4   5
ATOM      5  O   UNL     1       1.515   1.967   0.524  0.00  0.00    -0.480 OA
ATOM      6  H   UNL     1       1.422   1.737   1.428  0.00  0.00    +0.295 HD
ENDBRANCH   4   5
ENDBRANCH   2   4
BRANCH   2   7
ATOM      7  C   UNL     1       2.878  -1.159  -0.181  0.00  0.00    +0.131 C 
BRANCH   7   9
ATOM      8  O   UNL     1       4.314  -0.289   1.557  0.00  0.00    -0.250 OA
ATOM      9  C   UNL     1       4.105  -0.468   0.364  0.00  0.00    +0.315 C 
BRANCH   9  10
ATOM     10  O   UNL     1       4.944  -0.037  -0.611  0.00  0.00    -0.480 OA
ATOM     11  H   UNL     1       4.738  -0.199  -1.511  0.00  0.00    +0.295 HD
ENDBRANCH   9  10
ENDBRANCH   7   9
ENDBRANCH   2   7
ENDBRANCH   1   2
BRANCH   1  12
ATOM     12  C   UNL     1      -1.119  -0.153   0.209  0.00  0.00    +0.084 C 
BRANCH  12  13
ATOM     13  C   UNL     1      -2.513  -0.639  -0.158  0.00  0.00    +0.140 C 
BRANCH  13  14
ATOM     14  N   UNL     1      -3.497   0.301   0.385  0.00  0.00    -0.239 NA
BRANCH  14  17
ATOM     15  N   UNL     1      -5.728   0.881   0.609  0.00  0.00    -0.370 N 
ATOM     16  N   UNL     1      -5.266  -1.005  -0.583  0.00  0.00    -0.370 N 
ATOM     17  C   UNL     1      -4.743   0.047   0.135  0.00  0.00    +0.189 C 
ATOM     18  H   UNL     1      -5.488   1.675   1.140  0.00  0.00    +0.159 HD
ATOM     19  H   UNL     1      -6.674   0.685   0.418  0.00  0.00    +0.159 HD
ATOM     20  H   UNL     1      -4.665  -1.678  -0.979  0.00  0.00    +0.159 HD
ATOM     21  H   UNL     1      -6.240  -1.085  -0.702  0.00  0.00    +0.159 HD
ENDBRANCH  14  17
ENDBRANCH  13  14
ENDBRANCH  12  13
ENDBRANCH   1  12
TORSDOF 10
