REMARK  Name = 9223
REMARK  0 active torsions:
REMARK  status: ('A' for Active; 'I' for Inactive)
REMARK                            x       y       z     vdW  Elec       q    Type
REMARK                         _______ _______ _______ _____ _____    ______ ____
ROOT
ATOM      1  O   UNL     1      -1.540  -1.128   0.000  0.00  0.00    -0.450 OA
ATOM      2  C   UNL     1      -0.276   0.744   0.000  0.00  0.00    +0.038 C 
ATOM      3  C   UNL     1      -0.265  -0.647   0.000  0.00  0.00    +0.145 C 
ATOM      4  C   UNL     1       0.954   1.426   0.000  0.00  0.00    +0.003 C 
ATOM      5  C   UNL     1      -1.645   1.119   0.000  0.00  0.00    +0.044 C 
ATOM      6  C   UNL     1       0.895  -1.419   0.000  0.00  0.00    +0.037 C 
ATOM      7  C   UNL     1       2.138   0.676   0.000  0.00  0.00    +0.000 C 
ATOM      8  C   UNL     1       2.107  -0.721   0.000  0.00  0.00    +0.003 C 
ATOM      9  C   UNL     1      -2.368  -0.051   0.000  0.00  0.00    +0.180 C 
ENDROOT
TORSDOF 0
