REMARK  Name = 2429
REMARK  6 active torsions:
REMARK  status: ('A' for Active; 'I' for Inactive)
REMARK    1  A    between atoms: N_1  and  O_15
REMARK    2  A    between atoms: O_15  and  C_16
REMARK    3  A    between atoms: C_16  and  C_17
REMARK    4  A    between atoms: C_17  and  C_18
REMARK    5  A    between atoms: C_18  and  O_19
REMARK    6  A    between atoms: O_19  and  C_21
REMARK                            x       y       z     vdW  Elec       q    Type
REMARK                         _______ _______ _______ _____ _____    ______ ____
ROOT
ATOM      1  N   UNL     1      -2.495   0.336   0.245  0.00  0.00    -0.181 N 
ATOM      2  N   UNL     1      -4.712  -0.085  -0.707  0.00  0.00    -0.178 NA
ATOM      3  N   UNL     1      -3.511  -1.757   0.487  0.00  0.00    -0.304 NA
ATOM      4  N   UNL     1      -1.396  -1.356   1.411  0.00  0.00    -0.317 N 
ATOM      5  N   UNL     1      -5.621  -2.192  -0.456  0.00  0.00    -0.293 N 
ATOM      6  C   UNL     1      -3.624   0.881  -0.472  0.00  0.00    +0.188 C 
ATOM      7  C   UNL     1      -3.165   1.372  -1.850  0.00  0.00    +0.051 C 
ATOM      8  C   UNL     1      -4.232   2.041   0.328  0.00  0.00    +0.051 C 
ATOM      9  C   UNL     1      -2.502  -0.953   0.708  0.00  0.00    +0.280 C 
ATOM     10  C   UNL     1      -4.602  -1.295  -0.236  0.00  0.00    +0.142 C 
ATOM     11  H   UNL     1      -0.652  -0.728   1.562  0.00  0.00    +0.146 HD
ATOM     12  H   UNL     1      -1.346  -2.273   1.767  0.00  0.00    +0.146 HD
ATOM     13  H   UNL     1      -6.419  -1.916  -0.963  0.00  0.00    +0.155 HD
ATOM     14  H   UNL     1      -5.553  -3.109  -0.106  0.00  0.00    +0.155 HD
ENDROOT
BRANCH   1  15
ATOM     15  O   UNL     1      -1.422   1.158   0.526  0.00  0.00    -0.252 OA
BRANCH  15  16
ATOM     16  C   UNL     1      -0.494   0.980  -0.538  0.00  0.00    +0.178 C 
BRANCH  16  17
ATOM     17  C   UNL     1       0.728   1.855  -0.309  0.00  0.00    +0.082 C 
BRANCH  17  18
ATOM     18  C   UNL     1       1.424   1.528   1.002  0.00  0.00    +0.208 C 
BRANCH  18  19
ATOM     19  O   UNL     1       1.853   0.174   0.969  0.00  0.00    -0.475 OA
BRANCH  19  21
ATOM     20 BR   UNL     1       7.416  -0.871  -1.143  0.00  0.00    -0.049 Br
ATOM     21  C   UNL     1       3.116  -0.063   0.491  0.00  0.00    +0.139 C 
ATOM     22  C   UNL     1       4.105   0.900   0.652  0.00  0.00    +0.037 C 
ATOM     23  C   UNL     1       3.393  -1.264  -0.151  0.00  0.00    +0.037 C 
ATOM     24  C   UNL     1       5.389   0.659   0.164  0.00  0.00    +0.010 C 
ATOM     25  C   UNL     1       4.678  -1.506  -0.639  0.00  0.00    +0.010 C 
ATOM     26  C   UNL     1       5.676  -0.544  -0.481  0.00  0.00    +0.035 C 
ENDBRANCH  19  21
ENDBRANCH  18  19
ENDBRANCH  17  18
ENDBRANCH  16  17
ENDBRANCH  15  16
ENDBRANCH   1  15
TORSDOF 6
