5326924
  -OEChem-10051720423D

 50 53  0     1  0  0  0  0  0999 V2000
   -0.6353   -2.6293   -0.9213 O   0  0  0  0  0  0  0  0  0  0  0  0
    0.9319   -0.0193   -1.2166 O   0  0  0  0  0  0  0  0  0  0  0  0
   -1.7520    0.7201   -0.0097 O   0  0  0  0  0  0  0  0  0  0  0  0
    2.8760   -1.9229   -0.7146 O   0  0  0  0  0  0  0  0  0  0  0  0
   -7.7477   -0.1198    0.8065 N   0  0  0  0  0  0  0  0  0  0  0  0
    6.4492    2.8434    0.6403 N   0  0  0  0  0  0  0  0  0  0  0  0
   -6.0416   -1.6933    1.0785 N   0  0  0  0  0  0  0  0  0  0  0  0
    5.3097    2.4440   -1.3605 N   0  0  0  0  0  0  0  0  0  0  0  0
   -0.6637   -1.4127   -0.1502 C   0  0  1  0  0  0  0  0  0  0  0  0
    0.7611   -0.8976   -0.0908 C   0  0  1  0  0  0  0  0  0  0  0  0
   -1.3965   -0.3298   -0.9013 C   0  0  2  0  0  0  0  0  0  0  0  0
    1.5701   -2.1630   -0.2412 C   0  0  1  0  0  0  0  0  0  0  0  0
    0.7299   -2.9636   -1.2115 C   0  0  0  0  0  0  0  0  0  0  0  0
   -0.3385    0.1825   -1.8580 C   0  0  0  0  0  0  0  0  0  0  0  0
   -3.0727    1.0835    0.0200 C   0  0  0  0  0  0  0  0  0  0  0  0
    3.7018   -1.1576    0.0762 C   0  0  0  0  0  0  0  0  0  0  0  0
   -4.0371    0.1460    0.3723 C   0  0  0  0  0  0  0  0  0  0  0  0
    4.2204    0.0280   -0.4247 C   0  0  0  0  0  0  0  0  0  0  0  0
   -3.4355    2.3861   -0.3036 C   0  0  0  0  0  0  0  0  0  0  0  0
    4.0036   -1.5846    1.3615 C   0  0  0  0  0  0  0  0  0  0  0  0
   -5.3817    0.5160    0.4015 C   0  0  0  0  0  0  0  0  0  0  0  0
    5.0585    0.8031    0.3771 C   0  0  0  0  0  0  0  0  0  0  0  0
   -4.7801    2.7561   -0.2742 C   0  0  0  0  0  0  0  0  0  0  0  0
    4.8416   -0.8094    2.1630 C   0  0  0  0  0  0  0  0  0  0  0  0
   -5.7531    1.8211    0.0782 C   0  0  0  0  0  0  0  0  0  0  0  0
    5.3690    0.3842    1.6709 C   0  0  0  0  0  0  0  0  0  0  0  0
   -6.3965   -0.4590    0.7686 C   0  0  0  0  0  0  0  0  0  0  0  0
    5.6089    2.0477   -0.1362 C   0  0  0  0  0  0  0  0  0  0  0  0
   -1.0754   -1.6375    0.8385 H   0  0  0  0  0  0  0  0  0  0  0  0
    0.9838   -0.3266    0.8155 H   0  0  0  0  0  0  0  0  0  0  0  0
   -2.2574   -0.7044   -1.4687 H   0  0  0  0  0  0  0  0  0  0  0  0
    1.5881   -2.7082    0.7117 H   0  0  0  0  0  0  0  0  0  0  0  0
    0.9432   -2.7076   -2.2554 H   0  0  0  0  0  0  0  0  0  0  0  0
    0.8761   -4.0419   -1.0969 H   0  0  0  0  0  0  0  0  0  0  0  0
   -0.3270   -0.3958   -2.7878 H   0  0  0  0  0  0  0  0  0  0  0  0
   -0.4458    1.2440   -2.0991 H   0  0  0  0  0  0  0  0  0  0  0  0
   -3.7254   -0.8628    0.6303 H   0  0  0  0  0  0  0  0  0  0  0  0
    3.9614    0.3274   -1.4366 H   0  0  0  0  0  0  0  0  0  0  0  0
   -2.6807    3.1171   -0.5794 H   0  0  0  0  0  0  0  0  0  0  0  0
    3.6147   -2.5193    1.7539 H   0  0  0  0  0  0  0  0  0  0  0  0
   -5.0684    3.7726   -0.5263 H   0  0  0  0  0  0  0  0  0  0  0  0
    5.0860   -1.1380    3.1691 H   0  0  0  0  0  0  0  0  0  0  0  0
   -6.7827    2.1614    0.0849 H   0  0  0  0  0  0  0  0  0  0  0  0
    6.0152    0.9473    2.3351 H   0  0  0  0  0  0  0  0  0  0  0  0
   -8.4408   -0.8138    1.0666 H   0  0  0  0  0  0  0  0  0  0  0  0
   -8.1052    0.8009    0.5846 H   0  0  0  0  0  0  0  0  0  0  0  0
    6.8221    3.7094    0.2650 H   0  0  0  0  0  0  0  0  0  0  0  0
    6.7280    2.6149    1.5862 H   0  0  0  0  0  0  0  0  0  0  0  0
   -6.8891   -2.2242    1.3080 H   0  0  0  0  0  0  0  0  0  0  0  0
    5.7872    3.3350   -1.5364 H   0  0  0  0  0  0  0  0  0  0  0  0
  1  9  1  0  0  0  0
  1 13  1  0  0  0  0
  2 10  1  0  0  0  0
  2 14  1  0  0  0  0
  3 11  1  0  0  0  0
  3 15  1  0  0  0  0
  4 12  1  0  0  0  0
  4 16  1  0  0  0  0
  5 27  1  0  0  0  0
  5 45  1  0  0  0  0
  5 46  1  0  0  0  0
  6 28  1  0  0  0  0
  6 47  1  0  0  0  0
  6 48  1  0  0  0  0
  7 27  2  0  0  0  0
  7 49  1  0  0  0  0
  8 28  2  0  0  0  0
  8 50  1  0  0  0  0
  9 10  1  0  0  0  0
  9 11  1  0  0  0  0
  9 29  1  0  0  0  0
 10 12  1  0  0  0  0
 10 30  1  0  0  0  0
 11 14  1  0  0  0  0
 11 31  1  0  0  0  0
 12 13  1  0  0  0  0
 12 32  1  0  0  0  0
 13 33  1  0  0  0  0
 13 34  1  0  0  0  0
 14 35  1  0  0  0  0
 14 36  1  0  0  0  0
 15 17  1  0  0  0  0
 15 19  2  0  0  0  0
 16 18  1  0  0  0  0
 16 20  2  0  0  0  0
 17 21  2  0  0  0  0
 17 37  1  0  0  0  0
 18 22  2  0  0  0  0
 18 38  1  0  0  0  0
 19 23  1  0  0  0  0
 19 39  1  0  0  0  0
 20 24  1  0  0  0  0
 20 40  1  0  0  0  0
 21 25  1  0  0  0  0
 21 27  1  0  0  0  0
 22 26  1  0  0  0  0
 22 28  1  0  0  0  0
 23 25  2  0  0  0  0
 23 41  1  0  0  0  0
 24 26  2  0  0  0  0
 24 42  1  0  0  0  0
 25 43  1  0  0  0  0
 26 44  1  0  0  0  0
M  END
> <DATABASE_ID>
DB04790

> <DATABASE_NAME>
drugbank

> <ORIGINAL_SOURCE>
PUBCHEM

> <ORIGINAL_SOURCE_URL>
https://pubchem.ncbi.nlm.nih.gov/rest/pug/compound/inchikey/IBIUTOFGXGGVKQ-XMTFNYHQSA-N/SDF?record_type=3d

> <SMILES>
[H][C@]1(CO[C@]2([H])[C@]([H])(CO[C@]12[H])OC1=CC=CC(=C1)C(N)=N)OC1=CC(=CC=C1)C(N)=N

> <INCHI_IDENTIFIER>
InChI=1S/C20H22N4O4/c21-19(22)11-3-1-5-13(7-11)27-15-9-25-18-16(10-26-17(15)18)28-14-6-2-4-12(8-14)20(23)24/h1-8,15-18H,9-10H2,(H3,21,22)(H3,23,24)/t15-,16+,17-,18-/m1/s1

> <INCHI_KEY>
IBIUTOFGXGGVKQ-XMTFNYHQSA-N

> <FORMULA>
C20H22N4O4

> <MOLECULAR_WEIGHT>
382.4131

> <EXACT_MASS>
382.164105212

> <JCHEM_ACCEPTOR_COUNT>
8

> <JCHEM_AVERAGE_POLARIZABILITY>
39.736335593371

> <JCHEM_BIOAVAILABILITY>
1

> <JCHEM_DONOR_COUNT>
4

> <JCHEM_FORMAL_CHARGE>
0

> <JCHEM_GHOSE_FILTER>
1

> <JCHEM_IUPAC>
3-{[(3S,3aR,6R,6aR)-6-(3-carbamimidoylphenoxy)-hexahydrofuro[3,2-b]furan-3-yl]oxy}benzene-1-carboximidamide

> <ALOGPS_LOGP>
0.31

> <JCHEM_LOGP>
1.1026284826666666

> <ALOGPS_LOGS>
-3.85

> <JCHEM_MDDR_LIKE_RULE>
1

> <JCHEM_NUMBER_OF_RINGS>
4

> <JCHEM_PHYSIOLOGICAL_CHARGE>
2

> <JCHEM_PKA_STRONGEST_BASIC>
11.451986024344029

> <JCHEM_POLAR_SURFACE_AREA>
136.66000000000003

> <JCHEM_REFRACTIVITY>
123.24820000000001

> <JCHEM_ROTATABLE_BOND_COUNT>
6

> <JCHEM_RULE_OF_FIVE>
1

> <ALOGPS_SOLUBILITY>
5.39e-02 g/l

> <JCHEM_TRADITIONAL_IUPAC>
3-{[(3S,3aR,6R,6aR)-6-(3-carbamimidoylphenoxy)-hexahydrofuro[3,2-b]furan-3-yl]oxy}benzenecarboximidamide

> <JCHEM_VEBER_RULE>
0

> <DRUGBANK_ID>
DB04790

> <DRUG_GROUPS>
experimental

> <GENERIC_NAME>
2,5-bis-O-{3-[amino(imino)methyl]phenyl}-1,4:3,6-dianhydro-D-glucitol

> <SYNONYMS>
1,4:3,6-Dianhydro-2,5-bis-O-(3-carbamimidoylphenyl)-D-glucitol

$$$$
