REMARK  Name = 446627
REMARK  2 active torsions:
REMARK  status: ('A' for Active; 'I' for Inactive)
REMARK    1  A    between atoms: C_1  and  C_3
REMARK    2  A    between atoms: C_1  and  O_5
REMARK                            x       y       z     vdW  Elec       q    Type
REMARK                         _______ _______ _______ _____ _____    ______ ____
ROOT
ATOM      1  C   UNL     1       0.948  -0.418   0.520  0.00  0.00    +0.170 C 
ENDROOT
BRANCH   1   3
ATOM      2 BR   UNL     1      -1.017   1.596   0.026  0.00  0.00    -0.051 Br
ATOM      3  C   UNL     1      -0.466  -0.192   0.077  0.00  0.00    +0.042 C 
ATOM      4  C   UNL     1      -1.305  -1.191  -0.228  0.00  0.00    +0.005 C 
ENDBRANCH   1   3
BRANCH   1   5
ATOM      5  O   UNL     1       1.841   0.204  -0.395  0.00  0.00    -0.377 OA
ATOM      6  H   UNL     1       2.755   0.056  -0.106  0.00  0.00    +0.211 HD
ENDBRANCH   1   5
TORSDOF 2
