REMARK  Name = 456390
REMARK  5 active torsions:
REMARK  status: ('A' for Active; 'I' for Inactive)
REMARK    1  A    between atoms: C_1  and  N_5
REMARK    2  A    between atoms: C_1  and  C_16
REMARK    3  A    between atoms: C_16  and  C_17
REMARK    4  A    between atoms: C_17  and  C_19
REMARK    5  A    between atoms: C_20  and  O_26
REMARK                            x       y       z     vdW  Elec       q    Type
REMARK                         _______ _______ _______ _____ _____    ______ ____
ROOT
ATOM      1  C   UNL     1      -0.937   2.041  -0.820  0.00  0.00    +0.160 C 
ENDROOT
BRANCH   1   5
ATOM      2 BR   UNL     1       6.641  -0.938   0.746  0.00  0.00    -0.048 Br
ATOM      3 CL   UNL     1       4.565  -3.234  -0.530  0.00  0.00    -0.082 Cl
ATOM      4  O   UNL     1       0.054  -0.576  -1.220  0.00  0.00    -0.274 OA
ATOM      5  N   UNL     1       0.398   1.621  -0.515  0.00  0.00    -0.251 N 
ATOM      6  N   UNL     1       2.538   2.282   0.335  0.00  0.00    -0.252 NA
ATOM      7  C   UNL     1       0.789   0.290  -0.755  0.00  0.00    +0.237 C 
ATOM      8  C   UNL     1       2.191  -0.036  -0.404  0.00  0.00    +0.139 C 
ATOM      9  C   UNL     1       1.310   2.530   0.018  0.00  0.00    +0.222 C 
ATOM     10  C   UNL     1       3.006   0.974   0.126  0.00  0.00    +0.069 C 
ATOM     11  C   UNL     1       2.688  -1.329  -0.600  0.00  0.00    +0.000 C 
ATOM     12  C   UNL     1       4.330   0.666   0.458  0.00  0.00    +0.023 C 
ATOM     13  C   UNL     1       4.009  -1.618  -0.264  0.00  0.00    +0.060 C 
ATOM     14  C   UNL     1       4.830  -0.623   0.264  0.00  0.00    +0.046 C 
ENDBRANCH   1   5
BRANCH   1  16
ATOM     15  O   UNL     1      -1.392   1.978   1.542  0.00  0.00    -0.294 OA
ATOM     16  C   UNL     1      -1.816   1.828   0.396  0.00  0.00    +0.169 C 
BRANCH  16  17
ATOM     17  C   UNL     1      -3.261   1.488   0.098  0.00  0.00    +0.047 C 
BRANCH  17  19
ATOM     18  N   UNL     1      -3.064  -0.646   1.248  0.00  0.00    +0.387 N 
ATOM     19  C   UNL     1      -3.491  -0.022  -0.013  0.00  0.00    -0.027 C 
ATOM     20  C   UNL     1      -4.963  -0.353  -0.326  0.00  0.00    +0.092 C 
ATOM     21  C   UNL     1      -5.196  -1.864  -0.331  0.00  0.00    +0.025 C 
ATOM     22  C   UNL     1      -4.676  -2.500   0.952  0.00  0.00    -0.021 C 
ATOM     23  C   UNL     1      -3.226  -2.100   1.208  0.00  0.00    -0.081 C 
ATOM     24  H   UNL     1      -3.627  -0.271   2.011  0.00  0.00    -0.084 HD
ATOM     25  H   UNL     1      -2.076  -0.438   1.389  0.00  0.00    -0.084 HD
BRANCH  20  26
ATOM     26  O   UNL     1      -5.326   0.141  -1.612  0.00  0.00    -0.387 OA
ATOM     27  H   UNL     1      -5.189   1.101  -1.640  0.00  0.00    +0.210 HD
ENDBRANCH  20  26
ENDBRANCH  17  19
ENDBRANCH  16  17
ENDBRANCH   1  16
TORSDOF 5
