REMARK  Name = 11658860
REMARK  0 active torsions:
REMARK  status: ('A' for Active; 'I' for Inactive)
REMARK                            x       y       z     vdW  Elec       q    Type
REMARK                         _______ _______ _______ _____ _____    ______ ____
ROOT
ATOM      1 CL   UNL     1      -3.987   0.822   0.488  0.00  0.00    -0.082 Cl
ATOM      2  N   UNL     1       3.081  -0.147   0.419  0.00  0.00    +0.384 N 
ATOM      3  C   UNL     1       1.179   1.277  -0.429  0.00  0.00    +0.001 C 
ATOM      4  C   UNL     1      -0.054   0.395  -0.251  0.00  0.00    -0.028 C 
ATOM      5  C   UNL     1       2.223   1.011   0.679  0.00  0.00    -0.077 C 
ATOM      6  C   UNL     1       0.062  -1.009  -0.352  0.00  0.00    -0.028 C 
ATOM      7  C   UNL     1       1.392  -1.676  -0.608  0.00  0.00    +0.003 C 
ATOM      8  C   UNL     1       2.397  -1.434   0.518  0.00  0.00    -0.077 C 
ATOM      9  C   UNL     1       0.887   2.786  -0.485  0.00  0.00    +0.002 C 
ATOM     10  C   UNL     1      -1.327   0.936   0.013  0.00  0.00    +0.007 C 
ATOM     11  C   UNL     1      -1.078  -1.820  -0.205  0.00  0.00    -0.004 C 
ATOM     12  C   UNL     1      -2.450   0.118   0.161  0.00  0.00    +0.057 C 
ATOM     13  C   UNL     1      -2.326  -1.260   0.050  0.00  0.00    +0.011 C 
ATOM     14  H   UNL     1       3.844  -0.138   1.096  0.00  0.00    -0.084 HD
ATOM     15  H   UNL     1       3.405  -0.061  -0.544  0.00  0.00    -0.084 HD
ENDROOT
TORSDOF 0
