REMARK  Name = 5288577
REMARK  11 active torsions:
REMARK  status: ('A' for Active; 'I' for Inactive)
REMARK    1  A    between atoms: C_1  and  O_2
REMARK    2  A    between atoms: C_1  and  C_4
REMARK    3  A    between atoms: C_1  and  C_11
REMARK    4  A    between atoms: C_4  and  O_5
REMARK    5  A    between atoms: C_4  and  C_7
REMARK    6  A    between atoms: C_7  and  C_8
REMARK    7  A    between atoms: C_8  and  O_9
REMARK    8  A    between atoms: C_11  and  O_12
REMARK    9  A    between atoms: O_12  and  P_13
REMARK   10  A    between atoms: P_13  and  O_15
REMARK   11  A    between atoms: P_13  and  O_17
REMARK                            x       y       z     vdW  Elec       q    Type
REMARK                         _______ _______ _______ _____ _____    ______ ____
ROOT
ATOM      1  C   UNL     1      -0.532  -1.101  -0.569  0.00  0.00    +0.167 C 
ENDROOT
BRANCH   1   2
ATOM      2  O   UNL     1      -0.565  -2.059   0.490  0.00  0.00    -0.379 OA
ATOM      3  H   UNL     1      -1.483  -2.321   0.660  0.00  0.00    +0.211 HD
ENDBRANCH   1   2
BRANCH   1   4
ATOM      4  C   UNL     1      -1.422   0.104  -0.220  0.00  0.00    +0.142 C 
BRANCH   4   5
ATOM      5  O   UNL     1      -1.411   1.047  -1.291  0.00  0.00    -0.382 OA
ATOM      6  H   UNL     1      -0.496   1.307  -1.483  0.00  0.00    +0.210 HD
ENDBRANCH   4   5
BRANCH   4   7
ATOM      7  C   UNL     1      -2.872  -0.309   0.083  0.00  0.00    +0.064 C 
BRANCH   7   8
ATOM      8  C   UNL     1      -3.772   0.878   0.417  0.00  0.00    +0.140 C 
BRANCH   8   9
ATOM      9  O   UNL     1      -5.096   0.428   0.663  0.00  0.00    -0.382 OA
ATOM     10  H   UNL     1      -5.662   1.187   0.875  0.00  0.00    +0.210 HD
ENDBRANCH   8   9
ENDBRANCH   7   8
ENDBRANCH   4   7
ENDBRANCH   1   4
BRANCH   1  11
ATOM     11  C   UNL     1       0.921  -0.702  -0.823  0.00  0.00    +0.185 C 
BRANCH  11  12
ATOM     12  O   UNL     1       1.451  -0.115   0.361  0.00  0.00    -0.271 OA
BRANCH  12  13
ATOM     13  P   UNL     1       2.984   0.393   0.344  0.00  0.00    +0.473 P 
ATOM     14  O   UNL     1       3.469   0.999   1.629  0.00  0.00    -0.227 OA
BRANCH  13  15
ATOM     15  O   UNL     1       3.055   1.363  -0.948  0.00  0.00    -0.303 OA
ATOM     16  H   UNL     1       2.723   0.888  -1.727  0.00  0.00    +0.222 HD
ENDBRANCH  13  15
BRANCH  13  17
ATOM     17  O   UNL     1       3.790  -0.925  -0.136  0.00  0.00    -0.303 OA
ATOM     18  H   UNL     1       3.413  -1.249  -0.969  0.00  0.00    +0.222 HD
ENDBRANCH  13  17
ENDBRANCH  12  13
ENDBRANCH  11  12
ENDBRANCH   1  11
TORSDOF 11
