REMARK  Name = 439356
REMARK  4 active torsions:
REMARK  status: ('A' for Active; 'I' for Inactive)
REMARK    1  A    between atoms: C_1  and  C_3
REMARK    2  A    between atoms: C_1  and  C_12
REMARK    3  A    between atoms: C_12  and  C_15
REMARK    4  A    between atoms: C_12  and  N_18
REMARK                            x       y       z     vdW  Elec       q    Type
REMARK                         _______ _______ _______ _____ _____    ______ ____
ROOT
ATOM      1  C   UNL     1       1.274  -0.645   1.137  0.00  0.00    +0.015 C 
ENDROOT
BRANCH   1   3
ATOM      2  N   UNL     1      -1.146   1.976   0.360  0.00  0.00    -0.312 N 
ATOM      3  C   UNL     1       0.123   0.199   0.758  0.00  0.00    -0.008 C 
ATOM      4  C   UNL     1      -1.149  -0.255   0.309  0.00  0.00    +0.011 C 
ATOM      5  C   UNL     1      -1.926   0.880   0.066  0.00  0.00    +0.048 C 
ATOM      6  C   UNL     1       0.094   1.574   0.778  0.00  0.00    +0.058 C 
ATOM      7  C   UNL     1      -1.716  -1.525   0.086  0.00  0.00    +0.001 C 
ATOM      8  C   UNL     1      -3.247   0.807  -0.391  0.00  0.00    +0.015 C 
ATOM      9  C   UNL     1      -3.036  -1.613  -0.371  0.00  0.00    +0.000 C 
ATOM     10  C   UNL     1      -3.788  -0.464  -0.605  0.00  0.00    +0.001 C 
ATOM     11  H   UNL     1      -1.438   2.913   0.280  0.00  0.00    +0.152 HD
ENDBRANCH   1   3
BRANCH   1  12
ATOM     12  C   UNL     1       2.222  -0.972  -0.042  0.00  0.00    +0.017 C 
BRANCH  12  15
ATOM     13  O   UNL     1       3.531   1.068   0.060  0.00  0.00    -0.278 OA
ATOM     14  N   UNL     1       2.574   0.488  -1.946  0.00  0.00    -0.330 N 
ATOM     15  C   UNL     1       2.856   0.290  -0.611  0.00  0.00    +0.199 C 
ATOM     16  H   UNL     1       2.935   1.276  -2.413  0.00  0.00    +0.145 HD
ATOM     17  H   UNL     1       2.011  -0.158  -2.431  0.00  0.00    +0.145 HD
ENDBRANCH  12  15
BRANCH  12  18
ATOM     18  N   UNL     1       3.335  -1.808   0.411  0.00  0.00    +0.388 N 
ATOM     19  H   UNL     1       2.970  -2.675   0.806  0.00  0.00    -0.089 HD
ATOM     20  H   UNL     1       3.868  -1.308   1.123  0.00  0.00    -0.089 HD
ATOM     21  H   UNL     1       3.942  -2.023  -0.379  0.00  0.00    -0.089 HD
ENDBRANCH  12  18
ENDBRANCH   1  12
TORSDOF 4
