REMARK  Name = 446244
REMARK  2 active torsions:
REMARK  status: ('A' for Active; 'I' for Inactive)
REMARK    1  A    between atoms: C_6  and  S_17
REMARK    2  A    between atoms: S_17  and  C_18
REMARK                            x       y       z     vdW  Elec       q    Type
REMARK                         _______ _______ _______ _____ _____    ______ ____
ROOT
ATOM      1  N   UNL     1       3.058   0.664  -0.534  0.00  0.00    -0.332 NA
ATOM      2  N   UNL     1       1.411   2.024   0.581  0.00  0.00    -0.317 NA
ATOM      3  N   UNL     1      -0.524   1.142   1.458  0.00  0.00    -0.335 N 
ATOM      4  N   UNL     1       3.364   2.977  -0.294  0.00  0.00    -0.283 N 
ATOM      5  C   UNL     1       1.074  -0.357   0.345  0.00  0.00    +0.149 C 
ATOM      6  C   UNL     1       0.296  -1.509   0.558  0.00  0.00    +0.022 C 
ATOM      7  C   UNL     1       2.306  -0.431  -0.325  0.00  0.00    +0.135 C 
ATOM      8  C   UNL     1       0.683   0.908   0.774  0.00  0.00    +0.178 C 
ATOM      9  C   UNL     1       0.744  -2.745   0.104  0.00  0.00    +0.003 C 
ATOM     10  C   UNL     1       2.730  -1.681  -0.769  0.00  0.00    +0.029 C 
ATOM     11  C   UNL     1       1.963  -2.831  -0.561  0.00  0.00    +0.003 C 
ATOM     12  C   UNL     1       2.569   1.832  -0.070  0.00  0.00    +0.197 C 
ATOM     13  H   UNL     1      -0.760   2.055   1.743  0.00  0.00    +0.144 HD
ATOM     14  H   UNL     1      -1.133   0.393   1.653  0.00  0.00    +0.144 HD
ATOM     15  H   UNL     1       4.224   2.895  -0.766  0.00  0.00    +0.156 HD
ATOM     16  H   UNL     1       3.059   3.858   0.023  0.00  0.00    +0.156 HD
ENDROOT
BRANCH   6  17
ATOM     17  S   UNL     1      -1.300  -1.636   1.387  0.00  0.00    -0.090 S 
BRANCH  17  18
ATOM     18  C   UNL     1      -2.289  -0.564   0.360  0.00  0.00    +0.029 C 
ATOM     19  C   UNL     1      -1.987  -0.422  -0.994  0.00  0.00    +0.006 C 
ATOM     20  C   UNL     1      -3.364   0.131   0.912  0.00  0.00    +0.006 C 
ATOM     21  C   UNL     1      -2.760   0.416  -1.796  0.00  0.00    +0.001 C 
ATOM     22  C   UNL     1      -4.138   0.970   0.110  0.00  0.00    +0.001 C 
ATOM     23  C   UNL     1      -3.836   1.112  -1.245  0.00  0.00    +0.000 C 
ENDBRANCH  17  18
ENDBRANCH   6  17
TORSDOF 2
