REMARK  Name = 854026
REMARK  1 active torsions:
REMARK  status: ('A' for Active; 'I' for Inactive)
REMARK    1  A    between atoms: C_3  and  N_19
REMARK                            x       y       z     vdW  Elec       q    Type
REMARK                         _______ _______ _______ _____ _____    ______ ____
ROOT
ATOM      1  O   UNL     1       4.564  -0.314  -0.712  0.00  0.00    -0.270 OA
ATOM      2  N   UNL     1       2.303  -0.559  -1.107  0.00  0.00    -0.284 N 
ATOM      3  C   UNL     1      -0.742  -0.004   1.115  0.00  0.00    -0.009 C 
ATOM      4  C   UNL     1      -1.480  -0.404  -1.251  0.00  0.00    +0.043 C 
ATOM      5  C   UNL     1      -1.664  -0.816   0.196  0.00  0.00    -0.059 C 
ATOM      6  C   UNL     1      -1.243   1.474   1.036  0.00  0.00    +0.009 C 
ATOM      7  C   UNL     1       0.710  -0.080   0.587  0.00  0.00    -0.028 C 
ATOM      8  C   UNL     1      -0.067  -0.841  -1.687  0.00  0.00    +0.049 C 
ATOM      9  C   UNL     1       0.996  -0.483  -0.672  0.00  0.00    +0.023 C 
ATOM     10  C   UNL     1      -1.554   1.954  -0.372  0.00  0.00    -0.049 C 
ATOM     11  C   UNL     1      -1.648   1.095  -1.405  0.00  0.00    -0.031 C 
ATOM     12  C   UNL     1      -2.527  -1.781   0.549  0.00  0.00    -0.036 C 
ATOM     13  C   UNL     1       1.816   0.308   1.450  0.00  0.00    -0.000 C 
ATOM     14  C   UNL     1      -1.748   3.430  -0.543  0.00  0.00    +0.026 C 
ATOM     15  C   UNL     1       3.090   0.239   1.045  0.00  0.00    +0.058 C 
ATOM     16  C   UNL     1       3.400  -0.236  -0.329  0.00  0.00    +0.249 C 
ATOM     17  C   UNL     1      -3.374  -2.531  -0.420  0.00  0.00    +0.030 C 
ATOM     18  H   UNL     1       2.465  -0.862  -2.029  0.00  0.00    +0.155 HD
ENDROOT
BRANCH   3  19
ATOM     19  N   UNL     1      -0.830  -0.451   2.519  0.00  0.00    +0.388 N 
ATOM     20  H   UNL     1      -1.798  -0.388   2.836  0.00  0.00    -0.088 HD
ATOM     21  H   UNL     1      -0.243   0.145   3.103  0.00  0.00    -0.088 HD
ATOM     22  H   UNL     1      -0.511  -1.417   2.590  0.00  0.00    -0.088 HD
ENDBRANCH   3  19
TORSDOF 1
