REMARK  Name = 60813
REMARK  5 active torsions:
REMARK  status: ('A' for Active; 'I' for Inactive)
REMARK    1  A    between atoms: N_1  and  C_14
REMARK    2  A    between atoms: C_14  and  C_15
REMARK    3  A    between atoms: C_15  and  C_16
REMARK    4  A    between atoms: C_16  and  C_17
REMARK    5  A    between atoms: C_17  and  N_19
REMARK                            x       y       z     vdW  Elec       q    Type
REMARK                         _______ _______ _______ _____ _____    ______ ____
ROOT
ATOM      1  N   UNL     1       0.760  -0.866  -0.057  0.00  0.00    +0.389 N 
ATOM      2  N   UNL     1       3.523  -0.163   0.114  0.00  0.00    -0.257 N 
ATOM      3  N   UNL     1       5.217   1.475  -0.040  0.00  0.00    -0.181 NA
ATOM      4  N   UNL     1       5.779  -0.861   0.147  0.00  0.00    -0.203 NA
ATOM      5  C   UNL     1       1.168   0.544  -0.043  0.00  0.00    -0.055 C 
ATOM      6  C   UNL     1       1.679  -1.660   0.767  0.00  0.00    -0.055 C 
ATOM      7  C   UNL     1       2.584   0.712  -0.598  0.00  0.00    +0.079 C 
ATOM      8  C   UNL     1       3.113  -1.565   0.239  0.00  0.00    +0.079 C 
ATOM      9  C   UNL     1       4.884   0.161   0.072  0.00  0.00    +0.090 C 
ATOM     10  C   UNL     1       6.537   1.751  -0.076  0.00  0.00    +0.108 C 
ATOM     11  C   UNL     1       7.082  -0.513   0.105  0.00  0.00    +0.165 C 
ATOM     12  C   UNL     1       7.524   0.789  -0.007  0.00  0.00    +0.022 C 
ATOM     13  H   UNL     1       0.798  -1.210  -1.017  0.00  0.00    -0.080 HD
ENDROOT
BRANCH   1  14
ATOM     14  C   UNL     1      -0.613  -1.008   0.424  0.00  0.00    -0.077 C 
BRANCH  14  15
ATOM     15  C   UNL     1      -1.576  -0.245  -0.485  0.00  0.00    -0.021 C 
BRANCH  15  16
ATOM     16  C   UNL     1      -3.022  -0.398  -0.012  0.00  0.00    +0.021 C 
BRANCH  16  17
ATOM     17  C   UNL     1      -3.989   0.333  -0.942  0.00  0.00    +0.116 C 
BRANCH  17  19
ATOM     18 CL   UNL     1      -8.580   1.133   1.378  0.00  0.00    -0.079 Cl
ATOM     19  N   UNL     1      -5.374   0.209  -0.501  0.00  0.00    -0.209 N 
ATOM     20  N   UNL     1      -6.109  -0.815  -0.945  0.00  0.00    -0.175 NA
ATOM     21  C   UNL     1      -6.018   1.052   0.341  0.00  0.00    +0.097 C 
ATOM     22  C   UNL     1      -7.287   0.542   0.466  0.00  0.00    +0.095 C 
ATOM     23  C   UNL     1      -7.286  -0.607  -0.348  0.00  0.00    +0.130 C 
ENDBRANCH  17  19
ENDBRANCH  16  17
ENDBRANCH  15  16
ENDBRANCH  14  15
ENDBRANCH   1  14
TORSDOF 5
