REMARK  Name = 6918107
REMARK  2 active torsions:
REMARK  status: ('A' for Active; 'I' for Inactive)
REMARK    1  A    between atoms: C_4  and  C_18
REMARK    2  A    between atoms: C_18  and  N_19
REMARK                            x       y       z     vdW  Elec       q    Type
REMARK                         _______ _______ _______ _____ _____    ______ ____
ROOT
ATOM      1  O   UNL     1      -1.398   1.125   1.307  0.00  0.00    -0.291 OA
ATOM      2  N   UNL     1       2.298  -1.132  -0.141  0.00  0.00    -0.331 N 
ATOM      3  C   UNL     1       0.989  -1.315   0.183  0.00  0.00    +0.040 A 
ATOM      4  C   UNL     1      -1.798  -1.208   0.846  0.00  0.00    +0.082 C 
ATOM      5  C   UNL     1       0.470  -0.084   0.556  0.00  0.00    +0.048 A 
ATOM      6  C   UNL     1       0.251  -2.605   0.143  0.00  0.00    +0.044 C 
ATOM      7  C   UNL     1       2.637   0.189   0.030  0.00  0.00    +0.056 A 
ATOM      8  C   UNL     1      -0.981  -2.501   1.055  0.00  0.00    +0.016 C 
ATOM      9  C   UNL     1       1.519   0.880   0.470  0.00  0.00    +0.019 A 
ATOM     10  C   UNL     1       3.298  -2.090  -0.584  0.00  0.00    +0.106 C 
ATOM     11  C   UNL     1      -0.923   0.049   0.953  0.00  0.00    +0.175 C 
ATOM     12  C   UNL     1       3.892   0.751  -0.205  0.00  0.00    -0.006 C 
ATOM     13  C   UNL     1       4.435  -1.399  -1.369  0.00  0.00    +0.029 C 
ATOM     14  C   UNL     1       5.006  -0.148  -0.658  0.00  0.00    +0.030 C 
ATOM     15  C   UNL     1       1.661   2.260   0.710  0.00  0.00    +0.002 C 
ATOM     16  C   UNL     1       4.016   2.116   0.057  0.00  0.00    -0.003 C 
ATOM     17  C   UNL     1       2.917   2.859   0.502  0.00  0.00    -0.000 C 
ENDROOT
BRANCH   4  18
ATOM     18  C   UNL     1      -2.534  -1.197  -0.492  0.00  0.00    +0.104 C 
BRANCH  18  19
ATOM     19  N   UNL     1      -3.380  -0.022  -0.638  0.00  0.00    -0.273 N 
ATOM     20  N   UNL     1      -5.160   1.284  -0.536  0.00  0.00    -0.232 NA
ATOM     21  C   UNL     1      -4.684   0.089  -0.266  0.00  0.00    +0.113 C 
ATOM     22  C   UNL     1      -2.990   1.164  -1.178  0.00  0.00    +0.087 C 
ATOM     23  C   UNL     1      -4.110   1.959  -1.105  0.00  0.00    +0.116 C 
ATOM     24  C   UNL     1      -5.430  -1.022   0.360  0.00  0.00    +0.069 C 
ENDBRANCH  18  19
ENDBRANCH   4  18
TORSDOF 2
