REMARK  Name = 5288032
REMARK  0 active torsions:
REMARK  status: ('A' for Active; 'I' for Inactive)
REMARK                            x       y       z     vdW  Elec       q    Type
REMARK                         _______ _______ _______ _____ _____    ______ ____
ROOT
ATOM      1  O   UNL     1      -4.360   0.430   0.250  0.00  0.00    -0.269 OA
ATOM      2  O   UNL     1       2.264   2.362  -0.429  0.00  0.00    -0.208 OA
ATOM      3  N   UNL     1      -2.617   1.848   0.392  0.00  0.00    -0.300 N 
ATOM      4  N   UNL     1      -2.776  -1.836  -0.021  0.00  0.00    -0.308 N 
ATOM      5  N   UNL     1       2.153  -1.015   0.182  0.00  0.00    -0.266 N 
ATOM      6  N   UNL     1       3.715   0.581   0.060  0.00  0.00    -0.301 NA
ATOM      7  N   UNL     1       4.367  -1.688   0.551  0.00  0.00    -0.320 N 
ATOM      8  C   UNL     1       0.127   0.322  -0.288  0.00  0.00    +0.007 C 
ATOM      9  C   UNL     1      -0.367   1.705  -0.616  0.00  0.00    +0.050 C 
ATOM     10  C   UNL     1      -0.875  -0.706  -0.209  0.00  0.00    +0.017 C 
ATOM     11  C   UNL     1      -1.231   2.256   0.505  0.00  0.00    +0.094 C 
ATOM     12  C   UNL     1      -2.244  -0.555   0.006  0.00  0.00    +0.102 C 
ATOM     13  C   UNL     1       1.442   0.106  -0.103  0.00  0.00    +0.144 C 
ATOM     14  C   UNL     1      -3.134   0.578   0.220  0.00  0.00    +0.259 C 
ATOM     15  C   UNL     1      -0.616  -2.105  -0.352  0.00  0.00    +0.017 C 
ATOM     16  C   UNL     1      -1.808  -2.772  -0.230  0.00  0.00    +0.062 C 
ATOM     17  C   UNL     1       2.480   1.186  -0.188  0.00  0.00    +0.221 C 
ATOM     18  C   UNL     1       3.478  -0.697   0.270  0.00  0.00    +0.248 C 
ATOM     19  H   UNL     1      -3.280   2.574   0.446  0.00  0.00    +0.150 HD
ATOM     20  H   UNL     1      -3.731  -2.043   0.096  0.00  0.00    +0.152 HD
ATOM     21  H   UNL     1       1.773  -1.915   0.307  0.00  0.00    +0.157 HD
ATOM     22  H   UNL     1       4.049  -2.610   0.686  0.00  0.00    +0.146 HD
ATOM     23  H   UNL     1       5.327  -1.483   0.619  0.00  0.00    +0.146 HD
ENDROOT
TORSDOF 0
