REMARK  Name = 4369502
REMARK  8 active torsions:
REMARK  status: ('A' for Active; 'I' for Inactive)
REMARK    1  A    between atoms: N_1  and  C_12
REMARK    2  A    between atoms: N_2  and  CA_23
REMARK    3  A    between atoms: C_10  and  O_15
REMARK    4  A    between atoms: O_15  and  C_16
REMARK    5  A    between atoms: C_16  and  C_17
REMARK    6  A    between atoms: CA_23  and  C_24
REMARK    7  A    between atoms: CA_23  and  C_26
REMARK    8  A    between atoms: C_26  and  O_27
REMARK                            x       y       z     vdW  Elec       q    Type
REMARK                         _______ _______ _______ _____ _____    ______ ____
ROOT
ATOM      1  N   UNL     1       3.026   2.123  -0.053  0.00  0.00    -0.262 N 
ATOM      2  N   UNL     1       1.832  -2.475  -0.017  0.00  0.00    -0.258 N 
ATOM      3  N   UNL     1       2.620  -0.272  -0.040  0.00  0.00    -0.311 NA
ATOM      4  N   UNL     1       0.926   2.867   0.001  0.00  0.00    -0.239 NA
ATOM      5  N   UNL     1       0.231  -0.765   0.023  0.00  0.00    -0.289 NA
ATOM      6  C   UNL     1       2.232   1.012  -0.031  0.00  0.00    +0.222 C 
ATOM      7  C   UNL     1       0.934   1.495   0.002  0.00  0.00    +0.190 C 
ATOM      8  C   UNL     1       1.552  -1.122  -0.011  0.00  0.00    +0.204 C 
ATOM      9  C   UNL     1       2.196   3.212  -0.032  0.00  0.00    +0.222 C 
ATOM     10  C   UNL     1      -0.088   0.551   0.029  0.00  0.00    +0.311 C 
ATOM     11  H   UNL     1       2.775  -2.756  -0.042  0.00  0.00    +0.160 HD
ENDROOT
BRANCH   1  12
ATOM     12  C   UNL     1       4.468   2.155  -0.090  0.00  0.00    +0.077 C 
ATOM     13  C   UNL     1       5.059   2.808   1.161  0.00  0.00    +0.022 C 
ATOM     14  C   UNL     1       4.994   2.809  -1.369  0.00  0.00    +0.022 C 
ENDBRANCH   1  12
BRANCH  10  15
ATOM     15  O   UNL     1      -1.414   0.902   0.063  0.00  0.00    -0.445 OA
BRANCH  15  16
ATOM     16  C   UNL     1      -2.356  -0.162   0.089  0.00  0.00    +0.235 C 
BRANCH  16  17
ATOM     17  C   UNL     1      -3.718   0.459   0.099  0.00  0.00    +0.021 C 
ATOM     18  C   UNL     1      -4.332   0.760   1.312  0.00  0.00    -0.001 C 
ATOM     19  C   UNL     1      -4.364   0.731  -1.104  0.00  0.00    -0.001 C 
ATOM     20  C   UNL     1      -5.601   1.339   1.321  0.00  0.00    -0.000 C 
ATOM     21  C   UNL     1      -5.633   1.309  -1.094  0.00  0.00    -0.000 C 
ATOM     22  C   UNL     1      -6.252   1.613   0.119  0.00  0.00    -0.000 C 
ENDBRANCH  16  17
ENDBRANCH  15  16
ENDBRANCH  10  15
BRANCH   2  23
ATOM     23  CA  UNL     1       0.809  -3.503   0.013  0.00  0.00    +0.109 C 
BRANCH  23  24
ATOM     24  C   UNL     1       1.417  -4.828   0.493  0.00  0.00    +0.023 C 
ATOM     25  C   UNL     1       2.037  -4.721   1.881  0.00  0.00    +0.002 C 
ENDBRANCH  23  24
BRANCH  23  26
ATOM     26  C   UNL     1       0.221  -3.652  -1.390  0.00  0.00    +0.157 C 
BRANCH  26  27
ATOM     27  O   UNL     1      -0.797  -4.646  -1.373  0.00  0.00    -0.380 OA
ATOM     28  H   UNL     1      -1.171  -4.742  -2.263  0.00  0.00    +0.211 HD
ENDBRANCH  26  27
ENDBRANCH  23  26
ENDBRANCH   2  23
TORSDOF 8
