REMARK  Name = 447087
REMARK  0 active torsions:
REMARK  status: ('A' for Active; 'I' for Inactive)
REMARK                            x       y       z     vdW  Elec       q    Type
REMARK                         _______ _______ _______ _____ _____    ______ ____
ROOT
ATOM      1 BR   UNL     1      -3.483   1.075   0.001  0.00  0.00    +0.005 Br
ATOM      2  O   UNL     1      -0.086  -2.656   0.000  0.00  0.00    -0.208 OA
ATOM      3  N   UNL     1       2.119  -0.600   0.001  0.00  0.00    -0.304 N 
ATOM      4  N   UNL     1      -0.698   1.385  -0.001  0.00  0.00    -0.269 N 
ATOM      5  N   UNL     1       1.721   1.601   0.000  0.00  0.00    -0.303 N 
ATOM      6  N   UNL     1      -1.563  -0.880   0.000  0.00  0.00    -0.309 NA
ATOM      7  C   UNL     1       0.760  -0.461   0.000  0.00  0.00    +0.170 C 
ATOM      8  C   UNL     1       0.555   0.897  -0.001  0.00  0.00    +0.127 C 
ATOM      9  C   UNL     1      -0.289  -1.448   0.000  0.00  0.00    +0.223 C 
ATOM     10  C   UNL     1       2.651   0.666   0.001  0.00  0.00    +0.183 C 
ATOM     11  C   UNL     1      -1.688   0.419   0.000  0.00  0.00    +0.232 C 
ATOM     12  H   UNL     1       2.621  -1.447   0.001  0.00  0.00    +0.149 HD
ATOM     13  H   UNL     1      -0.894   2.350  -0.001  0.00  0.00    +0.156 HD
ATOM     14  H   UNL     1       1.841   2.578   0.000  0.00  0.00    +0.150 HD
ENDROOT
TORSDOF 0
