REMARK  Name = 175496
REMARK  4 active torsions:
REMARK  status: ('A' for Active; 'I' for Inactive)
REMARK    1  A    between atoms: CA_1  and  N_2
REMARK    2  A    between atoms: CA_1  and  C_7
REMARK    3  A    between atoms: CA_1  and  C_10
REMARK    4  A    between atoms: C_7  and  O_8
REMARK                            x       y       z     vdW  Elec       q    Type
REMARK                         _______ _______ _______ _____ _____    ______ ____
ROOT
ATOM      1  CA  UNL     1       0.171   0.466  -0.544  0.00  0.00    +0.103 C 
ENDROOT
BRANCH   1   2
ATOM      2  N   UNL     1       0.076   1.869  -0.144  0.00  0.00    +0.396 N 
ATOM      3  H1  UNL     1      -0.782   2.273  -0.520  0.00  0.00    -0.087 HD
ATOM      4  H2  UNL     1       0.880   2.381  -0.506  0.00  0.00    -0.087 HD
ATOM      5  H3  UNL     1       0.063   1.932   0.874  0.00  0.00    -0.087 HD
ENDBRANCH   1   2
BRANCH   1   7
ATOM      6  OXT UNL     1      -1.927   0.244   0.685  0.00  0.00    -0.252 OA
ATOM      7  C   UNL     1      -1.050  -0.256  -0.009  0.00  0.00    +0.305 C 
BRANCH   7   8
ATOM      8  O   UNL     1      -1.078  -1.561  -0.393  0.00  0.00    -0.481 OA
ATOM      9  H   UNL     1      -0.389  -1.907  -0.925  0.00  0.00    +0.295 HD
ENDBRANCH   7   8
ENDBRANCH   1   7
BRANCH   1  10
ATOM     10  C   UNL     1       1.400  -0.136  -0.012  0.00  0.00    -0.090 C 
ATOM     11  C   UNL     1       2.408  -0.628   0.418  0.00  0.00    -0.016 C 
ENDBRANCH   1  10
TORSDOF 4
