REMARK  Name = 5681
REMARK  9 active torsions:
REMARK  status: ('A' for Active; 'I' for Inactive)
REMARK    1  A    between atoms: S_1  and  C_5
REMARK    2  A    between atoms: S_1  and  N_15
REMARK    3  A    between atoms: N_15  and  C_17
REMARK    4  A    between atoms: C_17  and  C_18
REMARK    5  A    between atoms: C_18  and  C_19
REMARK    6  A    between atoms: C_19  and  C_20
REMARK    7  A    between atoms: C_20  and  C_21
REMARK    8  A    between atoms: C_21  and  C_22
REMARK    9  A    between atoms: C_22  and  N_23
REMARK                            x       y       z     vdW  Elec       q    Type
REMARK                         _______ _______ _______ _____ _____    ______ ____
ROOT
ATOM      1  S   UNL     1      -0.046  -1.004  -1.319  0.00  0.00    +0.060 S 
ATOM      2  O   UNL     1       0.565  -2.314  -1.211  0.00  0.00    -0.153 OA
ATOM      3  O   UNL     1      -0.375  -0.458  -2.622  0.00  0.00    -0.153 OA
ENDROOT
BRANCH   1   5
ATOM      4 CL   UNL     1      -5.963   1.047   1.382  0.00  0.00    -0.082 Cl
ATOM      5  C   UNL     1      -1.539  -1.018  -0.374  0.00  0.00    +0.122 C 
ATOM      6  C   UNL     1      -2.425   0.064  -0.353  0.00  0.00    +0.019 C 
ATOM      7  C   UNL     1      -3.600  -0.028   0.430  0.00  0.00    +0.012 C 
ATOM      8  C   UNL     1      -1.790  -2.175   0.357  0.00  0.00    +0.020 C 
ATOM      9  C   UNL     1      -2.180   1.235  -1.089  0.00  0.00    +0.001 C 
ATOM     10  C   UNL     1      -3.845  -1.200   1.165  0.00  0.00    +0.001 C 
ATOM     11  C   UNL     1      -2.945  -2.265   1.127  0.00  0.00    +0.001 C 
ATOM     12  C   UNL     1      -4.495   1.054   0.456  0.00  0.00    +0.058 C 
ATOM     13  C   UNL     1      -3.081   2.300  -1.051  0.00  0.00    +0.001 C 
ATOM     14  C   UNL     1      -4.236   2.210  -0.280  0.00  0.00    +0.011 C 
ENDBRANCH   1   5
BRANCH   1  15
ATOM     15  N   UNL     1       0.895   0.129  -0.469  0.00  0.00    -0.179 NA
ATOM     16  H   UNL     1       0.393   1.017  -0.508  0.00  0.00    +0.149 HD
BRANCH  15  17
ATOM     17  C   UNL     1       1.233  -0.109   0.951  0.00  0.00    +0.091 C 
BRANCH  17  18
ATOM     18  C   UNL     1       2.549   0.577   1.307  0.00  0.00    +0.019 C 
BRANCH  18  19
ATOM     19  C   UNL     1       3.727   0.048   0.483  0.00  0.00    +0.001 C 
BRANCH  19  20
ATOM     20  C   UNL     1       5.070   0.677   0.868  0.00  0.00    -0.002 C 
BRANCH  20  21
ATOM     21  C   UNL     1       6.254   0.128   0.069  0.00  0.00    -0.024 C 
BRANCH  21  22
ATOM     22  C   UNL     1       7.558   0.811   0.479  0.00  0.00    -0.086 C 
BRANCH  22  23
ATOM     23  N   UNL     1       8.672   0.291  -0.306  0.00  0.00    +0.380 N 
ATOM     24  H   UNL     1       9.534   0.756  -0.021  0.00  0.00    -0.089 HD
ATOM     25  H   UNL     1       8.501   0.467  -1.296  0.00  0.00    -0.089 HD
ATOM     26  H   UNL     1       8.759  -0.713  -0.149  0.00  0.00    -0.089 HD
ENDBRANCH  22  23
ENDBRANCH  21  22
ENDBRANCH  20  21
ENDBRANCH  19  20
ENDBRANCH  18  19
ENDBRANCH  17  18
ENDBRANCH  15  17
ENDBRANCH   1  15
TORSDOF 9
