REMARK  Name = 119404
REMARK  3 active torsions:
REMARK  status: ('A' for Active; 'I' for Inactive)
REMARK    1  A    between atoms: CA_9  and  CB_13
REMARK    2  A    between atoms: CB_13  and  CG_14
REMARK    3  A    between atoms: CZ_19  and  OH_20
REMARK                            x       y       z     vdW  Elec       q    Type
REMARK                         _______ _______ _______ _____ _____    ______ ____
ROOT
ATOM      1  O   TYR A   2      -1.652   2.527  -0.492  0.00  0.00    -0.273 OA
ATOM      2  O   PRO A   1      -1.898  -2.767  -0.457  0.00  0.00    -0.273 OA
ATOM      3  N   PRO A   1      -2.768   0.581   0.084  0.00  0.00    -0.272 N 
ATOM      4  N   TYR A   2      -0.668  -0.826  -0.679  0.00  0.00    -0.297 N 
ATOM      5  CA  PRO A   1      -2.690  -0.763   0.639  0.00  0.00    +0.152 C 
ATOM      6  CB  PRO A   1      -4.138  -1.240   0.646  0.00  0.00    +0.031 C 
ATOM      7  CD  PRO A   1      -4.132   1.078   0.052  0.00  0.00    +0.094 C 
ATOM      8  CG  PRO A   1      -4.920   0.055   0.858  0.00  0.00    +0.024 C 
ATOM      9  CA  TYR A   2      -0.366   0.498  -0.141  0.00  0.00    +0.153 C 
ATOM     10  C   TYR A   2      -1.646   1.324  -0.244  0.00  0.00    +0.244 C 
ATOM     11  C   PRO A   1      -1.761  -1.565  -0.247  0.00  0.00    +0.241 C 
ATOM     12  H   TYR A   2      -0.078  -1.206  -1.370  0.00  0.00    +0.150 HD
ENDROOT
BRANCH   9  13
ATOM     13  CB  TYR A   2       0.790   1.144  -0.888  0.00  0.00    +0.055 C 
BRANCH  13  14
ATOM     14  CG  TYR A   2       2.123   0.616  -0.423  0.00  0.00    -0.020 C 
ATOM     15  CD1 TYR A   2       2.780   1.247   0.623  0.00  0.00    -0.001 C 
ATOM     16  CD2 TYR A   2       2.672  -0.493  -1.049  0.00  0.00    -0.001 C 
ATOM     17  CE1 TYR A   2       4.013   0.758   1.053  0.00  0.00    +0.036 C 
ATOM     18  CE2 TYR A   2       3.906  -0.982  -0.619  0.00  0.00    +0.036 C 
ATOM     19  CZ  TYR A   2       4.576  -0.357   0.432  0.00  0.00    +0.134 C 
BRANCH  19  20
ATOM     20  OH  TYR A   2       5.780  -0.833   0.851  0.00  0.00    -0.506 OA
ATOM     21  HH  TYR A   2       6.230  -0.412   1.557  0.00  0.00    +0.292 HD
ENDBRANCH  19  20
ENDBRANCH  13  14
ENDBRANCH   9  13
TORSDOF 3
