2788
  -OEChem-10051720423D

 18 19  0     0  0  0  0  0  0999 V2000
   -4.0284    0.4021   -0.0011 I   0  0  0  0  0  0  0  0  0  0  0  0
    0.2055   -3.3240   -0.0009 Cl  0  0  0  0  0  0  0  0  0  0  0  0
   -1.4227    2.3236   -0.0002 O   0  0  0  0  0  0  0  0  0  0  0  0
    1.2323    1.7479   -0.0001 N   0  0  0  0  0  0  0  0  0  0  0  0
    0.7460   -0.6123    0.0001 C   0  0  0  0  0  0  0  0  0  0  0  0
    0.3408    0.7388    0.0001 C   0  0  0  0  0  0  0  0  0  0  0  0
   -1.0241    1.0132    0.0005 C   0  0  0  0  0  0  0  0  0  0  0  0
   -0.2119   -1.6405    0.0006 C   0  0  0  0  0  0  0  0  0  0  0  0
    2.1198   -0.8892    0.0000 C   0  0  0  0  0  0  0  0  0  0  0  0
   -1.9767   -0.0088    0.0007 C   0  0  0  0  0  0  0  0  0  0  0  0
   -1.5704   -1.3374    0.0008 C   0  0  0  0  0  0  0  0  0  0  0  0
    3.0408    0.1485   -0.0002 C   0  0  0  0  0  0  0  0  0  0  0  0
    2.5490    1.4380   -0.0003 C   0  0  0  0  0  0  0  0  0  0  0  0
    2.5083   -1.9036    0.0001 H   0  0  0  0  0  0  0  0  0  0  0  0
   -2.3057   -2.1391    0.0007 H   0  0  0  0  0  0  0  0  0  0  0  0
    4.1067   -0.0469   -0.0004 H   0  0  0  0  0  0  0  0  0  0  0  0
    3.2216    2.2895   -0.0005 H   0  0  0  0  0  0  0  0  0  0  0  0
   -2.3951    2.3482    0.0001 H   0  0  0  0  0  0  0  0  0  0  0  0
  1 10  1  0  0  0  0
  2  8  1  0  0  0  0
  3  7  1  0  0  0  0
  3 18  1  0  0  0  0
  4  6  1  0  0  0  0
  4 13  2  0  0  0  0
  5  6  2  0  0  0  0
  5  8  1  0  0  0  0
  5  9  1  0  0  0  0
  6  7  1  0  0  0  0
  7 10  2  0  0  0  0
  8 11  2  0  0  0  0
  9 12  2  0  0  0  0
  9 14  1  0  0  0  0
 10 11  1  0  0  0  0
 11 15  1  0  0  0  0
 12 13  1  0  0  0  0
 12 16  1  0  0  0  0
 13 17  1  0  0  0  0
M  END
> <DATABASE_ID>
DB04815

> <DATABASE_NAME>
drugbank

> <ORIGINAL_SOURCE>
PUBCHEM

> <ORIGINAL_SOURCE_URL>
https://pubchem.ncbi.nlm.nih.gov/rest/pug/compound/inchikey/QCDFBFJGMNKBDO-UHFFFAOYSA-N/SDF?record_type=3d

> <SMILES>
OC1=C(I)C=C(Cl)C2=C1N=CC=C2

> <INCHI_IDENTIFIER>
InChI=1S/C9H5ClINO/c10-6-4-7(11)9(13)8-5(6)2-1-3-12-8/h1-4,13H

> <INCHI_KEY>
QCDFBFJGMNKBDO-UHFFFAOYSA-N

> <FORMULA>
C9H5ClINO

> <MOLECULAR_WEIGHT>
305.5

> <EXACT_MASS>
304.910434914

> <JCHEM_ACCEPTOR_COUNT>
2

> <JCHEM_AVERAGE_POLARIZABILITY>
22.626794432959755

> <JCHEM_BIOAVAILABILITY>
1

> <JCHEM_DONOR_COUNT>
1

> <JCHEM_FORMAL_CHARGE>
0

> <JCHEM_GHOSE_FILTER>
0

> <JCHEM_IUPAC>
5-chloro-7-iodoquinolin-8-ol

> <ALOGPS_LOGP>
3.66

> <JCHEM_LOGP>
3.360324304333333

> <ALOGPS_LOGS>
-3.06

> <JCHEM_MDDR_LIKE_RULE>
0

> <JCHEM_NUMBER_OF_RINGS>
2

> <JCHEM_PHYSIOLOGICAL_CHARGE>
0

> <JCHEM_PKA_STRONGEST_ACIDIC>
7.337799516151212

> <JCHEM_PKA_STRONGEST_BASIC>
3.2821550903484003

> <JCHEM_POLAR_SURFACE_AREA>
33.120000000000005

> <JCHEM_REFRACTIVITY>
60.127500000000005

> <JCHEM_ROTATABLE_BOND_COUNT>
0

> <JCHEM_RULE_OF_FIVE>
1

> <ALOGPS_SOLUBILITY>
2.64e-01 g/l

> <JCHEM_TRADITIONAL_IUPAC>
clioquinol

> <JCHEM_VEBER_RULE>
1

> <DRUGBANK_ID>
DB04815

> <DRUG_GROUPS>
approved; vet_approved; withdrawn

> <GENERIC_NAME>
Clioquinol

> <SYNONYMS>
5-Chlor-7-jod-8-hydroxy-chinolin; 5-Chloro-7-iodo-8-hydroxyquinoline; 5-Chloro-7-iodo-8-quinolinol; 5-chloro-7-iodoquinolin-8-ol; 5-Chloro-8-hydroxy-7-iodoquinoline; 7-Iodo-5-chloro-8-hydroxyquinoline; 7-Iodo-5-chloroxine; Chloroiodoquin; Clioquinol; Clioquinolum; Iodochlorhydroxyquin; Iodochlorhydroxyquinoline; Iodochlorohydroxyquin; Iodochloroxyquinoline

> <PRODUCTS>
Ala Quin; Aristoform R Crm 0.1%; Dermasorb AF Complete Kit; Dermoscribe Diaper; Dermoscribe Ichybum; Locacorten Vioform; Locacorten Vioform Eardrops; Neo Vagex; PMS-flumethasone-clioquinol; Phen-oris - Ont Top; Phenoris Ont; T.R.U.E. Test Thin-Layer Rapid Use Patch Test; Vioform + Hydrocortisone; Vioform 3%; Vioform Hydrocortisone; Vioform Hydrocortisone Mild

$$$$
