REMARK  Name = 5288598
REMARK  5 active torsions:
REMARK  status: ('A' for Active; 'I' for Inactive)
REMARK    1  A    between atoms: C_4  and  C_13
REMARK    2  A    between atoms: C_13  and  CA_14
REMARK    3  A    between atoms: CA_14  and  N_15
REMARK    4  A    between atoms: CA_14  and  C_20
REMARK    5  A    between atoms: C_20  and  O_21
REMARK                            x       y       z     vdW  Elec       q    Type
REMARK                         _______ _______ _______ _____ _____    ______ ____
ROOT
ATOM      1  O   UNL     1      -3.207  -0.898  -0.466  0.00  0.00    -0.380 OA
ATOM      2  O   UNL     1      -0.285  -2.685   0.044  0.00  0.00    -0.264 OA
ATOM      3  N   UNL     1      -2.463  -2.088  -0.456  0.00  0.00    -0.184 N 
ATOM      4  C   UNL     1       0.122   0.284   0.730  0.00  0.00    -0.021 C 
ATOM      5  C   UNL     1      -1.797   2.492  -0.449  0.00  0.00    +0.013 C 
ATOM      6  C   UNL     1      -2.807   1.447   0.006  0.00  0.00    +0.068 C 
ATOM      7  C   UNL     1      -1.054  -0.401   0.231  0.00  0.00    +0.087 A 
ATOM      8  C   UNL     1      -0.688   2.745   0.564  0.00  0.00    +0.026 C 
ATOM      9  C   UNL     1      -2.285   0.050  -0.041  0.00  0.00    +0.154 A 
ATOM     10  C   UNL     1       0.247   1.617   0.882  0.00  0.00    -0.030 C 
ATOM     11  C   UNL     1      -1.172  -1.853  -0.054  0.00  0.00    +0.288 A 
ATOM     12  H   UNL     1      -2.818  -2.972  -0.704  0.00  0.00    +0.211 HD
ENDROOT
BRANCH   4  13
ATOM     13  C   UNL     1       1.287  -0.580   1.157  0.00  0.00    +0.015 C 
BRANCH  13  14
ATOM     14  CA  UNL     1       2.195  -0.841  -0.039  0.00  0.00    +0.040 C 
BRANCH  14  15
ATOM     15  N   UNL     1       3.335  -1.652   0.385  0.00  0.00    +0.389 N 
ATOM     16  H1  UNL     1       2.999  -2.527   0.787  0.00  0.00    -0.088 HD
ATOM     17  H2  UNL     1       3.874  -1.141   1.085  0.00  0.00    -0.088 HD
ATOM     18  H3  UNL     1       3.928  -1.853  -0.420  0.00  0.00    -0.088 HD
ENDBRANCH  14  15
BRANCH  14  20
ATOM     19  OXT UNL     1       3.809   0.978  -0.257  0.00  0.00    -0.253 OA
ATOM     20  C   UNL     1       2.774   0.438  -0.624  0.00  0.00    +0.293 C 
BRANCH  20  21
ATOM     21  O   UNL     1       1.990   0.948  -1.612  0.00  0.00    -0.482 OA
ATOM     22  H   UNL     1       1.205   0.504  -1.864  0.00  0.00    +0.295 HD
ENDBRANCH  20  21
ENDBRANCH  14  20
ENDBRANCH  13  14
ENDBRANCH   4  13
TORSDOF 5
