REMARK  Name = 2950
REMARK  2 active torsions:
REMARK  status: ('A' for Active; 'I' for Inactive)
REMARK    1  A    between atoms: C_9  and  O_17
REMARK    2  A    between atoms: C_10  and  O_19
REMARK                            x       y       z     vdW  Elec       q    Type
REMARK                         _______ _______ _______ _____ _____    ______ ____
ROOT
ATOM      1  O   UNL     1       0.000  -2.365  -0.001  0.00  0.00    -0.286 OA
ATOM      2  O   UNL     1       0.000   2.979  -0.002  0.00  0.00    -0.287 OA
ATOM      3  C   UNL     1      -1.273  -0.392   0.000  0.00  0.00    +0.076 C 
ATOM      4  C   UNL     1       1.273  -0.392   0.001  0.00  0.00    +0.076 C 
ATOM      5  C   UNL     1      -1.273   1.005   0.000  0.00  0.00    +0.045 C 
ATOM      6  C   UNL     1       1.273   1.004   0.001  0.00  0.00    +0.045 C 
ATOM      7  C   UNL     1       0.000  -1.141   0.001  0.00  0.00    +0.202 C 
ATOM      8  C   UNL     1       0.000   1.754   0.000  0.00  0.00    +0.196 C 
ATOM      9  C   UNL     1      -2.486  -1.090   0.000  0.00  0.00    +0.137 C 
ATOM     10  C   UNL     1       2.487  -1.090   0.000  0.00  0.00    +0.137 C 
ATOM     11  C   UNL     1      -2.486   1.703   0.000  0.00  0.00    +0.003 C 
ATOM     12  C   UNL     1       2.487   1.703   0.001  0.00  0.00    +0.003 C 
ATOM     13  C   UNL     1      -3.693  -0.390   0.000  0.00  0.00    +0.037 C 
ATOM     14  C   UNL     1       3.694  -0.391   0.000  0.00  0.00    +0.037 C 
ATOM     15  C   UNL     1      -3.693   1.003  -0.001  0.00  0.00    +0.003 C 
ATOM     16  C   UNL     1       3.694   1.003   0.000  0.00  0.00    +0.003 C 
ENDROOT
BRANCH   9  17
ATOM     17  O   UNL     1      -2.561  -2.451   0.001  0.00  0.00    -0.505 OA
ATOM     18  H   UNL     1      -1.777  -2.964   0.001  0.00  0.00    +0.292 HD
ENDBRANCH   9  17
BRANCH  10  19
ATOM     19  O   UNL     1       2.560  -2.452  -0.001  0.00  0.00    -0.505 OA
ATOM     20  H   UNL     1       1.775  -2.963  -0.001  0.00  0.00    +0.292 HD
ENDBRANCH  10  19
TORSDOF 2
