REMARK  Name = 444150
REMARK  9 active torsions:
REMARK  status: ('A' for Active; 'I' for Inactive)
REMARK    1  A    between atoms: C_1  and  C_3
REMARK    2  A    between atoms: C_1  and  O_12
REMARK    3  A    between atoms: C_1  and  C_14
REMARK    4  A    between atoms: C_14  and  O_15
REMARK    5  A    between atoms: C_14  and  C_17
REMARK    6  A    between atoms: C_17  and  O_18
REMARK    7  A    between atoms: O_18  and  P_19
REMARK    8  A    between atoms: P_19  and  O_21
REMARK    9  A    between atoms: P_19  and  O_23
REMARK                            x       y       z     vdW  Elec       q    Type
REMARK                         _______ _______ _______ _____ _____    ______ ____
ROOT
ATOM      1  C   UNL     1       0.398   1.915  -0.937  0.00  0.00    +0.163 C 
ENDROOT
BRANCH   1   3
ATOM      2  N   UNL     1       2.878   0.687   1.445  0.00  0.00    -0.312 N 
ATOM      3  C   UNL     1       1.384   1.177  -0.122  0.00  0.00    +0.023 C 
ATOM      4  C   UNL     1       1.809  -0.167  -0.317  0.00  0.00    +0.013 C 
ATOM      5  C   UNL     1       2.746  -0.449   0.679  0.00  0.00    +0.048 C 
ATOM      6  C   UNL     1       2.059   1.675   0.968  0.00  0.00    +0.060 C 
ATOM      7  C   UNL     1       1.486  -1.174  -1.248  0.00  0.00    +0.001 C 
ATOM      8  C   UNL     1       3.378  -1.693   0.792  0.00  0.00    +0.015 C 
ATOM      9  C   UNL     1       2.110  -2.423  -1.148  0.00  0.00    +0.000 C 
ATOM     10  C   UNL     1       3.042  -2.676  -0.143  0.00  0.00    +0.001 C 
ATOM     11  H   UNL     1       3.475   0.777   2.223  0.00  0.00    +0.152 HD
ENDBRANCH   1   3
BRANCH   1  12
ATOM     12  O   UNL     1       0.701   3.322  -1.069  0.00  0.00    -0.377 OA
ATOM     13  H   UNL     1       1.620   3.429  -1.360  0.00  0.00    +0.211 HD
ENDBRANCH   1  12
BRANCH   1  14
ATOM     14  C   UNL     1      -1.083   1.836  -0.471  0.00  0.00    +0.172 C 
BRANCH  14  15
ATOM     15  O   UNL     1      -1.201   2.463   0.807  0.00  0.00    -0.379 OA
ATOM     16  H   UNL     1      -0.873   3.375   0.751  0.00  0.00    +0.211 HD
ENDBRANCH  14  15
BRANCH  14  17
ATOM     17  C   UNL     1      -1.601   0.403  -0.376  0.00  0.00    +0.186 C 
BRANCH  17  18
ATOM     18  O   UNL     1      -2.948   0.433   0.084  0.00  0.00    -0.271 OA
BRANCH  18  19
ATOM     19  P   UNL     1      -3.725  -0.971   0.270  0.00  0.00    +0.473 P 
ATOM     20  O   UNL     1      -5.140  -0.857   0.757  0.00  0.00    -0.227 OA
BRANCH  19  21
ATOM     21  O   UNL     1      -2.737  -1.837   1.212  0.00  0.00    -0.303 OA
ATOM     22  H   UNL     1      -1.850  -1.856   0.820  0.00  0.00    +0.222 HD
ENDBRANCH  19  21
BRANCH  19  23
ATOM     23  O   UNL     1      -3.556  -1.664  -1.182  0.00  0.00    -0.303 OA
ATOM     24  H   UNL     1      -2.616  -1.697  -1.417  0.00  0.00    +0.222 HD
ENDBRANCH  19  23
ENDBRANCH  18  19
ENDBRANCH  17  18
ENDBRANCH  14  17
ENDBRANCH   1  14
TORSDOF 9
