REMARK  Name = 46936944
REMARK  8 active torsions:
REMARK  status: ('A' for Active; 'I' for Inactive)
REMARK    1  A    between atoms: C_1  and  C_14
REMARK    2  A    between atoms: C_2  and  C_7
REMARK    3  A    between atoms: C_7  and  N_8
REMARK    4  A    between atoms: N_8  and  C_11
REMARK    5  A    between atoms: C_14  and  CA_15
REMARK    6  A    between atoms: CA_15  and  N_16
REMARK    7  A    between atoms: CA_15  and  C_21
REMARK    8  A    between atoms: C_21  and  O_22
REMARK                            x       y       z     vdW  Elec       q    Type
REMARK                         _______ _______ _______ _____ _____    ______ ____
ROOT
ATOM      1  C   UNL     1      -1.342  -0.972  -0.313  0.00  0.00    -0.024 C 
ATOM      2  C   UNL     1       1.410  -0.622  -0.601  0.00  0.00    -0.044 C 
ATOM      3  C   UNL     1      -0.846  -0.142  -1.319  0.00  0.00    -0.005 C 
ATOM      4  C   UNL     1      -0.462  -1.627   0.549  0.00  0.00    -0.005 C 
ATOM      5  C   UNL     1       0.530   0.033  -1.463  0.00  0.00    -0.007 C 
ATOM      6  C   UNL     1       0.914  -1.451   0.405  0.00  0.00    -0.007 C 
ENDROOT
BRANCH   2   7
ATOM      7  C   UNL     1       2.882  -0.431  -0.753  0.00  0.00    -0.054 C 
BRANCH   7   8
ATOM      8  N   UNL     1       3.435   0.467   0.262  0.00  0.00    +0.388 N 
ATOM      9  H   UNL     1       2.990   1.380   0.180  0.00  0.00    -0.084 HD
ATOM     10  H   UNL     1       3.258   0.068   1.184  0.00  0.00    -0.084 HD
BRANCH   8  11
ATOM     11  C   UNL     1       4.871   0.618   0.086  0.00  0.00    -0.062 C 
ATOM     12  C   UNL     1       5.606  -0.581   0.679  0.00  0.00    -0.023 C 
ATOM     13  C   UNL     1       5.328   1.919   0.738  0.00  0.00    -0.023 C 
ENDBRANCH   8  11
ENDBRANCH   7   8
ENDBRANCH   2   7
BRANCH   1  14
ATOM     14  C   UNL     1      -2.834  -1.162  -0.157  0.00  0.00    +0.015 C 
BRANCH  14  15
ATOM     15  CA  UNL     1      -3.470  -0.133   0.790  0.00  0.00    +0.040 C 
BRANCH  15  16
ATOM     16  N   UNL     1      -4.756  -0.633   1.271  0.00  0.00    +0.389 N 
ATOM     17  H1  UNL     1      -4.617  -1.524   1.749  0.00  0.00    -0.088 HD
ATOM     18  H2  UNL     1      -5.387  -0.766   0.481  0.00  0.00    -0.088 HD
ATOM     19  H3  UNL     1      -5.161   0.041   1.921  0.00  0.00    -0.088 HD
ENDBRANCH  15  16
BRANCH  15  21
ATOM     20  OXT UNL     1      -4.783   1.456  -0.508  0.00  0.00    -0.253 OA
ATOM     21  C   UNL     1      -3.751   1.188   0.094  0.00  0.00    +0.293 C 
BRANCH  21  22
ATOM     22  O   UNL     1      -2.732   2.075   0.239  0.00  0.00    -0.482 OA
ATOM     23  H   UNL     1      -1.960   1.828   0.708  0.00  0.00    +0.295 HD
ENDBRANCH  21  22
ENDBRANCH  15  21
ENDBRANCH  14  15
ENDBRANCH   1  14
TORSDOF 8
