REMARK  Name = 9955116
REMARK  10 active torsions:
REMARK  status: ('A' for Active; 'I' for Inactive)
REMARK    1  A    between atoms: C_5  and  N_21
REMARK    2  A    between atoms: C_6  and  N_29
REMARK    3  A    between atoms: C_13  and  O_17
REMARK    4  A    between atoms: C_14  and  O_19
REMARK    5  A    between atoms: N_21  and  C_23
REMARK    6  A    between atoms: C_23  and  C_24
REMARK    7  A    between atoms: C_24  and  N_26
REMARK    8  A    between atoms: N_29  and  C_31
REMARK    9  A    between atoms: C_31  and  C_32
REMARK   10  A    between atoms: C_32  and  N_34
REMARK                            x       y       z     vdW  Elec       q    Type
REMARK                         _______ _______ _______ _____ _____    ______ ____
ROOT
ATOM      1  O   UNL     1       2.671   1.772  -0.056  0.00  0.00    -0.286 OA
ATOM      2  O   UNL     1      -2.671   1.771   0.055  0.00  0.00    -0.286 OA
ATOM      3  C   UNL     1       0.698   0.486  -0.016  0.00  0.00    +0.056 C 
ATOM      4  C   UNL     1      -0.698   0.486   0.013  0.00  0.00    +0.056 C 
ATOM      5  C   UNL     1       1.396  -0.728  -0.032  0.00  0.00    +0.048 C 
ATOM      6  C   UNL     1      -1.396  -0.728   0.028  0.00  0.00    +0.048 C 
ATOM      7  C   UNL     1       1.447   1.759  -0.031  0.00  0.00    +0.200 C 
ATOM      8  C   UNL     1      -1.447   1.759   0.030  0.00  0.00    +0.200 C 
ATOM      9  C   UNL     1       0.698   3.032  -0.015  0.00  0.00    +0.079 C 
ATOM     10  C   UNL     1      -0.698   3.032   0.015  0.00  0.00    +0.079 C 
ATOM     11  C   UNL     1       0.697  -1.935  -0.017  0.00  0.00    +0.016 C 
ATOM     12  C   UNL     1      -0.696  -1.935   0.012  0.00  0.00    +0.016 C 
ATOM     13  C   UNL     1       1.396   4.246  -0.028  0.00  0.00    +0.137 C 
ATOM     14  C   UNL     1      -1.396   4.245   0.030  0.00  0.00    +0.137 C 
ATOM     15  C   UNL     1       0.696   5.452  -0.013  0.00  0.00    +0.040 C 
ATOM     16  C   UNL     1      -0.697   5.452   0.016  0.00  0.00    +0.040 C 
ENDROOT
BRANCH  13  17
ATOM     17  O   UNL     1       2.757   4.322  -0.055  0.00  0.00    -0.505 OA
ATOM     18  H   UNL     1       3.270   3.538  -0.066  0.00  0.00    +0.292 HD
ENDBRANCH  13  17
BRANCH  14  19
ATOM     19  O   UNL     1      -2.758   4.321   0.056  0.00  0.00    -0.505 OA
ATOM     20  H   UNL     1      -3.271   3.537   0.066  0.00  0.00    +0.292 HD
ENDBRANCH  14  19
BRANCH   5  21
ATOM     21  N   UNL     1       2.807  -0.812  -0.060  0.00  0.00    -0.334 N 
ATOM     22  H   UNL     1       3.332   0.021  -0.070  0.00  0.00    +0.147 HD
BRANCH  21  23
ATOM     23  C   UNL     1       3.495  -2.051  -0.073  0.00  0.00    +0.070 C 
BRANCH  23  24
ATOM     24  C   UNL     1       4.994  -1.821  -0.053  0.00  0.00    -0.006 C 
BRANCH  24  26
ATOM     25  O   UNL     1       5.401  -3.894  -1.067  0.00  0.00    -0.290 OA
ATOM     26  N   UNL     1       5.727  -3.108   0.016  0.00  0.00    +0.429 N 
ATOM     27  C   UNL     1       5.363  -3.853   1.276  0.00  0.00    -0.045 C 
ATOM     28  C   UNL     1       7.216  -2.865   0.002  0.00  0.00    -0.045 C 
ENDBRANCH  24  26
ENDBRANCH  23  24
ENDBRANCH  21  23
ENDBRANCH   5  21
BRANCH   6  29
ATOM     29  N   UNL     1      -2.807  -0.812   0.058  0.00  0.00    -0.334 N 
ATOM     30  H   UNL     1      -3.332   0.021   0.070  0.00  0.00    +0.147 HD
BRANCH  29  31
ATOM     31  C   UNL     1      -3.495  -2.052   0.072  0.00  0.00    +0.070 C 
BRANCH  31  32
ATOM     32  C   UNL     1      -4.993  -1.821   0.054  0.00  0.00    -0.006 C 
BRANCH  32  34
ATOM     33  O   UNL     1      -5.399  -3.895   1.069  0.00  0.00    -0.290 OA
ATOM     34  N   UNL     1      -5.727  -3.108  -0.013  0.00  0.00    +0.429 N 
ATOM     35  C   UNL     1      -5.365  -3.853  -1.274  0.00  0.00    -0.045 C 
ATOM     36  C   UNL     1      -7.215  -2.865   0.003  0.00  0.00    -0.045 C 
ENDBRANCH  32  34
ENDBRANCH  31  32
ENDBRANCH  29  31
ENDBRANCH   6  29
TORSDOF 10
