REMARK  Name = 11840929
REMARK  4 active torsions:
REMARK  status: ('A' for Active; 'I' for Inactive)
REMARK    1  A    between atoms: C_2  and  C_9
REMARK    2  A    between atoms: C_9  and  C_10
REMARK    3  A    between atoms: C_10  and  C_11
REMARK    4  A    between atoms: C_11  and  C_13
REMARK                            x       y       z     vdW  Elec       q    Type
REMARK                         _______ _______ _______ _____ _____    ______ ____
ROOT
ATOM      1  N   UNL     1      -3.542  -0.636   0.277  0.00  0.00    +0.384 N 
ATOM      2  C   UNL     1      -0.851   0.395  -0.291  0.00  0.00    -0.004 C 
ATOM      3  C   UNL     1      -1.086  -0.958   0.393  0.00  0.00    -0.023 C 
ATOM      4  C   UNL     1      -2.051   1.319  -0.047  0.00  0.00    -0.023 C 
ATOM      5  C   UNL     1      -2.436  -1.553  -0.008  0.00  0.00    -0.082 C 
ATOM      6  C   UNL     1      -3.363   0.635  -0.430  0.00  0.00    -0.082 C 
ATOM      7  H   UNL     1      -3.577  -0.457   1.281  0.00  0.00    -0.085 HD
ATOM      8  H   UNL     1      -4.411  -1.065  -0.040  0.00  0.00    -0.085 HD
ENDROOT
BRANCH   2   9
ATOM      9  C   UNL     1       0.444   1.038   0.196  0.00  0.00    +0.000 C 
BRANCH   9  10
ATOM     10  C   UNL     1       1.654   0.169  -0.137  0.00  0.00    +0.008 C 
BRANCH  10  11
ATOM     11  C   UNL     1       2.942   0.797   0.384  0.00  0.00    +0.072 C 
BRANCH  11  13
ATOM     12  O   UNL     1       4.132  -1.151  -0.444  0.00  0.00    -0.288 OA
ATOM     13  C   UNL     1       4.157  -0.055   0.106  0.00  0.00    +0.207 C 
ENDBRANCH  11  13
ENDBRANCH  10  11
ENDBRANCH   9  10
ENDBRANCH   2   9
TORSDOF 4
