REMARK  Name = 5459784
REMARK  9 active torsions:
REMARK  status: ('A' for Active; 'I' for Inactive)
REMARK    1  A    between atoms: C_1  and  C_3
REMARK    2  A    between atoms: C_1  and  C_6
REMARK    3  A    between atoms: C_1  and  C_14
REMARK    4  A    between atoms: C_3  and  O_4
REMARK    5  A    between atoms: C_6  and  O_8
REMARK    6  A    between atoms: C_6  and  C_11
REMARK    7  A    between atoms: C_11  and  O_12
REMARK    8  A    between atoms: C_14  and  C_16
REMARK    9  A    between atoms: C_16  and  O_17
REMARK                            x       y       z     vdW  Elec       q    Type
REMARK                         _______ _______ _______ _____ _____    ______ ____
ROOT
ATOM      1  C   UNL     1      -0.157   0.209  -0.170  0.00  0.00    +0.145 C 
ENDROOT
BRANCH   1   3
ATOM      2  O   UNL     1      -0.397  -1.748   1.254  0.00  0.00    -0.250 OA
ATOM      3  C   UNL     1      -0.358  -1.270   0.128  0.00  0.00    +0.317 C 
BRANCH   3   4
ATOM      4  O   UNL     1      -0.509  -2.004  -1.002  0.00  0.00    -0.480 OA
ATOM      5  H   UNL     1      -0.470  -1.586  -1.840  0.00  0.00    +0.295 HD
ENDBRANCH   3   4
ENDBRANCH   1   3
BRANCH   1   6
ATOM      6  C   UNL     1       1.229   0.708   0.322  0.00  0.00    +0.187 C 
ATOM      7  C   UNL     1       1.436   2.212   0.099  0.00  0.00    +0.041 C 
BRANCH   6   8
ATOM      8  O   UNL     1       1.363   0.446   1.718  0.00  0.00    -0.376 OA
ATOM      9  H   UNL     1       0.667   0.916   2.204  0.00  0.00    +0.211 HD
ENDBRANCH   6   8
BRANCH   6  11
ATOM     10  O   UNL     1       3.144  -0.805   0.198  0.00  0.00    -0.248 OA
ATOM     11  C   UNL     1       2.353  -0.060  -0.365  0.00  0.00    +0.339 C 
BRANCH  11  12
ATOM     12  O   UNL     1       2.383   0.182  -1.700  0.00  0.00    -0.479 OA
ATOM     13  H   UNL     1       1.754   0.761  -2.085  0.00  0.00    +0.295 HD
ENDBRANCH  11  12
ENDBRANCH   6  11
ENDBRANCH   1   6
BRANCH   1  14
ATOM     14  C   UNL     1      -1.360   1.003   0.391  0.00  0.00    +0.123 C 
BRANCH  14  16
ATOM     15  O   UNL     1      -3.608   0.087   0.640  0.00  0.00    -0.250 OA
ATOM     16  C   UNL     1      -2.704   0.487  -0.080  0.00  0.00    +0.314 C 
BRANCH  16  17
ATOM     17  O   UNL     1      -2.815   0.553  -1.433  0.00  0.00    -0.480 OA
ATOM     18  H   UNL     1      -2.098   0.866  -1.948  0.00  0.00    +0.295 HD
ENDBRANCH  16  17
ENDBRANCH  14  16
ENDBRANCH   1  14
TORSDOF 9
