REMARK  Name = 446586
REMARK  5 active torsions:
REMARK  status: ('A' for Active; 'I' for Inactive)
REMARK    1  A    between atoms: C_2  and  O_7
REMARK    2  A    between atoms: C_3  and  O_9
REMARK    3  A    between atoms: C_4  and  C_13
REMARK    4  A    between atoms: C_6  and  O_11
REMARK    5  A    between atoms: C_13  and  O_14
REMARK                            x       y       z     vdW  Elec       q    Type
REMARK                         _______ _______ _______ _____ _____    ______ ____
ROOT
ATOM      1  O   UNL     1       0.819  -0.771   0.656  0.00  0.00    -0.328 OA
ATOM      2  C   UNL     1      -0.322   1.120  -0.378  0.00  0.00    +0.167 C 
ATOM      3  C   UNL     1      -1.592   0.276  -0.499  0.00  0.00    +0.145 C 
ATOM      4  C   UNL     1       0.914   0.211  -0.385  0.00  0.00    +0.176 C 
ATOM      5  C   UNL     1      -1.620  -0.826   0.559  0.00  0.00    +0.093 C 
ATOM      6  C   UNL     1      -0.320  -1.628   0.545  0.00  0.00    +0.234 C 
ENDROOT
BRANCH   2   7
ATOM      7  O   UNL     1      -0.361   1.887   0.828  0.00  0.00    -0.379 OA
ATOM      8  H   UNL     1      -1.145   2.458   0.823  0.00  0.00    +0.211 HD
ENDBRANCH   2   7
BRANCH   3   9
ATOM      9  O   UNL     1      -2.737   1.110  -0.372  0.00  0.00    -0.382 OA
ATOM     10  H   UNL     1      -2.708   1.805  -1.048  0.00  0.00    +0.210 HD
ENDBRANCH   3   9
BRANCH   6  11
ATOM     11  O   UNL     1      -0.275  -2.443  -0.623  0.00  0.00    -0.360 OA
ATOM     12  H   UNL     1       0.551  -2.952  -0.630  0.00  0.00    +0.213 HD
ENDBRANCH   6  11
BRANCH   4  13
ATOM     13  C   UNL     1       2.206   0.988  -0.160  0.00  0.00    +0.169 C 
BRANCH  13  14
ATOM     14  O   UNL     1       3.289   0.076  -0.170  0.00  0.00    -0.379 OA
ATOM     15  H   UNL     1       4.119   0.557  -0.028  0.00  0.00    +0.211 HD
ENDBRANCH  13  14
ENDBRANCH   4  13
TORSDOF 5
