REMARK  Name = 4358
REMARK  5 active torsions:
REMARK  status: ('A' for Active; 'I' for Inactive)
REMARK    1  A    between atoms: N_2  and  C_7
REMARK    2  A    between atoms: N_3  and  C_13
REMARK    3  A    between atoms: C_13  and  C_14
REMARK    4  A    between atoms: C_14  and  C_15
REMARK    5  A    between atoms: C_15  and  C_16
REMARK                            x       y       z     vdW  Elec       q    Type
REMARK                         _______ _______ _______ _____ _____    ______ ____
ROOT
ATOM      1  O   UNL     1      -1.542  -1.849   1.563  0.00  0.00    -0.253 OA
ATOM      2  N   UNL     1      -2.606  -0.746  -0.181  0.00  0.00    -0.291 N 
ATOM      3  N   UNL     1      -0.614  -1.827  -0.563  0.00  0.00    -0.289 N 
ATOM      4  C   UNL     1      -1.584  -1.505   0.383  0.00  0.00    +0.301 C 
ATOM      5  H   UNL     1      -2.550  -0.521  -1.138  0.00  0.00    +0.151 HD
ATOM      6  H   UNL     1      -0.732  -1.507  -1.486  0.00  0.00    +0.151 HD
ENDROOT
BRANCH   2   7
ATOM      7  C   UNL     1      -3.747  -0.272   0.571  0.00  0.00    +0.073 C 
ATOM      8  C   UNL     1      -4.997  -0.200  -0.311  0.00  0.00    +0.020 C 
ATOM      9  C   UNL     1      -3.450   1.082   1.226  0.00  0.00    +0.020 C 
ATOM     10  C   UNL     1      -4.933   0.942  -1.325  0.00  0.00    +0.002 C 
ATOM     11  C   UNL     1      -3.388   2.222   0.209  0.00  0.00    +0.002 C 
ATOM     12  C   UNL     1      -4.648   2.280  -0.649  0.00  0.00    +0.000 C 
ENDBRANCH   2   7
BRANCH   3  13
ATOM     13  C   UNL     1       0.558  -2.608  -0.246  0.00  0.00    +0.091 C 
BRANCH  13  14
ATOM     14  C   UNL     1       1.737  -1.746   0.201  0.00  0.00    +0.026 C 
BRANCH  14  15
ATOM     15  C   UNL     1       2.224  -0.741  -0.851  0.00  0.00    +0.028 C 
BRANCH  15  16
ATOM     16  C   UNL     1       3.411   0.078  -0.409  0.00  0.00    -0.022 C 
ATOM     17  C   UNL     1       3.202   1.283   0.244  0.00  0.00    -0.004 C 
ATOM     18  C   UNL     1       4.692  -0.388  -0.663  0.00  0.00    -0.004 C 
ATOM     19  C   UNL     1       4.300   2.041   0.652  0.00  0.00    -0.000 C 
ATOM     20  C   UNL     1       5.790   0.369  -0.255  0.00  0.00    -0.000 C 
ATOM     21  C   UNL     1       5.594   1.584   0.403  0.00  0.00    -0.000 C 
ENDBRANCH  15  16
ENDBRANCH  14  15
ENDBRANCH  13  14
ENDBRANCH   3  13
TORSDOF 5
