REMARK  Name = 6505368
REMARK  8 active torsions:
REMARK  status: ('A' for Active; 'I' for Inactive)
REMARK    1  A    between atoms: C_2  and  O_18
REMARK    2  A    between atoms: C_3  and  C_20
REMARK    3  A    between atoms: C_5  and  N_8
REMARK    4  A    between atoms: C_12  and  C_16
REMARK    5  A    between atoms: C_20  and  O_21
REMARK    6  A    between atoms: O_21  and  P_22
REMARK    7  A    between atoms: P_22  and  O_24
REMARK    8  A    between atoms: P_22  and  O_26
REMARK                            x       y       z     vdW  Elec       q    Type
REMARK                         _______ _______ _______ _____ _____    ______ ____
ROOT
ATOM      1  O   UNL     1       0.338  -1.575   0.984  0.00  0.00    -0.335 OA
ATOM      2  C   UNL     1       0.904  -3.111  -0.731  0.00  0.00    +0.144 C 
ATOM      3  C   UNL     1       1.464  -2.084   0.244  0.00  0.00    +0.174 C 
ATOM      4  C   UNL     1      -0.495  -2.606  -0.994  0.00  0.00    +0.083 C 
ATOM      5  C   UNL     1      -0.877  -1.985   0.340  0.00  0.00    +0.202 C 
ENDROOT
BRANCH   5   8
ATOM      6  O   UNL     1      -3.691  -2.115   0.449  0.00  0.00    -0.252 OA
ATOM      7  O   UNL     1      -4.136   2.409  -0.219  0.00  0.00    -0.270 OA
ATOM      8  N   UNL     1      -1.744  -0.852   0.197  0.00  0.00    -0.219 N 
ATOM      9  N   UNL     1      -3.893   0.145   0.115  0.00  0.00    -0.236 N 
ATOM     10  C   UNL     1      -1.203   0.411  -0.009  0.00  0.00    +0.076 C 
ATOM     11  C   UNL     1      -3.143  -1.026   0.268  0.00  0.00    +0.315 C 
ATOM     12  C   UNL     1      -1.922   1.533  -0.154  0.00  0.00    +0.069 C 
ATOM     13  C   UNL     1      -3.407   1.427  -0.093  0.00  0.00    +0.254 C 
ATOM     14  H   UNL     1      -4.871   0.048   0.160  0.00  0.00    +0.159 HD
BRANCH  12  16
ATOM     15 BR   UNL     1       0.734   4.764  -0.141  0.00  0.00    -0.048 Br
ATOM     16  C   UNL     1      -1.298   2.814  -0.366  0.00  0.00    +0.013 C 
ATOM     17  C   UNL     1      -0.094   3.124   0.116  0.00  0.00    +0.041 C 
ENDBRANCH  12  16
ENDBRANCH   5   8
BRANCH   2  18
ATOM     18  O   UNL     1       0.843  -4.391  -0.105  0.00  0.00    -0.382 OA
ATOM     19  H   UNL     1       1.743  -4.712   0.063  0.00  0.00    +0.210 HD
ENDBRANCH   2  18
BRANCH   3  20
ATOM     20  C   UNL     1       2.136  -0.909  -0.454  0.00  0.00    +0.186 C 
BRANCH  20  21
ATOM     21  O   UNL     1       2.614  -0.004   0.528  0.00  0.00    -0.271 OA
BRANCH  21  22
ATOM     22  P   UNL     1       3.928   0.878   0.190  0.00  0.00    +0.473 P 
ATOM     23  O   UNL     1       4.365   1.808   1.283  0.00  0.00    -0.227 OA
BRANCH  22  24
ATOM     24  O   UNL     1       3.562   1.587  -1.217  0.00  0.00    -0.303 OA
ATOM     25  H   UNL     1       3.292   0.912  -1.859  0.00  0.00    +0.222 HD
ENDBRANCH  22  24
BRANCH  22  26
ATOM     26  O   UNL     1       5.015  -0.243  -0.230  0.00  0.00    -0.303 OA
ATOM     27  H   UNL     1       4.652  -0.797  -0.938  0.00  0.00    +0.222 HD
ENDBRANCH  22  26
ENDBRANCH  21  22
ENDBRANCH  20  21
ENDBRANCH   3  20
TORSDOF 8
