REMARK  Name = 1509
REMARK  2 active torsions:
REMARK  status: ('A' for Active; 'I' for Inactive)
REMARK    1  A    between atoms: C_5  and  C_14
REMARK    2  A    between atoms: C_7  and  C_22
REMARK                            x       y       z     vdW  Elec       q    Type
REMARK                         _______ _______ _______ _____ _____    ______ ____
ROOT
ATOM      1  N   UNL     1       0.308   0.614   0.198  0.00  0.00    -0.314 N 
ATOM      2  N   UNL     1       0.460  -1.555  -0.266  0.00  0.00    -0.314 N 
ATOM      3  C   UNL     1      -0.985   0.171   0.089  0.00  0.00    +0.059 C 
ATOM      4  C   UNL     1      -0.864  -1.185  -0.201  0.00  0.00    +0.059 C 
ATOM      5  C   UNL     1       1.134  -0.453  -0.022  0.00  0.00    +0.172 C 
ATOM      6  C   UNL     1      -2.213   0.822   0.215  0.00  0.00    +0.018 C 
ATOM      7  C   UNL     1      -3.360   0.041   0.035  0.00  0.00    +0.030 C 
ATOM      8  C   UNL     1      -2.027  -1.954  -0.379  0.00  0.00    +0.016 C 
ATOM      9  C   UNL     1      -3.271  -1.322  -0.257  0.00  0.00    +0.004 C 
ATOM     10  H   UNL     1       0.591   1.535   0.399  0.00  0.00    +0.149 HD
ATOM     11  H   UNL     1       0.823  -2.450  -0.455  0.00  0.00    +0.149 HD
ENDROOT
BRANCH   5  14
ATOM     12  O   UNL     1       2.394   2.052  -0.693  0.00  0.00    -0.270 OA
ATOM     13  N   UNL     1       4.491   1.245  -0.196  0.00  0.00    -0.280 N 
ATOM     14  C   UNL     1       2.542  -0.217   0.045  0.00  0.00    +0.068 C 
ATOM     15  C   UNL     1       3.113   1.130  -0.315  0.00  0.00    +0.249 C 
ATOM     16  C   UNL     1       3.380  -1.193   0.438  0.00  0.00    +0.005 C 
ATOM     17  C   UNL     1       4.804  -0.975   0.523  0.00  0.00    +0.016 C 
ATOM     18  C   UNL     1       5.309   0.222   0.209  0.00  0.00    +0.064 C 
ATOM     19  H   UNL     1       4.905   2.110  -0.416  0.00  0.00    +0.155 HD
ENDBRANCH   5  14
BRANCH   7  22
ATOM     20  N   UNL     1      -4.772   1.968   0.436  0.00  0.00    -0.345 N 
ATOM     21  N   UNL     1      -5.779  -0.069  -0.015  0.00  0.00    -0.387 N 
ATOM     22  C   UNL     1      -4.663   0.659   0.154  0.00  0.00    +0.096 C 
ATOM     23  H   UNL     1      -5.661   2.382   0.515  0.00  0.00    +0.144 HD
ATOM     24  H   UNL     1      -3.962   2.513   0.563  0.00  0.00    +0.144 HD
ATOM     25  H   UNL     1      -6.662   0.358   0.067  0.00  0.00    +0.157 HD
ATOM     26  H   UNL     1      -5.714  -1.029  -0.220  0.00  0.00    +0.157 HD
ENDBRANCH   7  22
TORSDOF 2
