REMARK  Name = 5641
REMARK  2 active torsions:
REMARK  status: ('A' for Active; 'I' for Inactive)
REMARK    1  A    between atoms: C_3  and  O_6
REMARK    2  A    between atoms: O_6  and  C_7
REMARK                            x       y       z     vdW  Elec       q    Type
REMARK                         _______ _______ _______ _____ _____    ______ ____
ROOT
ATOM      1  O   UNL     1       1.272  -1.236   0.000  0.00  0.00    -0.227 OA
ATOM      2  N   UNL     1       1.944   0.963   0.000  0.00  0.00    -0.295 N 
ATOM      3  C   UNL     1       1.005  -0.039   0.000  0.00  0.00    +0.398 C 
ATOM      4  H   UNL     1       1.658   1.905   0.000  0.00  0.00    +0.148 HD
ATOM      5  H   UNL     1       2.903   0.740   0.000  0.00  0.00    +0.148 HD
ENDROOT
BRANCH   3   6
ATOM      6  O   UNL     1      -0.253   0.489   0.000  0.00  0.00    -0.435 OA
BRANCH   6   7
ATOM      7  C   UNL     1      -1.325  -0.461   0.000  0.00  0.00    +0.210 C 
ATOM      8  C   UNL     1      -2.643   0.283   0.000  0.00  0.00    +0.051 C 
ENDBRANCH   6   7
ENDBRANCH   3   6
TORSDOF 2
