REMARK  Name = 446324
REMARK  6 active torsions:
REMARK  status: ('A' for Active; 'I' for Inactive)
REMARK    1  A    between atoms: C_1  and  N_13
REMARK    2  A    between atoms: C_2  and  N_8
REMARK    3  A    between atoms: C_4  and  C_20
REMARK    4  A    between atoms: C_14  and  C_16
REMARK    5  A    between atoms: C_16  and  O_17
REMARK    6  A    between atoms: C_20  and  O_21
REMARK                            x       y       z     vdW  Elec       q    Type
REMARK                         _______ _______ _______ _____ _____    ______ ____
ROOT
ATOM      1  C   UNL     1       0.047   0.318  -0.001  0.00  0.00    +0.064 C 
ATOM      2  C   UNL     1      -1.207  -0.294  -0.001  0.00  0.00    +0.064 C 
ATOM      3  C   UNL     1       1.203  -0.462  -0.001  0.00  0.00    +0.022 C 
ATOM      4  C   UNL     1       1.107  -1.853   0.000  0.00  0.00    +0.077 C 
ATOM      5  C   UNL     1      -1.304  -1.686   0.000  0.00  0.00    +0.016 C 
ATOM      6  C   UNL     1      -0.147  -2.465   0.000  0.00  0.00    +0.008 C 
ENDROOT
BRANCH   2   8
ATOM      7  O   UNL     1      -4.092  -1.154   0.004  0.00  0.00    -0.275 OA
ATOM      8  N   UNL     1      -2.380   0.466  -0.001  0.00  0.00    -0.283 N 
ATOM      9  C   UNL     1      -3.703   0.009   0.000  0.00  0.00    +0.227 C 
ATOM     10  C   UNL     1      -4.687   1.152  -0.001  0.00  0.00    +0.095 C 
ATOM     11  H   UNL     1      -2.261   1.443  -0.001  0.00  0.00    +0.155 HD
ENDBRANCH   2   8
BRANCH   1  13
ATOM     12  O   UNL     1       2.498   2.063   0.004  0.00  0.00    -0.272 OA
ATOM     13  N   UNL     1       0.168   1.711  -0.002  0.00  0.00    -0.281 N 
ATOM     14  C   UNL     1       1.341   2.474  -0.002  0.00  0.00    +0.256 C 
ATOM     15  H   UNL     1      -0.676   2.217  -0.001  0.00  0.00    +0.155 HD
BRANCH  14  16
ATOM     16  C   UNL     1       1.054   3.960  -0.002  0.00  0.00    +0.223 C 
BRANCH  16  17
ATOM     17  O   UNL     1       2.281   4.661   0.003  0.00  0.00    -0.374 OA
ATOM     18  H   UNL     1       2.107   5.615   0.003  0.00  0.00    +0.211 HD
ENDBRANCH  16  17
ENDBRANCH  14  16
ENDBRANCH   1  13
BRANCH   4  20
ATOM     19  O   UNL     1       3.469  -2.232  -0.001  0.00  0.00    -0.245 OA
ATOM     20  C   UNL     1       2.312  -2.666  -0.001  0.00  0.00    +0.338 C 
BRANCH  20  21
ATOM     21  O   UNL     1       2.040  -4.000   0.001  0.00  0.00    -0.477 OA
ATOM     22  H   UNL     1       1.152  -4.297   0.002  0.00  0.00    +0.295 HD
ENDBRANCH  20  21
ENDBRANCH   4  20
TORSDOF 6
