REMARK  Name = 5459372
REMARK  8 active torsions:
REMARK  status: ('A' for Active; 'I' for Inactive)
REMARK    1  A    between atoms: C_3  and  C_16
REMARK    2  A    between atoms: C_4  and  O_10
REMARK    3  A    between atoms: C_5  and  O_12
REMARK    4  A    between atoms: C_6  and  O_14
REMARK    5  A    between atoms: C_9  and  C_19
REMARK    6  A    between atoms: C_16  and  O_17
REMARK    7  A    between atoms: C_19  and  N_20
REMARK    8  A    between atoms: N_20  and  C_22
REMARK                            x       y       z     vdW  Elec       q    Type
REMARK                         _______ _______ _______ _____ _____    ______ ____
ROOT
ATOM      1  N   UNL     1      -1.850  -0.561   0.256  0.00  0.00    -0.275 N 
ATOM      2  N   UNL     1      -0.188   0.633  -0.594  0.00  0.00    -0.394 NA
ATOM      3  C   UNL     1      -3.211  -0.946   0.617  0.00  0.00    +0.134 C 
ATOM      4  C   UNL     1      -4.174   0.263   0.583  0.00  0.00    +0.161 C 
ATOM      5  C   UNL     1      -3.921   1.220  -0.594  0.00  0.00    +0.174 C 
ATOM      6  C   UNL     1      -2.462   1.688  -0.683  0.00  0.00    +0.207 C 
ATOM      7  C   UNL     1      -1.487   0.606  -0.370  0.00  0.00    +0.189 C 
ATOM      8  C   UNL     1      -0.719  -1.293   0.474  0.00  0.00    +0.149 C 
ATOM      9  C   UNL     1       0.294  -0.540  -0.072  0.00  0.00    +0.128 C 
ENDROOT
BRANCH   4  10
ATOM     10  O   UNL     1      -4.065   0.983   1.814  0.00  0.00    -0.380 OA
ATOM     11  H   UNL     1      -4.225   0.380   2.557  0.00  0.00    +0.211 HD
ENDBRANCH   4  10
BRANCH   5  12
ATOM     12  O   UNL     1      -4.292   0.576  -1.810  0.00  0.00    -0.379 OA
ATOM     13  H   UNL     1      -5.214   0.281  -1.751  0.00  0.00    +0.211 HD
ENDBRANCH   5  12
BRANCH   6  14
ATOM     14  O   UNL     1      -2.248   2.717   0.280  0.00  0.00    -0.374 OA
ATOM     15  H   UNL     1      -2.865   3.448   0.115  0.00  0.00    +0.211 HD
ENDBRANCH   6  14
BRANCH   3  16
ATOM     16  C   UNL     1      -3.693  -2.091  -0.278  0.00  0.00    +0.159 C 
BRANCH  16  17
ATOM     17  O   UNL     1      -4.959  -2.516   0.187  0.00  0.00    -0.380 OA
ATOM     18  H   UNL     1      -5.281  -3.242  -0.370  0.00  0.00    +0.211 HD
ENDBRANCH  16  17
ENDBRANCH   3  16
BRANCH   9  19
ATOM     19  C   UNL     1       1.729  -0.855  -0.134  0.00  0.00    +0.144 C 
BRANCH  19  20
ATOM     20  N   UNL     1       2.650   0.222   0.215  0.00  0.00    -0.327 N 
ATOM     21  H   UNL     1       2.275   1.074   0.536  0.00  0.00    +0.147 HD
BRANCH  20  22
ATOM     22  C   UNL     1       4.019   0.104   0.118  0.00  0.00    +0.045 C 
ATOM     23  C   UNL     1       4.619  -1.091  -0.334  0.00  0.00    +0.014 C 
ATOM     24  C   UNL     1       4.871   1.174   0.468  0.00  0.00    +0.014 C 
ATOM     25  C   UNL     1       6.005  -1.211  -0.432  0.00  0.00    +0.001 C 
ATOM     26  C   UNL     1       6.258   1.054   0.370  0.00  0.00    +0.001 C 
ATOM     27  C   UNL     1       6.824  -0.138  -0.081  0.00  0.00    +0.000 C 
ENDBRANCH  20  22
ENDBRANCH  19  20
ENDBRANCH   9  19
TORSDOF 8
