REMARK  Name = 448012
REMARK  11 active torsions:
REMARK  status: ('A' for Active; 'I' for Inactive)
REMARK    1  A    between atoms: P_1  and  O_3
REMARK    2  A    between atoms: P_1  and  O_5
REMARK    3  A    between atoms: P_1  and  O_14
REMARK    4  A    between atoms: O_5  and  C_6
REMARK    5  A    between atoms: C_6  and  C_7
REMARK    6  A    between atoms: C_7  and  C_8
REMARK    7  A    between atoms: C_8  and  C_11
REMARK    8  A    between atoms: C_8  and  O_12
REMARK    9  A    between atoms: O_14  and  P_15
REMARK   10  A    between atoms: P_15  and  O_17
REMARK   11  A    between atoms: P_15  and  O_19
REMARK                            x       y       z     vdW  Elec       q    Type
REMARK                         _______ _______ _______ _____ _____    ______ ____
ROOT
ATOM      1  P   UNL     1      -1.856  -1.506  -0.150  0.00  0.00    +0.484 P 
ATOM      2  O   UNL     1      -2.880  -1.910  -1.171  0.00  0.00    -0.227 OA
ENDROOT
BRANCH   1   3
ATOM      3  O   UNL     1      -1.621  -2.592   1.026  0.00  0.00    -0.302 OA
ATOM      4  H   UNL     1      -0.949  -2.261   1.642  0.00  0.00    +0.222 HD
ENDBRANCH   1   3
BRANCH   1   5
ATOM      5  O   UNL     1      -0.381  -1.233  -0.751  0.00  0.00    -0.273 OA
BRANCH   5   6
ATOM      6  C   UNL     1       0.676  -0.843   0.119  0.00  0.00    +0.156 C 
BRANCH   6   7
ATOM      7  C   UNL     1       1.954  -0.649  -0.688  0.00  0.00    +0.060 C 
BRANCH   7   8
ATOM      8  C   UNL     1       3.188  -0.191   0.118  0.00  0.00    +0.101 C 
ATOM      9  C   UNL     1       3.467  -1.158   1.278  0.00  0.00    +0.030 C 
BRANCH   8  11
ATOM     10 BR   UNL     1       2.852   2.584  -0.705  0.00  0.00    -0.078 Br
ATOM     11  C   UNL     1       3.104   1.232   0.681  0.00  0.00    +0.094 C 
ENDBRANCH   8  11
BRANCH   8  12
ATOM     12  O   UNL     1       4.330  -0.252  -0.749  0.00  0.00    -0.386 OA
ATOM     13  H   UNL     1       4.198   0.347  -1.500  0.00  0.00    +0.210 HD
ENDBRANCH   8  12
ENDBRANCH   7   8
ENDBRANCH   6   7
ENDBRANCH   5   6
ENDBRANCH   1   5
BRANCH   1  14
ATOM     14  O   UNL     1      -2.224  -0.156   0.660  0.00  0.00    -0.186 OA
BRANCH  14  15
ATOM     15  P   UNL     1      -2.484   1.353   0.144  0.00  0.00    +0.481 P 
ATOM     16  O   UNL     1      -1.324   1.977  -0.575  0.00  0.00    -0.227 OA
BRANCH  15  17
ATOM     17  O   UNL     1      -2.959   2.122   1.483  0.00  0.00    -0.302 OA
ATOM     18  H   UNL     1      -3.709   1.650   1.878  0.00  0.00    +0.222 HD
ENDBRANCH  15  17
BRANCH  15  19
ATOM     19  O   UNL     1      -3.843   1.223  -0.721  0.00  0.00    -0.302 OA
ATOM     20  H   UNL     1      -4.533   0.811  -0.178  0.00  0.00    +0.222 HD
ENDBRANCH  15  19
ENDBRANCH  14  15
ENDBRANCH   1  14
TORSDOF 11
