REMARK  Name = 7249
REMARK  1 active torsions:
REMARK  status: ('A' for Active; 'I' for Inactive)
REMARK    1  A    between atoms: C_7  and  O_9
REMARK                            x       y       z     vdW  Elec       q    Type
REMARK                         _______ _______ _______ _____ _____    ______ ____
ROOT
ATOM      1  C   UNL     1      -0.728  -0.783   0.000  0.00  0.00    -0.023 C 
ATOM      2  C   UNL     1      -1.124   0.554   0.000  0.00  0.00    -0.026 C 
ATOM      3  C   UNL     1       0.629  -1.109   0.000  0.00  0.00    +0.032 C 
ATOM      4  C   UNL     1      -0.164   1.566   0.000  0.00  0.00    -0.001 C 
ATOM      5  C   UNL     1      -1.738  -1.883   0.001  0.00  0.00    +0.031 C 
ATOM      6  C   UNL     1      -2.570   0.927  -0.001  0.00  0.00    +0.031 C 
ATOM      7  C   UNL     1       1.589  -0.097   0.000  0.00  0.00    +0.133 C 
ATOM      8  C   UNL     1       1.193   1.240   0.001  0.00  0.00    +0.036 C 
ENDROOT
BRANCH   7   9
ATOM      9  O   UNL     1       2.912  -0.415  -0.001  0.00  0.00    -0.506 OA
ATOM     10  H   UNL     1       3.179  -1.313  -0.001  0.00  0.00    +0.292 HD
ENDBRANCH   7   9
TORSDOF 1
