REMARK  Name = 657140
REMARK  9 active torsions:
REMARK  status: ('A' for Active; 'I' for Inactive)
REMARK    1  A    between atoms: C_1  and  N_8
REMARK    2  A    between atoms: C_2  and  O_20
REMARK    3  A    between atoms: C_9  and  C_11
REMARK    4  A    between atoms: C_14  and  N_19
REMARK    5  A    between atoms: O_20  and  C_21
REMARK    6  A    between atoms: C_22  and  C_28
REMARK    7  A    between atoms: C_24  and  C_32
REMARK    8  A    between atoms: C_28  and  O_29
REMARK    9  A    between atoms: C_32  and  O_33
REMARK                            x       y       z     vdW  Elec       q    Type
REMARK                         _______ _______ _______ _____ _____    ______ ____
ROOT
ATOM      1  C   UNL     1       0.415  -2.189  -0.136  0.00  0.00    +0.086 C 
ATOM      2  C   UNL     1      -0.786  -2.087  -0.818  0.00  0.00    +0.159 C 
ATOM      3  C   UNL     1       0.717  -3.302   0.632  0.00  0.00    +0.018 C 
ATOM      4  C   UNL     1      -1.712  -3.126  -0.728  0.00  0.00    +0.039 C 
ATOM      5  C   UNL     1      -0.209  -4.341   0.722  0.00  0.00    +0.001 C 
ATOM      6  C   UNL     1      -1.424  -4.253   0.041  0.00  0.00    +0.003 C 
ENDROOT
BRANCH   1   8
ATOM      7  O   UNL     1       3.122  -1.929   1.126  0.00  0.00    -0.270 OA
ATOM      8  N   UNL     1       1.367  -1.143  -0.218  0.00  0.00    -0.278 N 
ATOM      9  C   UNL     1       2.627  -1.060   0.391  0.00  0.00    +0.250 C 
ATOM     10  H   UNL     1       1.109  -0.373  -0.775  0.00  0.00    +0.155 HD
BRANCH   9  11
ATOM     11  C   UNL     1       3.373   0.163   0.141  0.00  0.00    +0.055 C 
ATOM     12  C   UNL     1       4.767   0.151   0.188  0.00  0.00    +0.029 C 
ATOM     13  C   UNL     1       2.695   1.347  -0.148  0.00  0.00    +0.005 C 
ATOM     14  C   UNL     1       5.483   1.324  -0.054  0.00  0.00    +0.143 C 
ATOM     15  C   UNL     1       3.410   2.520  -0.389  0.00  0.00    +0.002 C 
ATOM     16  C   UNL     1       4.804   2.508  -0.342  0.00  0.00    +0.024 C 
BRANCH  14  19
ATOM     17  O   UNL     1       7.526   2.379  -0.230  0.00  0.00    -0.126 OA
ATOM     18  O   UNL     1       7.494   0.238   0.253  0.00  0.00    -0.126 OA
ATOM     19  N   UNL     1       6.902   1.313  -0.008  0.00  0.00    +0.058 N 
ENDBRANCH  14  19
ENDBRANCH   9  11
ENDBRANCH   1   8
BRANCH   2  20
ATOM     20  O   UNL     1      -1.087  -0.995  -1.576  0.00  0.00    -0.452 OA
BRANCH  20  21
ATOM     21  C   UNL     1      -2.211  -0.264  -1.230  0.00  0.00    +0.146 C 
ATOM     22  C   UNL     1      -3.565   0.782   0.447  0.00  0.00    +0.085 C 
ATOM     23  C   UNL     1      -2.433   0.045   0.100  0.00  0.00    +0.044 C 
ATOM     24  C   UNL     1      -4.457   1.198  -0.541  0.00  0.00    +0.082 C 
ATOM     25  C   UNL     1      -3.084   0.140  -2.225  0.00  0.00    +0.038 C 
ATOM     26  C   UNL     1      -4.216   0.877  -1.877  0.00  0.00    +0.010 C 
BRANCH  22  28
ATOM     27  O   UNL     1      -4.370   2.105   2.270  0.00  0.00    -0.245 OA
ATOM     28  C   UNL     1      -3.788   1.101   1.851  0.00  0.00    +0.338 C 
BRANCH  28  29
ATOM     29  O   UNL     1      -3.278   0.156   2.685  0.00  0.00    -0.477 OA
ATOM     30  H   UNL     1      -2.842  -0.594   2.332  0.00  0.00    +0.295 HD
ENDBRANCH  28  29
ENDBRANCH  22  28
BRANCH  24  32
ATOM     31  O   UNL     1      -5.710   3.200  -0.160  0.00  0.00    -0.245 OA
ATOM     32  C   UNL     1      -5.648   1.968  -0.211  0.00  0.00    +0.338 C 
BRANCH  32  33
ATOM     33  O   UNL     1      -6.723   1.175   0.045  0.00  0.00    -0.477 OA
ATOM     34  H   UNL     1      -6.640   0.243  -0.003  0.00  0.00    +0.295 HD
ENDBRANCH  32  33
ENDBRANCH  24  32
ENDBRANCH  20  21
ENDBRANCH   2  20
TORSDOF 9
