REMARK  Name = 159738
REMARK  6 active torsions:
REMARK  status: ('A' for Active; 'I' for Inactive)
REMARK    1  A    between atoms: N_1  and  C1*_12
REMARK    2  A    between atoms: C_7  and  N_22
REMARK    3  A    between atoms: C2*_11  and  O2*_15
REMARK    4  A    between atoms: C3*_13  and  O3*_17
REMARK    5  A    between atoms: C4*_14  and  C5*_19
REMARK    6  A    between atoms: C5*_19  and  O5*_20
REMARK                            x       y       z     vdW  Elec       q    Type
REMARK                         _______ _______ _______ _____ _____    ______ ____
ROOT
ATOM      1  N   UNL     1      -0.212  -0.262  -0.138  0.00  0.00    -0.247 N 
ATOM      2  N   UNL     1      -1.635  -1.898   0.387  0.00  0.00    -0.248 NA
ATOM      3  N   UNL     1      -1.775   1.549  -0.547  0.00  0.00    -0.228 NA
ATOM      4  C   UNL     1      -1.463   0.284  -0.219  0.00  0.00    +0.150 C 
ATOM      5  C   UNL     1      -0.369  -1.573   0.229  0.00  0.00    +0.223 C 
ATOM      6  C   UNL     1      -2.332  -0.747   0.111  0.00  0.00    +0.105 C 
ATOM      7  C   UNL     1      -3.705  -0.468   0.110  0.00  0.00    +0.118 C 
ATOM      8  C   UNL     1      -4.093   0.830  -0.223  0.00  0.00    +0.016 C 
ATOM      9  C   UNL     1      -3.113   1.768  -0.533  0.00  0.00    +0.097 C 
ENDROOT
BRANCH   1  12
ATOM     10  O4* UNL     1       2.002  -0.519  -0.953  0.00  0.00    -0.333 OA
ATOM     11  C2* UNL     1       1.717   0.984   0.854  0.00  0.00    +0.187 C 
ATOM     12  C1* UNL     1       1.058   0.414  -0.392  0.00  0.00    +0.225 C 
ATOM     13  C3* UNL     1       3.175   1.016   0.437  0.00  0.00    +0.171 C 
ATOM     14  C4* UNL     1       3.306  -0.263  -0.383  0.00  0.00    +0.175 C 
BRANCH  11  15
ATOM     15  O2* UNL     1       1.208   2.260   1.183  0.00  0.00    -0.378 OA
ATOM     16  H2* UNL     1       0.276   2.180   1.441  0.00  0.00    +0.211 HD
ENDBRANCH  11  15
BRANCH  13  17
ATOM     17  O3* UNL     1       3.400   2.137  -0.418  0.00  0.00    -0.379 OA
ATOM     18  H3* UNL     1       3.319   2.956   0.095  0.00  0.00    +0.211 HD
ENDBRANCH  13  17
BRANCH  14  19
ATOM     19  C5* UNL     1       3.708  -1.468   0.456  0.00  0.00    +0.169 C 
BRANCH  19  20
ATOM     20  O5* UNL     1       3.793  -2.602  -0.389  0.00  0.00    -0.379 OA
ATOM     21  H5* UNL     1       4.049  -3.377   0.135  0.00  0.00    +0.211 HD
ENDBRANCH  19  20
ENDBRANCH  14  19
ENDBRANCH   1  12
BRANCH   7  22
ATOM     22  N   UNL     1      -4.670  -1.439   0.428  0.00  0.00    -0.314 NA
ATOM     23  H   UNL     1      -4.390  -2.354   0.662  0.00  0.00    +0.119 HD
ATOM     24  H   UNL     1      -5.626  -1.205   0.417  0.00  0.00    +0.119 HD
ENDBRANCH   7  22
TORSDOF 6
