REMARK  Name = 3357
REMARK  5 active torsions:
REMARK  status: ('A' for Active; 'I' for Inactive)
REMARK    1  A    between atoms: N_4  and  C_26
REMARK    2  A    between atoms: C_5  and  N_14
REMARK    3  A    between atoms: C_13  and  C_23
REMARK    4  A    between atoms: C_23  and  O_24
REMARK    5  A    between atoms: C_26  and  C_28
REMARK                            x       y       z     vdW  Elec       q    Type
REMARK                         _______ _______ _______ _____ _____    ______ ____
ROOT
ATOM      1  F   UNL     1      -1.048   1.672   0.535  0.00  0.00    -0.201 F 
ATOM      2  F   UNL     1      -1.889  -2.830  -0.581  0.00  0.00    -0.203 F 
ATOM      3  O   UNL     1       3.123  -2.521  -0.407  0.00  0.00    -0.286 OA
ATOM      4  N   UNL     1       1.797   1.231   0.484  0.00  0.00    -0.281 N 
ATOM      5  C   UNL     1      -1.466  -0.564  -0.019  0.00  0.00    +0.105 C 
ATOM      6  C   UNL     1       0.836   0.227   0.220  0.00  0.00    +0.084 C 
ATOM      7  C   UNL     1      -0.551   0.459   0.249  0.00  0.00    +0.169 C 
ATOM      8  C   UNL     1      -1.017  -1.845  -0.323  0.00  0.00    +0.156 C 
ATOM      9  C   UNL     1       1.265  -1.084  -0.092  0.00  0.00    +0.057 C 
ATOM     10  C   UNL     1       0.348  -2.109  -0.361  0.00  0.00    +0.035 C 
ATOM     11  C   UNL     1       2.718  -1.396  -0.141  0.00  0.00    +0.204 C 
ATOM     12  C   UNL     1       3.142   0.915   0.431  0.00  0.00    +0.075 C 
ATOM     13  C   UNL     1       3.659  -0.286   0.147  0.00  0.00    +0.129 C 
ENDROOT
BRANCH   5  14
ATOM     14  N   UNL     1      -2.839  -0.299   0.017  0.00  0.00    -0.308 N 
ATOM     15  N   UNL     1      -5.656   0.147  -0.149  0.00  0.00    +0.388 N 
ATOM     16  C   UNL     1      -3.371   0.716  -0.901  0.00  0.00    +0.068 C 
ATOM     17  C   UNL     1      -3.775  -1.361   0.400  0.00  0.00    +0.068 C 
ATOM     18  C   UNL     1      -4.714   1.246  -0.395  0.00  0.00    -0.056 C 
ATOM     19  C   UNL     1      -5.106  -0.764   0.862  0.00  0.00    -0.056 C 
ATOM     20  C   UNL     1      -6.952   0.669   0.281  0.00  0.00    -0.101 C 
ATOM     21  H   UNL     1      -5.794  -0.369  -1.018  0.00  0.00    -0.080 HD
ENDBRANCH   5  14
BRANCH  13  23
ATOM     22  O   UNL     1       5.899   0.453  -0.150  0.00  0.00    -0.245 OA
ATOM     23  C   UNL     1       5.115  -0.435   0.136  0.00  0.00    +0.342 C 
BRANCH  23  24
ATOM     24  O   UNL     1       5.445  -1.695   0.488  0.00  0.00    -0.477 OA
ATOM     25  H   UNL     1       4.773  -2.316   0.693  0.00  0.00    +0.295 HD
ENDBRANCH  23  24
ENDBRANCH  13  23
BRANCH   4  26
ATOM     26  C   UNL     1       1.362   2.589   0.809  0.00  0.00    +0.134 C 
BRANCH  26  28
ATOM     27  F   UNL     1       2.441   3.453  -1.083  0.00  0.00    -0.232 F 
ATOM     28  C   UNL     1       1.234   3.411  -0.458  0.00  0.00    +0.215 C 
ENDBRANCH  26  28
ENDBRANCH   4  26
TORSDOF 5
