REMARK  Name = 6102806
REMARK  12 active torsions:
REMARK  status: ('A' for Active; 'I' for Inactive)
REMARK    1  A    between atoms: P_1  and  O_3
REMARK    2  A    between atoms: P_1  and  O_5
REMARK    3  A    between atoms: P_1  and  O_15
REMARK    4  A    between atoms: O_5  and  C_6
REMARK    5  A    between atoms: C_6  and  C_7
REMARK    6  A    between atoms: C_7  and  O_8
REMARK    7  A    between atoms: C_7  and  C_10
REMARK    8  A    between atoms: C_10  and  O_11
REMARK    9  A    between atoms: O_11  and  C_13
REMARK   10  A    between atoms: O_15  and  C_16
REMARK   11  A    between atoms: C_16  and  C_17
REMARK   12  A    between atoms: C_17  and  N_18
REMARK                            x       y       z     vdW  Elec       q    Type
REMARK                         _______ _______ _______ _____ _____    ______ ____
ROOT
ATOM      1  P   UNL     1       2.700   1.280   0.295  0.00  0.00    +0.476 P 
ATOM      2  O   UNL     1       2.803   2.058   1.575  0.00  0.00    -0.227 OA
ENDROOT
BRANCH   1   3
ATOM      3  O   UNL     1       3.602   1.871  -0.912  0.00  0.00    -0.302 OA
ATOM      4  H   UNL     1       3.486   1.321  -1.702  0.00  0.00    +0.222 HD
ENDBRANCH   1   3
BRANCH   1   5
ATOM      5  O   UNL     1       1.214   1.234  -0.348  0.00  0.00    -0.271 OA
BRANCH   5   6
ATOM      6  C   UNL     1       0.165   0.666   0.417  0.00  0.00    +0.187 C 
BRANCH   6   7
ATOM      7  C   UNL     1      -1.140   0.724  -0.370  0.00  0.00    +0.184 C 
BRANCH   7   8
ATOM      8  O   UNL     1      -0.982  -0.030  -1.574  0.00  0.00    -0.378 OA
ATOM      9  H   UNL     1      -0.251   0.339  -2.093  0.00  0.00    +0.211 HD
ENDBRANCH   7   8
BRANCH   7  10
ATOM     10  C   UNL     1      -2.293   0.116   0.418  0.00  0.00    +0.240 C 
BRANCH  10  11
ATOM     11  O   UNL     1      -3.486   0.223  -0.352  0.00  0.00    -0.446 OA
BRANCH  11  13
ATOM     12  O   UNL     1      -4.684  -0.810   1.332  0.00  0.00    -0.250 OA
ATOM     13  C   UNL     1      -4.614  -0.283   0.229  0.00  0.00    +0.318 C 
ATOM     14  C   UNL     1      -5.784  -0.102  -0.690  0.00  0.00    +0.121 C 
ENDBRANCH  11  13
ENDBRANCH  10  11
ENDBRANCH   7  10
ENDBRANCH   6   7
ENDBRANCH   5   6
ENDBRANCH   1   5
BRANCH   1  15
ATOM     15  O   UNL     1       3.153  -0.270   0.407  0.00  0.00    -0.276 OA
BRANCH  15  16
ATOM     16  C   UNL     1       3.101  -1.109  -0.735  0.00  0.00    +0.130 C 
BRANCH  16  17
ATOM     17  C   UNL     1       3.575  -2.501  -0.364  0.00  0.00    -0.053 C 
BRANCH  17  18
ATOM     18  N   UNL     1       2.672  -3.066   0.670  0.00  0.00    +0.382 N 
ATOM     19  H   UNL     1       2.988  -4.003   0.922  0.00  0.00    -0.089 HD
ATOM     20  H   UNL     1       1.722  -3.116   0.302  0.00  0.00    -0.089 HD
ATOM     21  H   UNL     1       2.686  -2.469   1.497  0.00  0.00    -0.089 HD
ENDBRANCH  17  18
ENDBRANCH  16  17
ENDBRANCH  15  16
ENDBRANCH   1  15
TORSDOF 12
