REMARK  Name = 6971251
REMARK  3 active torsions:
REMARK  status: ('A' for Active; 'I' for Inactive)
REMARK    1  A    between atoms: CA_1  and  N_2
REMARK    2  A    between atoms: CA_1  and  C_8
REMARK    3  A    between atoms: CA_1  and  C_9
REMARK                            x       y       z     vdW  Elec       q    Type
REMARK                         _______ _______ _______ _____ _____    ______ ____
ROOT
ATOM      1  CA  UNL     1       0.217   0.600   0.383  0.00  0.00    +0.040 C 
ENDROOT
BRANCH   1   2
ATOM      2  N   UNL     1       0.018   2.053   0.082  0.00  0.00    +0.389 N 
ATOM      3  H1  UNL     1       0.841   2.577   0.379  0.00  0.00    -0.088 HD
ATOM      4  H2  UNL     1      -0.802   2.395   0.582  0.00  0.00    -0.088 HD
ATOM      5  H3  UNL     1      -0.119   2.176  -0.921  0.00  0.00    -0.088 HD
ENDBRANCH   1   2
BRANCH   1   8
ATOM      6  O   UNL     1      -1.180  -0.388  -1.269  0.00  0.00    -0.248 OA
ATOM      7  OXT UNL     1      -1.585  -0.840   0.930  0.00  0.00    -0.248 OA
ATOM      8  C   UNL     1      -0.971  -0.288  -0.027  0.00  0.00    +0.345 C 
ENDBRANCH   1   8
BRANCH   1   9
ATOM      9  C   UNL     1       1.581   0.166  -0.168  0.00  0.00    -0.011 C 
ATOM     10  C   UNL     1       1.920  -1.302   0.068  0.00  0.00    -0.002 C 
ENDBRANCH   1   9
TORSDOF 3
