REMARK  Name = 4380
REMARK  7 active torsions:
REMARK  status: ('A' for Active; 'I' for Inactive)
REMARK    1  A    between atoms: O_1  and  C_4
REMARK    2  A    between atoms: O_1  and  C_10
REMARK    3  A    between atoms: C_10  and  C_11
REMARK    4  A    between atoms: C_11  and  C_12
REMARK    5  A    between atoms: C_12  and  N_13
REMARK    6  A    between atoms: N_13  and  C_16
REMARK    7  A    between atoms: C_16  and  C_17
REMARK                            x       y       z     vdW  Elec       q    Type
REMARK                         _______ _______ _______ _____ _____    ______ ____
ROOT
ATOM      1  O   UNL     1      -0.344   1.876  -0.124  0.00  0.00    -0.475 OA
ENDROOT
BRANCH   1   4
ATOM      2 CL   UNL     1      -1.320   0.661  -2.694  0.00  0.00    -0.079 Cl
ATOM      3 CL   UNL     1      -4.642  -2.070   0.549  0.00  0.00    -0.082 Cl
ATOM      4  C   UNL     1      -1.347   0.951   0.010  0.00  0.00    +0.149 C 
ATOM      5  C   UNL     1      -1.887   0.315  -1.102  0.00  0.00    +0.092 C 
ATOM      6  C   UNL     1      -1.815   0.661   1.288  0.00  0.00    +0.039 C 
ATOM      7  C   UNL     1      -2.908  -0.622  -0.935  0.00  0.00    +0.026 C 
ATOM      8  C   UNL     1      -2.836  -0.275   1.454  0.00  0.00    +0.015 C 
ATOM      9  C   UNL     1      -3.382  -0.916   0.343  0.00  0.00    +0.059 C 
ENDBRANCH   1   4
BRANCH   1  10
ATOM     10  C   UNL     1       0.573   1.989   0.956  0.00  0.00    +0.203 C 
BRANCH  10  11
ATOM     11  C   UNL     1       1.932   2.401   0.408  0.00  0.00    +0.025 C 
BRANCH  11  12
ATOM     12  C   UNL     1       2.476   1.368  -0.574  0.00  0.00    -0.072 C 
BRANCH  12  13
ATOM     13  N   UNL     1       2.609   0.071   0.079  0.00  0.00    +0.394 N 
ATOM     14  C   UNL     1       3.553   0.151   1.196  0.00  0.00    -0.099 C 
ATOM     15  H   UNL     1       1.695  -0.196   0.445  0.00  0.00    -0.078 HD
BRANCH  13  16
ATOM     16  C   UNL     1       3.042  -0.947  -0.880  0.00  0.00    +0.003 C 
BRANCH  16  17
ATOM     17  C   UNL     1       3.117  -2.266  -0.245  0.00  0.00    -0.101 C 
ATOM     18  C   UNL     1       3.179  -3.349   0.270  0.00  0.00    -0.016 C 
ENDBRANCH  16  17
ENDBRANCH  13  16
ENDBRANCH  12  13
ENDBRANCH  11  12
ENDBRANCH  10  11
ENDBRANCH   1  10
TORSDOF 7
