REMARK  Name = 84836
REMARK  4 active torsions:
REMARK  status: ('A' for Active; 'I' for Inactive)
REMARK    1  A    between atoms: O_1  and  C_2
REMARK    2  A    between atoms: O_1  and  C_10
REMARK    3  A    between atoms: C_2  and  N_5
REMARK    4  A    between atoms: C_10  and  N_13
REMARK                            x       y       z     vdW  Elec       q    Type
REMARK                         _______ _______ _______ _____ _____    ______ ____
ROOT
ATOM      1  O   UNL     1      -0.001   0.002   0.447  0.00  0.00    -0.313 OA
ENDROOT
BRANCH   1   2
ATOM      2  C   UNL     1       1.172   0.027   1.247  0.00  0.00    +0.251 C 
BRANCH   2   5
ATOM      3  O   UNL     1       2.702  -2.291   0.167  0.00  0.00    -0.269 OA
ATOM      4  O   UNL     1       2.671   2.311   0.049  0.00  0.00    -0.269 OA
ATOM      5  N   UNL     1       2.329   0.014   0.373  0.00  0.00    -0.196 N 
ATOM      6  C   UNL     1       2.956  -1.121  -0.065  0.00  0.00    +0.257 C 
ATOM      7  C   UNL     1       2.939   1.134  -0.122  0.00  0.00    +0.257 C 
ATOM      8  C   UNL     1       4.066  -0.674  -0.921  0.00  0.00    +0.063 C 
ATOM      9  C   UNL     1       4.056   0.660  -0.954  0.00  0.00    +0.063 C 
ENDBRANCH   2   5
ENDBRANCH   1   2
BRANCH   1  10
ATOM     10  C   UNL     1      -1.174  -0.023   1.247  0.00  0.00    +0.251 C 
BRANCH  10  13
ATOM     11  O   UNL     1      -2.708   2.291   0.164  0.00  0.00    -0.269 OA
ATOM     12  O   UNL     1      -2.668  -2.311   0.050  0.00  0.00    -0.269 OA
ATOM     13  N   UNL     1      -2.317  -0.013   0.383  0.00  0.00    -0.196 N 
ATOM     14  C   UNL     1      -2.960   1.121  -0.067  0.00  0.00    +0.257 C 
ATOM     15  C   UNL     1      -2.938  -1.135  -0.121  0.00  0.00    +0.257 C 
ATOM     16  C   UNL     1      -4.069   0.670  -0.922  0.00  0.00    +0.063 C 
ATOM     17  C   UNL     1      -4.056  -0.663  -0.955  0.00  0.00    +0.063 C 
ENDBRANCH  10  13
ENDBRANCH   1  10
TORSDOF 4
