REMARK  Name = 68368
REMARK  5 active torsions:
REMARK  status: ('A' for Active; 'I' for Inactive)
REMARK    1  A    between atoms: C2*_2  and  O2*_15
REMARK    2  A    between atoms: C1*_3  and  N_6
REMARK    3  A    between atoms: C3*_4  and  O3*_17
REMARK    4  A    between atoms: C4*_5  and  C5*_19
REMARK    5  A    between atoms: C5*_19  and  O5*_20
REMARK                            x       y       z     vdW  Elec       q    Type
REMARK                         _______ _______ _______ _____ _____    ______ ____
ROOT
ATOM      1  O4* UNL     1       1.766  -0.489  -0.946  0.00  0.00    -0.333 OA
ATOM      2  C2* UNL     1       1.400   1.043   0.823  0.00  0.00    +0.187 C 
ATOM      3  C1* UNL     1       0.764   0.386  -0.393  0.00  0.00    +0.225 C 
ATOM      4  C3* UNL     1       2.843   1.173   0.376  0.00  0.00    +0.171 C 
ATOM      5  C4* UNL     1       3.057  -0.117  -0.410  0.00  0.00    +0.175 C 
ENDROOT
BRANCH   3   6
ATOM      6  N   UNL     1      -0.446  -0.377  -0.094  0.00  0.00    -0.247 N 
ATOM      7  N   UNL     1      -1.732  -2.098   0.506  0.00  0.00    -0.247 NA
ATOM      8  N   UNL     1      -2.159   1.290  -0.526  0.00  0.00    -0.208 NA
ATOM      9  N   UNL     1      -4.394   0.389  -0.135  0.00  0.00    -0.243 NA
ATOM     10  C   UNL     1      -1.736   0.069  -0.168  0.00  0.00    +0.152 C 
ATOM     11  C   UNL     1      -0.497  -1.684   0.315  0.00  0.00    +0.223 C 
ATOM     12  C   UNL     1      -2.517  -1.012   0.208  0.00  0.00    +0.112 C 
ATOM     13  C   UNL     1      -3.895  -0.820   0.217  0.00  0.00    +0.175 C 
ATOM     14  C   UNL     1      -3.508   1.355  -0.479  0.00  0.00    +0.196 C 
ENDBRANCH   3   6
BRANCH   2  15
ATOM     15  O2* UNL     1       0.800   2.286   1.124  0.00  0.00    -0.378 OA
ATOM     16  H2* UNL     1      -0.118   2.143   1.403  0.00  0.00    +0.211 HD
ENDBRANCH   2  15
BRANCH   4  17
ATOM     17  O3* UNL     1       2.966   2.280  -0.516  0.00  0.00    -0.379 OA
ATOM     18  H3* UNL     1       2.832   3.107  -0.026  0.00  0.00    +0.211 HD
ENDBRANCH   4  17
BRANCH   5  19
ATOM     19  C5* UNL     1       3.565  -1.262   0.456  0.00  0.00    +0.169 C 
BRANCH  19  20
ATOM     20  O5* UNL     1       3.722  -2.411  -0.358  0.00  0.00    -0.379 OA
ATOM     21  H5* UNL     1       4.045  -3.148   0.183  0.00  0.00    +0.211 HD
ENDBRANCH  19  20
ENDBRANCH   5  19
TORSDOF 5
