REMARK  Name = 21307
REMARK  2 active torsions:
REMARK  status: ('A' for Active; 'I' for Inactive)
REMARK    1  A    between atoms: N_2  and  C_12
REMARK    2  A    between atoms: C_3  and  C_9
REMARK                            x       y       z     vdW  Elec       q    Type
REMARK                         _______ _______ _______ _____ _____    ______ ____
ROOT
ATOM      1  O   UNL     1      -0.063  -0.678   1.802  0.00  0.00    -0.269 OA
ATOM      2  N   UNL     1       0.574   0.258  -0.263  0.00  0.00    -0.280 N 
ATOM      3  C   UNL     1      -0.315  -0.167   0.714  0.00  0.00    +0.258 C 
ATOM      4  H   UNL     1       0.176   0.647  -1.075  0.00  0.00    +0.155 HD
ENDROOT
BRANCH   3   9
ATOM      5  S   UNL     1      -2.337   1.602   0.796  0.00  0.00    -0.103 S 
ATOM      6  O   UNL     1      -3.720  -0.722  -0.788  0.00  0.00    -0.478 OA
ATOM      7  C   UNL     1      -4.093   1.334   0.461  0.00  0.00    +0.110 C 
ATOM      8  C   UNL     1      -4.214   0.615  -0.866  0.00  0.00    +0.217 C 
ATOM      9  C   UNL     1      -1.714   0.059   0.323  0.00  0.00    +0.109 C 
ATOM     10  C   UNL     1      -2.417  -0.877  -0.348  0.00  0.00    +0.126 C 
ATOM     11  C   UNL     1      -1.886  -2.244  -0.685  0.00  0.00    +0.073 C 
ENDBRANCH   3   9
BRANCH   2  12
ATOM     12  C   UNL     1       1.988   0.196  -0.227  0.00  0.00    +0.051 C 
ATOM     13  C   UNL     1       2.714   0.673  -1.305  0.00  0.00    +0.015 C 
ATOM     14  C   UNL     1       2.614  -0.339   0.886  0.00  0.00    +0.015 C 
ATOM     15  C   UNL     1       4.108   0.613  -1.268  0.00  0.00    +0.001 C 
ATOM     16  C   UNL     1       4.007  -0.399   0.923  0.00  0.00    +0.001 C 
ATOM     17  C   UNL     1       4.754   0.077  -0.155  0.00  0.00    +0.000 C 
ENDBRANCH   2  12
TORSDOF 2
