REMARK  Name = 446245
REMARK  2 active torsions:
REMARK  status: ('A' for Active; 'I' for Inactive)
REMARK    1  A    between atoms: C_6  and  S_17
REMARK    2  A    between atoms: S_17  and  C_18
REMARK                            x       y       z     vdW  Elec       q    Type
REMARK                         _______ _______ _______ _____ _____    ______ ____
ROOT
ATOM      1  N   UNL     1       3.161   0.984  -0.609  0.00  0.00    -0.332 NA
ATOM      2  N   UNL     1       1.475   2.031   0.757  0.00  0.00    -0.317 NA
ATOM      3  N   UNL     1      -0.271   0.850   1.679  0.00  0.00    -0.335 N 
ATOM      4  N   UNL     1       3.231   3.285  -0.156  0.00  0.00    -0.283 N 
ATOM      5  C   UNL     1       1.382  -0.341   0.304  0.00  0.00    +0.149 C 
ATOM      6  C   UNL     1       0.757  -1.591   0.455  0.00  0.00    +0.022 C 
ATOM      7  C   UNL     1       2.554  -0.207  -0.458  0.00  0.00    +0.135 C 
ATOM      8  C   UNL     1       0.893   0.824   0.887  0.00  0.00    +0.178 C 
ATOM      9  C   UNL     1       1.298  -2.718  -0.155  0.00  0.00    +0.003 C 
ATOM     10  C   UNL     1       3.075  -1.351  -1.057  0.00  0.00    +0.029 C 
ATOM     11  C   UNL     1       2.458  -2.598  -0.912  0.00  0.00    +0.003 C 
ATOM     12  C   UNL     1       2.588   2.038   0.007  0.00  0.00    +0.197 C 
ATOM     13  H   UNL     1      -0.581   1.698   2.072  0.00  0.00    +0.144 HD
ATOM     14  H   UNL     1      -0.776   0.020   1.840  0.00  0.00    +0.144 HD
ATOM     15  H   UNL     1       4.051   3.349  -0.696  0.00  0.00    +0.156 HD
ATOM     16  H   UNL     1       2.858   4.090   0.271  0.00  0.00    +0.156 HD
ENDROOT
BRANCH   6  17
ATOM     17  S   UNL     1      -0.740  -1.981   1.380  0.00  0.00    -0.090 S 
BRANCH  17  18
ATOM     18  C   UNL     1      -1.924  -0.942   0.544  0.00  0.00    +0.029 C 
ATOM     19  C   UNL     1      -3.775   0.683  -0.764  0.00  0.00    -0.022 C 
ATOM     20  C   UNL     1      -1.754  -0.640  -0.807  0.00  0.00    +0.006 C 
ATOM     21  C   UNL     1      -3.018  -0.432   1.241  0.00  0.00    +0.006 C 
ATOM     22  C   UNL     1      -2.680   0.173  -1.461  0.00  0.00    -0.004 C 
ATOM     23  C   UNL     1      -3.944   0.380   0.587  0.00  0.00    -0.004 C 
ATOM     24  C   UNL     1      -4.765   1.552  -1.464  0.00  0.00    +0.031 C 
ENDBRANCH  17  18
ENDBRANCH   6  17
TORSDOF 2
