REMARK  Name = 1629
REMARK  6 active torsions:
REMARK  status: ('A' for Active; 'I' for Inactive)
REMARK    1  A    between atoms: C_2  and  C_11
REMARK    2  A    between atoms: CA_3  and  C_8
REMARK    3  A    between atoms: C_8  and  O_9
REMARK    4  A    between atoms: C_11  and  P_12
REMARK    5  A    between atoms: P_12  and  O_14
REMARK    6  A    between atoms: P_12  and  O_16
REMARK                            x       y       z     vdW  Elec       q    Type
REMARK                         _______ _______ _______ _____ _____    ______ ____
ROOT
ATOM      1  N   UNL     1       2.402  -0.066   0.426  0.00  0.00    -0.238 NA
ATOM      2  C   UNL     1       0.272   0.577  -0.520  0.00  0.00    +0.014 C 
ATOM      3  CA  UNL     1       1.177  -0.366  -0.063  0.00  0.00    +0.153 C 
ATOM      4  C   UNL     1       0.646   1.915  -0.473  0.00  0.00    -0.000 C 
ATOM      5  C   UNL     1       1.898   2.264   0.023  0.00  0.00    +0.020 C 
ATOM      6  C   UNL     1       2.731   1.245   0.456  0.00  0.00    +0.099 C 
ENDROOT
BRANCH   3   8
ATOM      7  OXT UNL     1      -0.258  -2.284   0.029  0.00  0.00    -0.243 OA
ATOM      8  C   UNL     1       0.860  -1.787  -0.080  0.00  0.00    +0.356 C 
BRANCH   8   9
ATOM      9  O   UNL     1       1.974  -2.555  -0.237  0.00  0.00    -0.476 OA
ATOM     10  H   UNL     1       2.815  -2.150  -0.318  0.00  0.00    +0.295 HD
ENDBRANCH   8   9
ENDBRANCH   3   8
BRANCH   2  11
ATOM     11  C   UNL     1      -1.068   0.199  -1.051  0.00  0.00    +0.144 C 
BRANCH  11  12
ATOM     12  P   UNL     1      -2.366   0.138   0.211  0.00  0.00    +0.341 P 
ATOM     13  O   UNL     1      -2.093  -0.841   1.296  0.00  0.00    -0.258 OA
BRANCH  12  14
ATOM     14  O   UNL     1      -3.688  -0.120  -0.669  0.00  0.00    -0.323 OA
ATOM     15  H   UNL     1      -4.460  -0.172  -0.085  0.00  0.00    +0.220 HD
ENDBRANCH  12  14
BRANCH  12  16
ATOM     16  O   UNL     1      -2.486   1.680   0.653  0.00  0.00    -0.323 OA
ATOM     17  H   UNL     1      -3.166   1.768   1.340  0.00  0.00    +0.220 HD
ENDBRANCH  12  16
ENDBRANCH  11  12
ENDBRANCH   2  11
TORSDOF 6
