REMARK  Name = 10367
REMARK  4 active torsions:
REMARK  status: ('A' for Active; 'I' for Inactive)
REMARK    1  A    between atoms: CA_2  and  C_8
REMARK    2  A    between atoms: CA_3  and  C_12
REMARK    3  A    between atoms: C_8  and  O_9
REMARK    4  A    between atoms: C_12  and  O_13
REMARK                            x       y       z     vdW  Elec       q    Type
REMARK                         _______ _______ _______ _____ _____    ______ ____
ROOT
ATOM      1  N   UNL     1       0.000   0.521  -0.003  0.00  0.00    -0.393 NA
ATOM      2  CA  UNL     1      -1.149  -0.191   0.000  0.00  0.00    +0.206 C 
ATOM      3  CA  UNL     1       1.149  -0.191  -0.004  0.00  0.00    +0.188 C 
ATOM      4  C   UNL     1      -1.202  -1.576   0.001  0.00  0.00    +0.035 C 
ATOM      5  C   UNL     1       1.203  -1.576  -0.002  0.00  0.00    +0.092 C 
ATOM      6  C   UNL     1       0.000  -2.274   0.000  0.00  0.00    -0.016 C 
ENDROOT
BRANCH   2   8
ATOM      7  OXT UNL     1      -3.520   0.124   0.002  0.00  0.00    -0.242 OA
ATOM      8  C   UNL     1      -2.374   0.589   0.001  0.00  0.00    +0.368 C 
BRANCH   8   9
ATOM      9  O   UNL     1      -2.140   1.930   0.000  0.00  0.00    -0.475 OA
ATOM     10  H   UNL     1      -1.260   2.252  -0.001  0.00  0.00    +0.295 HD
ENDBRANCH   8   9
ENDBRANCH   2   8
BRANCH   3  12
ATOM     11  OXT UNL     1       3.520   0.125   0.006  0.00  0.00    -0.243 OA
ATOM     12  C   UNL     1       2.374   0.589   0.001  0.00  0.00    +0.364 C 
BRANCH  12  13
ATOM     13  O   UNL     1       2.140   1.930  -0.002  0.00  0.00    -0.476 OA
ATOM     14  H   UNL     1       1.260   2.252  -0.006  0.00  0.00    +0.295 HD
ENDBRANCH  12  13
ENDBRANCH   3  12
TORSDOF 4
