REMARK  Name = 6323390
REMARK  5 active torsions:
REMARK  status: ('A' for Active; 'I' for Inactive)
REMARK    1  A    between atoms: C_5  and  C_16
REMARK    2  A    between atoms: C_8  and  C_24
REMARK    3  A    between atoms: C_16  and  S_17
REMARK    4  A    between atoms: S_17  and  C_18
REMARK    5  A    between atoms: C_24  and  N_25
REMARK                            x       y       z     vdW  Elec       q    Type
REMARK                         _______ _______ _______ _____ _____    ______ ____
ROOT
ATOM      1  O   UNL     1      -4.774  -1.243   0.382  0.00  0.00    -0.209 OA
ATOM      2  N   UNL     1      -0.844  -1.747  -0.207  0.00  0.00    -0.275 N 
ATOM      3  N   UNL     1      -3.014  -2.681   0.088  0.00  0.00    -0.302 NA
ATOM      4  N   UNL     1      -1.120  -4.024  -0.228  0.00  0.00    -0.320 N 
ATOM      5  C   UNL     1      -0.463   0.663  -0.202  0.00  0.00    +0.003 C 
ATOM      6  C   UNL     1      -1.317  -0.438  -0.104  0.00  0.00    +0.060 C 
ATOM      7  C   UNL     1      -2.687  -0.228   0.102  0.00  0.00    +0.108 C 
ATOM      8  C   UNL     1      -2.339   2.159   0.112  0.00  0.00    -0.044 C 
ATOM      9  C   UNL     1      -0.974   1.958  -0.094  0.00  0.00    -0.008 C 
ATOM     10  C   UNL     1      -3.201   1.067   0.211  0.00  0.00    +0.008 C 
ATOM     11  C   UNL     1      -3.573  -1.420   0.202  0.00  0.00    +0.208 C 
ATOM     12  C   UNL     1      -1.726  -2.799  -0.104  0.00  0.00    +0.248 C 
ATOM     13  H   UNL     1       0.115  -1.917  -0.351  0.00  0.00    +0.156 HD
ATOM     14  H   UNL     1      -0.148  -4.080  -0.372  0.00  0.00    +0.146 HD
ATOM     15  H   UNL     1      -1.657  -4.847  -0.172  0.00  0.00    +0.146 HD
ENDROOT
BRANCH   5  16
ATOM     16  C   UNL     1       1.005   0.494  -0.423  0.00  0.00    +0.090 C 
BRANCH  16  17
ATOM     17  S   UNL     1       1.932   0.373   1.136  0.00  0.00    -0.109 S 
BRANCH  17  18
ATOM     18  C   UNL     1       3.568   0.187   0.499  0.00  0.00    +0.026 C 
ATOM     19  C   UNL     1       3.893  -0.897  -0.330  0.00  0.00    +0.006 C 
ATOM     20  C   UNL     1       4.567   1.121   0.814  0.00  0.00    +0.006 C 
ATOM     21  C   UNL     1       5.186  -1.044  -0.833  0.00  0.00    +0.001 C 
ATOM     22  C   UNL     1       5.859   0.975   0.311  0.00  0.00    +0.001 C 
ATOM     23  C   UNL     1       6.169  -0.107  -0.513  0.00  0.00    +0.000 C 
ENDBRANCH  17  18
ENDBRANCH  16  17
ENDBRANCH   5  16
BRANCH   8  24
ATOM     24  C   UNL     1      -2.878   3.545   0.227  0.00  0.00    -0.059 C 
BRANCH  24  25
ATOM     25  N   UNL     1      -3.269   4.087  -1.049  0.00  0.00    +0.383 N 
ATOM     26  H   UNL     1      -3.630   5.033  -0.921  0.00  0.00    -0.089 HD
ATOM     27  H   UNL     1      -3.995   3.500  -1.460  0.00  0.00    -0.089 HD
ATOM     28  H   UNL     1      -2.461   4.113  -1.670  0.00  0.00    -0.089 HD
ENDBRANCH  24  25
ENDBRANCH   8  24
TORSDOF 5
