REMARK  Name = 4470378
REMARK  6 active torsions:
REMARK  status: ('A' for Active; 'I' for Inactive)
REMARK    1  A    between atoms: C_5  and  O_10
REMARK    2  A    between atoms: C_6  and  O_24
REMARK    3  A    between atoms: O_10  and  C_11
REMARK    4  A    between atoms: C_12  and  C_19
REMARK    5  A    between atoms: O_24  and  C_25
REMARK    6  A    between atoms: C_26  and  C_33
REMARK                            x       y       z     vdW  Elec       q    Type
REMARK                         _______ _______ _______ _____ _____    ______ ____
ROOT
ATOM      1  F   UNL     1       4.179  -2.363  -0.546  0.00  0.00    -0.221 F 
ATOM      2  F   UNL     1       4.159   2.390  -0.542  0.00  0.00    -0.199 F 
ATOM      3  N   UNL     1       1.528   0.002   0.191  0.00  0.00    -0.331 NA
ATOM      4  C   UNL     1       4.221   0.014  -0.559  0.00  0.00    +0.031 C 
ATOM      5  C   UNL     1       2.220  -1.144  -0.001  0.00  0.00    +0.298 C 
ATOM      6  C   UNL     1       2.217   1.141  -0.002  0.00  0.00    +0.312 C 
ATOM      7  C   UNL     1       3.554  -1.192  -0.372  0.00  0.00    +0.270 C 
ATOM      8  C   UNL     1       3.543   1.214  -0.371  0.00  0.00    +0.201 C 
ATOM      9  C   UNL     1       5.657   0.021  -0.960  0.00  0.00    +0.032 C 
ENDROOT
BRANCH   5  10
ATOM     10  O   UNL     1       1.540  -2.318   0.188  0.00  0.00    -0.428 OA
BRANCH  10  11
ATOM     11  C   UNL     1       0.213  -2.231   0.556  0.00  0.00    +0.148 C 
ATOM     12  C   UNL     1      -2.104  -2.099  -0.054  0.00  0.00    +0.032 C 
ATOM     13  C   UNL     1      -0.762  -2.188  -0.427  0.00  0.00    +0.040 C 
ATOM     14  C   UNL     1      -0.116  -2.188   1.901  0.00  0.00    +0.038 C 
ATOM     15  C   UNL     1      -2.451  -2.055   1.296  0.00  0.00    +0.003 C 
ATOM     16  C   UNL     1      -1.457  -2.099   2.274  0.00  0.00    +0.003 C 
BRANCH  12  19
ATOM     17  N   UNL     1      -2.810  -2.093  -2.371  0.00  0.00    -0.387 N 
ATOM     18  N   UNL     1      -4.429  -1.967  -0.719  0.00  0.00    -0.345 N 
ATOM     19  C   UNL     1      -3.134  -2.053  -1.067  0.00  0.00    +0.096 C 
ATOM     20  H   UNL     1      -3.517  -2.061  -3.055  0.00  0.00    +0.157 HD
ATOM     21  H   UNL     1      -1.865  -2.155  -2.642  0.00  0.00    +0.157 HD
ATOM     22  H   UNL     1      -5.125  -1.935  -1.415  0.00  0.00    +0.144 HD
ATOM     23  H   UNL     1      -4.682  -1.935   0.232  0.00  0.00    +0.144 HD
ENDBRANCH  12  19
ENDBRANCH  10  11
ENDBRANCH   5  10
BRANCH   6  24
ATOM     24  O   UNL     1       1.518   2.321   0.190  0.00  0.00    -0.426 OA
BRANCH  24  25
ATOM     25  C   UNL     1       0.210   2.229   0.553  0.00  0.00    +0.148 C 
ATOM     26  C   UNL     1      -2.125   2.089  -0.053  0.00  0.00    +0.034 C 
ATOM     27  C   UNL     1      -0.784   2.182  -0.425  0.00  0.00    +0.040 C 
ATOM     28  C   UNL     1      -0.138   2.184   1.903  0.00  0.00    +0.038 C 
ATOM     29  C   UNL     1      -2.473   2.044   1.297  0.00  0.00    +0.003 C 
ATOM     30  C   UNL     1      -1.479   2.091   2.275  0.00  0.00    +0.003 C 
BRANCH  26  33
ATOM     31  N   UNL     1      -4.509   1.947  -0.732  0.00  0.00    -0.343 N 
ATOM     32  N   UNL     1      -2.829   2.078  -2.351  0.00  0.00    -0.285 NA
ATOM     33  C   UNL     1      -3.161   2.040  -1.073  0.00  0.00    +0.117 C 
ATOM     34  H   UNL     1      -5.194   1.915  -1.438  0.00  0.00    +0.144 HD
ATOM     35  H   UNL     1      -4.777   1.914   0.215  0.00  0.00    +0.144 HD
ATOM     36  H   UNL     1      -3.529   2.045  -3.042  0.00  0.00    +0.188 HD
ENDBRANCH  26  33
ENDBRANCH  24  25
ENDBRANCH   6  24
TORSDOF 6
