REMARK  Name = 11481186
REMARK  3 active torsions:
REMARK  status: ('A' for Active; 'I' for Inactive)
REMARK    1  A    between atoms: C_1  and  C_10
REMARK    2  A    between atoms: C_4  and  N_9
REMARK    3  A    between atoms: C_10  and  O_12
REMARK                            x       y       z     vdW  Elec       q    Type
REMARK                         _______ _______ _______ _____ _____    ______ ____
ROOT
ATOM      1  C   UNL     1      -0.140  -0.578   0.119  0.00  0.00    +0.004 C 
ATOM      2  C   UNL     1       0.724  -1.338  -0.670  0.00  0.00    -0.000 C 
ATOM      3  C   UNL     1       0.345   0.528   0.817  0.00  0.00    -0.000 C 
ATOM      4  C   UNL     1       2.556   0.115  -0.063  0.00  0.00    +0.143 C 
ATOM      5  C   UNL     1       2.072  -0.992  -0.761  0.00  0.00    +0.024 C 
ATOM      6  C   UNL     1       1.693   0.875   0.726  0.00  0.00    +0.024 C 
ENDROOT
BRANCH   4   9
ATOM      7  O   UNL     1       4.688  -0.229  -0.872  0.00  0.00    -0.126 OA
ATOM      8  O   UNL     1       4.344   1.467   0.478  0.00  0.00    -0.126 OA
ATOM      9  N   UNL     1       3.929   0.468  -0.157  0.00  0.00    +0.058 N 
ENDBRANCH   4   9
BRANCH   1  10
ATOM     10  C   UNL     1      -1.581  -0.948   0.216  0.00  0.00    +0.133 C 
ATOM     11  C   UNL     1      -2.513   0.195  -0.214  0.00  0.00    +0.037 C 
BRANCH  10  12
ATOM     12  O   UNL     1      -1.886  -1.311   1.569  0.00  0.00    -0.380 OA
ATOM     13  H   UNL     1      -1.302  -2.033   1.849  0.00  0.00    +0.211 HD
ENDBRANCH  10  12
ENDBRANCH   1  10
TORSDOF 3
REMARK  Name = 11481186
REMARK  3 active torsions:
REMARK  status: ('A' for Active; 'I' for Inactive)
REMARK    1  A    between atoms: C_1  and  C_10
REMARK    2  A    between atoms: C_4  and  N_9
REMARK    3  A    between atoms: C_10  and  O_12
REMARK                            x       y       z     vdW  Elec       q    Type
REMARK                         _______ _______ _______ _____ _____    ______ ____
ROOT
ATOM      1  N   UNL     1      -4.764   0.608  -0.405  0.00  0.00    +0.000 NA
ATOM      2  N   UNL     1      -5.557   1.381  -0.682  0.00  0.00    +0.000 NA
ENDROOT
TORSDOF 0
