REMARK  Name = 151434
REMARK  8 active torsions:
REMARK  status: ('A' for Active; 'I' for Inactive)
REMARK    1  A    between atoms: C_7  and  C_16
REMARK    2  A    between atoms: C_16  and  O_17
REMARK    3  A    between atoms: O_17  and  P_18
REMARK    4  A    between atoms: P_18  and  O_20
REMARK    5  A    between atoms: P_18  and  O_22
REMARK    6  A    between atoms: O_22  and  P_23
REMARK    7  A    between atoms: P_23  and  O_25
REMARK    8  A    between atoms: P_23  and  O_27
REMARK                            x       y       z     vdW  Elec       q    Type
REMARK                         _______ _______ _______ _____ _____    ______ ____
ROOT
ATOM      1  O   UNL     1       2.107   2.511   0.077  0.00  0.00    -0.206 OA
ATOM      2  N   UNL     1       0.843   0.180   0.395  0.00  0.00    -0.391 NA
ATOM      3  N   UNL     1       4.313  -0.814  -0.159  0.00  0.00    -0.259 N 
ATOM      4  N   UNL     1       2.370  -2.171   0.235  0.00  0.00    -0.246 NA
ATOM      5  N   UNL     1       4.177   1.563  -0.238  0.00  0.00    -0.300 NA
ATOM      6  N   UNL     1       6.206   0.426  -0.538  0.00  0.00    -0.320 N 
ATOM      7  C   UNL     1       0.291  -1.038   0.542  0.00  0.00    +0.143 C 
ATOM      8  C   UNL     1       2.172   0.190   0.166  0.00  0.00    +0.255 C 
ATOM      9  C   UNL     1       2.944  -0.958   0.083  0.00  0.00    +0.173 C 
ATOM     10  C   UNL     1       1.040  -2.191   0.464  0.00  0.00    +0.184 C 
ATOM     11  C   UNL     1       2.815   1.512  -0.002  0.00  0.00    +0.240 C 
ATOM     12  C   UNL     1       4.854   0.444  -0.306  0.00  0.00    +0.249 C 
ATOM     13  H   UNL     1       4.890  -1.610  -0.223  0.00  0.00    +0.157 HD
ATOM     14  H   UNL     1       6.687  -0.432  -0.584  0.00  0.00    +0.146 HD
ATOM     15  H   UNL     1       6.696   1.271  -0.659  0.00  0.00    +0.146 HD
ENDROOT
BRANCH   7  16
ATOM     16  C   UNL     1      -1.175  -1.105   0.797  0.00  0.00    +0.210 C 
BRANCH  16  17
ATOM     17  O   UNL     1      -1.869  -1.184  -0.443  0.00  0.00    -0.266 OA
BRANCH  17  18
ATOM     18  P   UNL     1      -3.482  -1.267  -0.456  0.00  0.00    +0.484 P 
ATOM     19  O   UNL     1      -4.092  -1.347  -1.825  0.00  0.00    -0.227 OA
BRANCH  18  20
ATOM     20  O   UNL     1      -3.832  -2.522   0.504  0.00  0.00    -0.302 OA
ATOM     21  H   UNL     1      -3.404  -2.398   1.366  0.00  0.00    +0.222 HD
ENDBRANCH  18  20
BRANCH  18  22
ATOM     22  O   UNL     1      -3.965   0.009   0.412  0.00  0.00    -0.186 OA
BRANCH  22  23
ATOM     23  P   UNL     1      -3.834   1.594   0.129  0.00  0.00    +0.481 P 
ATOM     24  O   UNL     1      -2.425   2.091  -0.012  0.00  0.00    -0.227 OA
BRANCH  23  25
ATOM     25  O   UNL     1      -4.681   2.254   1.337  0.00  0.00    -0.302 OA
ATOM     26  H   UNL     1      -5.573   1.875   1.351  0.00  0.00    +0.222 HD
ENDBRANCH  23  25
BRANCH  23  27
ATOM     27  O   UNL     1      -4.779   1.822  -1.163  0.00  0.00    -0.302 OA
ATOM     28  H   UNL     1      -5.665   1.471  -0.981  0.00  0.00    +0.222 HD
ENDBRANCH  23  27
ENDBRANCH  22  23
ENDBRANCH  18  22
ENDBRANCH  17  18
ENDBRANCH  16  17
ENDBRANCH   7  16
TORSDOF 8
