REMARK  Name = 1369
REMARK  3 active torsions:
REMARK  status: ('A' for Active; 'I' for Inactive)
REMARK    1  A    between atoms: C_3  and  N_15
REMARK    2  A    between atoms: C_4  and  S_11
REMARK    3  A    between atoms: N_15  and  C_17
REMARK                            x       y       z     vdW  Elec       q    Type
REMARK                         _______ _______ _______ _____ _____    ______ ____
ROOT
ATOM      1  C   UNL     1      -1.523   0.440   0.066  0.00  0.00    +0.031 C 
ATOM      2  C   UNL     1      -2.518   1.444  -0.008  0.00  0.00    +0.002 C 
ATOM      3  C   UNL     1      -0.192   0.809   0.321  0.00  0.00    +0.050 C 
ATOM      4  C   UNL     1      -1.889  -0.904  -0.117  0.00  0.00    +0.113 C 
ATOM      5  C   UNL     1      -2.152   2.788   0.175  0.00  0.00    +0.000 C 
ATOM      6  C   UNL     1      -3.849   1.075  -0.263  0.00  0.00    +0.000 C 
ATOM      7  C   UNL     1       0.153   2.149   0.500  0.00  0.00    +0.015 C 
ATOM      8  C   UNL     1      -3.216  -1.252  -0.369  0.00  0.00    +0.019 C 
ATOM      9  C   UNL     1      -0.825   3.136   0.427  0.00  0.00    +0.001 C 
ATOM     10  C   UNL     1      -4.194  -0.265  -0.442  0.00  0.00    +0.001 C 
ENDROOT
BRANCH   4  11
ATOM     11  S   UNL     1      -0.807  -2.292  -0.062  0.00  0.00    +0.042 S 
ATOM     12  O   UNL     1      -0.378  -2.422   1.506  0.00  0.00    -0.065 OA
ATOM     13  O   UNL     1      -1.590  -3.467  -0.396  0.00  0.00    -0.065 OA
ATOM     14  O   UNL     1       0.367  -1.927  -0.832  0.00  0.00    -0.065 OA
ENDBRANCH   4  11
BRANCH   3  15
ATOM     15  N   UNL     1       0.886  -0.102   0.418  0.00  0.00    -0.312 N 
ATOM     16  H   UNL     1       0.625  -0.991   0.752  0.00  0.00    +0.152 HD
BRANCH  15  17
ATOM     17  C   UNL     1       2.256   0.015   0.131  0.00  0.00    +0.048 C 
ATOM     18  C   UNL     1       3.191  -0.737   0.848  0.00  0.00    +0.015 C 
ATOM     19  C   UNL     1       2.692   0.884  -0.873  0.00  0.00    +0.015 C 
ATOM     20  C   UNL     1       4.552  -0.620   0.564  0.00  0.00    +0.001 C 
ATOM     21  C   UNL     1       4.053   1.000  -1.157  0.00  0.00    +0.001 C 
ATOM     22  C   UNL     1       4.983   0.248  -0.439  0.00  0.00    +0.000 C 
ENDBRANCH  15  17
ENDBRANCH   3  15
TORSDOF 3
