REMARK  Name = 5288859
REMARK  3 active torsions:
REMARK  status: ('A' for Active; 'I' for Inactive)
REMARK    1  A    between atoms: C_6  and  N_13
REMARK    2  A    between atoms: C_12  and  S_17
REMARK    3  A    between atoms: S_17  and  N_20
REMARK                            x       y       z     vdW  Elec       q    Type
REMARK                         _______ _______ _______ _____ _____    ______ ____
ROOT
ATOM      1  S   UNL     1       1.673   1.655  -0.184  0.00  0.00    +0.012 S 
ATOM      2  S   UNL     1      -1.277   1.380  -0.192  0.00  0.00    -0.049 S 
ATOM      3  O   UNL     1       1.710   2.460   1.018  0.00  0.00    -0.168 OA
ATOM      4  O   UNL     1       1.596   2.221  -1.514  0.00  0.00    -0.168 OA
ATOM      5  C   UNL     1       2.981   0.411  -0.139  0.00  0.00    +0.133 C 
ATOM      6  C   UNL     1       1.391  -1.546   0.517  0.00  0.00    -0.035 C 
ATOM      7  C   UNL     1       2.648  -0.711   0.867  0.00  0.00    +0.007 C 
ATOM      8  C   UNL     1       0.172  -0.695   0.302  0.00  0.00    -0.017 C 
ATOM      9  C   UNL     1       0.241   0.646  -0.008  0.00  0.00    +0.130 C 
ATOM     10  C   UNL     1       4.314   1.073   0.195  0.00  0.00    +0.026 C 
ATOM     11  C   UNL     1      -1.191  -1.122   0.388  0.00  0.00    +0.022 C 
ATOM     12  C   UNL     1      -2.079  -0.097   0.137  0.00  0.00    +0.152 C 
ENDROOT
BRANCH   6  13
ATOM     13  N   UNL     1       1.596  -2.363  -0.680  0.00  0.00    +0.386 N 
ATOM     14  C   UNL     1       2.761  -3.218  -0.525  0.00  0.00    -0.105 C 
ATOM     15  H   UNL     1       1.735  -1.750  -1.484  0.00  0.00    -0.084 HD
ATOM     16  H   UNL     1       0.774  -2.950  -0.821  0.00  0.00    -0.084 HD
ENDBRANCH   6  13
BRANCH  12  17
ATOM     17  S   UNL     1      -3.833  -0.008   0.094  0.00  0.00    +0.063 S 
ATOM     18  O   UNL     1      -4.357  -1.082   0.921  0.00  0.00    -0.153 OA
ATOM     19  O   UNL     1      -4.222   1.368   0.349  0.00  0.00    -0.153 OA
BRANCH  17  20
ATOM     20  N   UNL     1      -4.126  -0.373  -1.547  0.00  0.00    -0.203 NA
ATOM     21  H   UNL     1      -5.131  -0.358  -1.724  0.00  0.00    +0.144 HD
ATOM     22  H   UNL     1      -3.757  -1.300  -1.760  0.00  0.00    +0.144 HD
ENDBRANCH  17  20
ENDBRANCH  12  17
TORSDOF 3
