REMARK  Name = 39941
REMARK  4 active torsions:
REMARK  status: ('A' for Active; 'I' for Inactive)
REMARK    1  A    between atoms: C_3  and  C_17
REMARK    2  A    between atoms: C_9  and  C_11
REMARK    3  A    between atoms: C_17  and  C_20
REMARK    4  A    between atoms: C_20  and  O_21
REMARK                            x       y       z     vdW  Elec       q    Type
REMARK                         _______ _______ _______ _____ _____    ______ ____
ROOT
ATOM      1  O   UNL     1      -0.927  -1.335   0.186  0.00  0.00    -0.425 OA
ATOM      2  N   UNL     1      -0.439   0.817  -0.331  0.00  0.00    -0.368 NA
ATOM      3  C   UNL     1       3.051  -0.517  -0.223  0.00  0.00    -0.027 C 
ATOM      4  C   UNL     1       0.725   0.094  -0.232  0.00  0.00    +0.151 C 
ATOM      5  C   UNL     1       2.067   0.468  -0.392  0.00  0.00    +0.085 C 
ATOM      6  C   UNL     1       0.430  -1.224   0.085  0.00  0.00    +0.174 C 
ATOM      7  C   UNL     1       2.709  -1.837   0.097  0.00  0.00    -0.004 C 
ATOM      8  C   UNL     1       1.375  -2.227   0.261  0.00  0.00    +0.039 C 
ATOM      9  C   UNL     1      -1.372  -0.074  -0.076  0.00  0.00    +0.282 C 
ENDROOT
BRANCH   9  11
ATOM     10 CL   UNL     1      -7.283   0.611   0.105  0.00  0.00    -0.082 Cl
ATOM     11  C   UNL     1      -2.798   0.092  -0.032  0.00  0.00    +0.066 C 
ATOM     12  C   UNL     1      -3.624  -0.997   0.263  0.00  0.00    +0.007 C 
ATOM     13  C   UNL     1      -3.369   1.342  -0.285  0.00  0.00    +0.007 C 
ATOM     14  C   UNL     1      -5.009  -0.837   0.305  0.00  0.00    +0.012 C 
ATOM     15  C   UNL     1      -4.754   1.502  -0.243  0.00  0.00    +0.012 C 
ATOM     16  C   UNL     1      -5.574   0.413   0.052  0.00  0.00    +0.058 C 
ENDBRANCH   9  11
BRANCH   3  17
ATOM     17  C   UNL     1       4.489  -0.150  -0.387  0.00  0.00    +0.118 C 
ATOM     18  C   UNL     1       4.843   0.369  -1.794  0.00  0.00    +0.016 C 
BRANCH  17  20
ATOM     19  O   UNL     1       4.236   1.387   1.494  0.00  0.00    -0.250 OA
ATOM     20  C   UNL     1       4.956   0.887   0.640  0.00  0.00    +0.317 C 
BRANCH  20  21
ATOM     21  O   UNL     1       6.269   1.214   0.506  0.00  0.00    -0.480 OA
ATOM     22  H   UNL     1       6.787   0.808  -0.161  0.00  0.00    +0.295 HD
ENDBRANCH  20  21
ENDBRANCH  17  20
ENDBRANCH   3  17
TORSDOF 4
