REMARK  Name = 198752
REMARK  6 active torsions:
REMARK  status: ('A' for Active; 'I' for Inactive)
REMARK    1  A    between atoms: C_1  and  C_3
REMARK    2  A    between atoms: C_1  and  C_16
REMARK    3  A    between atoms: N_2  and  C_9
REMARK    4  A    between atoms: C_9  and  C_10
REMARK    5  A    between atoms: C_16  and  C_18
REMARK    6  A    between atoms: C_18  and  C_20
REMARK                            x       y       z     vdW  Elec       q    Type
REMARK                         _______ _______ _______ _____ _____    ______ ____
ROOT
ATOM      1  C   UNL     1       0.439   2.109   0.096  0.00  0.00    +0.008 C 
ENDROOT
BRANCH   1   3
ATOM      2  N   UNL     1       4.635   1.151  -0.267  0.00  0.00    +0.390 N 
ATOM      3  C   UNL     1       1.780   1.759  -0.542  0.00  0.00    -0.004 C 
ATOM      4  C   UNL     1       2.288   0.401  -0.046  0.00  0.00    -0.023 C 
ATOM      5  C   UNL     1       2.827   2.840  -0.253  0.00  0.00    -0.023 C 
ATOM      6  C   UNL     1       3.678   0.089  -0.604  0.00  0.00    -0.077 C 
ATOM      7  C   UNL     1       4.199   2.447  -0.804  0.00  0.00    -0.077 C 
ATOM      8  H   UNL     1       4.674   1.229   0.749  0.00  0.00    -0.079 HD
BRANCH   2   9
ATOM      9  C   UNL     1       5.970   0.815  -0.762  0.00  0.00    -0.050 C 
BRANCH   9  10
ATOM     10  C   UNL     1       6.482  -0.469  -0.166  0.00  0.00    -0.043 C 
ATOM     11  C   UNL     1       7.209  -0.431   1.016  0.00  0.00    -0.006 C 
ATOM     12  C   UNL     1       6.220  -1.673  -0.805  0.00  0.00    -0.006 C 
ATOM     13  C   UNL     1       7.684  -1.621   1.568  0.00  0.00    -0.000 C 
ATOM     14  C   UNL     1       6.694  -2.862  -0.253  0.00  0.00    -0.000 C 
ATOM     15  C   UNL     1       7.427  -2.836   0.934  0.00  0.00    -0.000 C 
ENDBRANCH   9  10
ENDBRANCH   2   9
ENDBRANCH   1   3
BRANCH   1  16
ATOM     16  C   UNL     1      -0.640   1.090  -0.271  0.00  0.00    +0.069 C 
BRANCH  16  18
ATOM     17  O   UNL     1      -2.160   2.451   1.013  0.00  0.00    -0.291 OA
ATOM     18  C   UNL     1      -2.022   1.419   0.324  0.00  0.00    +0.173 C 
BRANCH  18  20
ATOM     19  N   UNL     1      -6.696   0.323   1.060  0.00  0.00    -0.333 N 
ATOM     20  C   UNL     1      -3.147   0.531   0.080  0.00  0.00    +0.036 C 
ATOM     21  C   UNL     1      -5.342  -1.165  -0.391  0.00  0.00    -0.009 C 
ATOM     22  C   UNL     1      -6.466  -2.116  -0.752  0.00  0.00    +0.028 C 
ATOM     23  C   UNL     1      -5.512  -0.023   0.423  0.00  0.00    +0.041 C 
ATOM     24  C   UNL     1      -7.777  -1.409  -1.095  0.00  0.00    +0.006 C 
ATOM     25  C   UNL     1      -8.580  -0.954   0.123  0.00  0.00    +0.022 C 
ATOM     26  C   UNL     1      -4.398   0.819   0.627  0.00  0.00    +0.017 C 
ATOM     27  C   UNL     1      -7.750  -0.622   1.354  0.00  0.00    +0.087 C 
ATOM     28  C   UNL     1      -2.979  -0.611  -0.687  0.00  0.00    +0.003 C 
ATOM     29  C   UNL     1      -4.065  -1.452  -0.919  0.00  0.00    -0.003 C 
ATOM     30  H   UNL     1      -6.825   1.262   1.327  0.00  0.00    +0.147 HD
ENDBRANCH  18  20
ENDBRANCH  16  18
ENDBRANCH   1  16
TORSDOF 6
