REMARK  Name = 5289547
REMARK  5 active torsions:
REMARK  status: ('A' for Active; 'I' for Inactive)
REMARK    1  A    between atoms: C_2  and  C_24
REMARK    2  A    between atoms: C_11  and  C_12
REMARK    3  A    between atoms: C_16  and  O_20
REMARK    4  A    between atoms: C_17  and  O_22
REMARK    5  A    between atoms: C_24  and  C_26
REMARK                            x       y       z     vdW  Elec       q    Type
REMARK                         _______ _______ _______ _____ _____    ______ ____
ROOT
ATOM      1  C   UNL     1       2.907   0.284   0.061  0.00  0.00    +0.003 C 
ATOM      2  C   UNL     1       3.900  -0.792  -0.447  0.00  0.00    +0.000 C 
ATOM      3  C   UNL     1       1.610  -0.228  -0.613  0.00  0.00    +0.018 C 
ATOM      4  C   UNL     1       3.115  -2.115  -0.329  0.00  0.00    +0.000 C 
ATOM      5  C   UNL     1       1.625  -1.734  -0.333  0.00  0.00    +0.004 C 
ATOM      6  C   UNL     1       3.226   1.715  -0.434  0.00  0.00    +0.001 C 
ATOM      7  C   UNL     1       0.415   0.615  -0.249  0.00  0.00    -0.045 C 
ATOM      8  C   UNL     1       2.824   0.290   1.609  0.00  0.00    +0.000 C 
ATOM      9  C   UNL     1       1.987   2.489  -0.925  0.00  0.00    +0.004 C 
ATOM     10  C   UNL     1       0.682   2.106  -0.215  0.00  0.00    +0.022 C 
ATOM     11  C   UNL     1      -0.803   0.123   0.019  0.00  0.00    -0.009 C 
ENDROOT
BRANCH  11  12
ATOM     12  C   UNL     1      -1.933   0.953   0.354  0.00  0.00    -0.009 C 
ATOM     13  C   UNL     1      -3.152   0.463   0.623  0.00  0.00    -0.039 C 
ATOM     14  C   UNL     1      -4.326   1.349   0.973  0.00  0.00    +0.056 C 
ATOM     15  C   UNL     1      -3.459  -1.012   0.569  0.00  0.00    +0.056 C 
ATOM     16  C   UNL     1      -5.545   1.051   0.086  0.00  0.00    +0.135 C 
ATOM     17  C   UNL     1      -4.647  -1.296  -0.359  0.00  0.00    +0.135 C 
ATOM     18  C   UNL     1      -5.837  -0.435   0.028  0.00  0.00    +0.009 C 
ATOM     19  C   UNL     1      -7.054  -0.911   0.338  0.00  0.00    -0.004 C 
BRANCH  16  20
ATOM     20  O   UNL     1      -5.286   1.545  -1.229  0.00  0.00    -0.380 OA
ATOM     21  H   UNL     1      -5.100   2.496  -1.186  0.00  0.00    +0.211 HD
ENDBRANCH  16  20
BRANCH  17  22
ATOM     22  O   UNL     1      -4.930  -2.690  -0.289  0.00  0.00    -0.380 OA
ATOM     23  H   UNL     1      -4.142  -3.194  -0.544  0.00  0.00    +0.211 HD
ENDBRANCH  17  22
ENDBRANCH  11  12
BRANCH   2  24
ATOM     24  C   UNL     1       5.256  -0.845   0.244  0.00  0.00    +0.000 C 
ATOM     25  C   UNL     1       6.098  -1.984  -0.338  0.00  0.00    +0.000 C 
BRANCH  24  26
ATOM     26  C   UNL     1       5.966   0.518   0.124  0.00  0.00    +0.000 C 
ATOM     27  C   UNL     1       7.362   0.541   0.730  0.00  0.00    +0.000 C 
ENDBRANCH  24  26
ENDBRANCH   2  24
TORSDOF 5
