REMARK  Name = 24250
REMARK  9 active torsions:
REMARK  status: ('A' for Active; 'I' for Inactive)
REMARK    1  A    between atoms: C_1  and  C_2
REMARK    2  A    between atoms: C_1  and  C_10
REMARK    3  A    between atoms: C_2  and  C_3
REMARK    4  A    between atoms: C_3  and  C_4
REMARK    5  A    between atoms: C_4  and  C_5
REMARK    6  A    between atoms: C_5  and  N_6
REMARK    7  A    between atoms: C_10  and  C_11
REMARK    8  A    between atoms: C_11  and  C_12
REMARK    9  A    between atoms: C_12  and  N_13
REMARK                            x       y       z     vdW  Elec       q    Type
REMARK                         _______ _______ _______ _____ _____    ______ ____
ROOT
ATOM      1  C   UNL     1       0.643  -0.413   0.015  0.00  0.00    -0.000 C 
ENDROOT
BRANCH   1   2
ATOM      2  C   UNL     1      -0.643   0.416   0.015  0.00  0.00    -0.000 C 
BRANCH   2   3
ATOM      3  C   UNL     1      -1.883  -0.481  -0.018  0.00  0.00    -0.002 C 
BRANCH   3   4
ATOM      4  C   UNL     1      -3.169   0.350   0.010  0.00  0.00    -0.024 C 
BRANCH   4   5
ATOM      5  C   UNL     1      -4.437  -0.505  -0.006  0.00  0.00    -0.086 C 
BRANCH   5   6
ATOM      6  N   UNL     1      -5.645   0.311  -0.017  0.00  0.00    +0.380 N 
ATOM      7  H   UNL     1      -6.465  -0.296  -0.028  0.00  0.00    -0.089 HD
ATOM      8  H   UNL     1      -5.649   0.902  -0.848  0.00  0.00    -0.089 HD
ATOM      9  H   UNL     1      -5.667   0.897   0.817  0.00  0.00    -0.089 HD
ENDBRANCH   5   6
ENDBRANCH   4   5
ENDBRANCH   3   4
ENDBRANCH   2   3
ENDBRANCH   1   2
BRANCH   1  10
ATOM     10  C   UNL     1       1.883   0.483   0.015  0.00  0.00    -0.002 C 
BRANCH  10  11
ATOM     11  C   UNL     1       3.169  -0.349   0.045  0.00  0.00    -0.024 C 
BRANCH  11  12
ATOM     12  C   UNL     1       4.438   0.503  -0.025  0.00  0.00    -0.086 C 
BRANCH  12  13
ATOM     13  N   UNL     1       5.644  -0.316  -0.034  0.00  0.00    +0.380 N 
ATOM     14  H   UNL     1       6.464   0.288  -0.081  0.00  0.00    -0.089 HD
ATOM     15  H   UNL     1       5.630  -0.934  -0.845  0.00  0.00    -0.089 HD
ATOM     16  H   UNL     1       5.682  -0.875   0.819  0.00  0.00    -0.089 HD
ENDBRANCH  12  13
ENDBRANCH  11  12
ENDBRANCH  10  11
ENDBRANCH   1  10
TORSDOF 9
