REMARK  Name = 183145
REMARK  0 active torsions:
REMARK  status: ('A' for Active; 'I' for Inactive)
REMARK                            x       y       z     vdW  Elec       q    Type
REMARK                         _______ _______ _______ _____ _____    ______ ____
ROOT
ATOM      1  P   UNL     1      -0.117  -0.675   0.000  0.00  0.00    +0.330 P 
ATOM      2  O   UNL     1       1.236   0.287   0.000  0.00  0.00    -0.165 OA
ATOM      3  O   UNL     1      -1.119   0.388   0.000  0.00  0.00    -0.165 OA
ENDROOT
TORSDOF 0
