REMARK  Name = 108092
REMARK  8 active torsions:
REMARK  status: ('A' for Active; 'I' for Inactive)
REMARK    1  A    between atoms: C_1  and  C_16
REMARK    2  A    between atoms: C_2  and  O_7
REMARK    3  A    between atoms: O_7  and  C_8
REMARK    4  A    between atoms: C_8  and  C_9
REMARK    5  A    between atoms: C_9  and  N_10
REMARK    6  A    between atoms: N_10  and  C_12
REMARK    7  A    between atoms: N_10  and  C_14
REMARK    8  A    between atoms: C_16  and  C_17
REMARK                            x       y       z     vdW  Elec       q    Type
REMARK                         _______ _______ _______ _____ _____    ______ ____
ROOT
ATOM      1  C   UNL     1       1.897  -0.555   0.857  0.00  0.00    -0.018 C 
ATOM      2  C   UNL     1      -0.620  -0.597  -0.322  0.00  0.00    +0.138 C 
ATOM      3  C   UNL     1       1.464  -1.693   0.177  0.00  0.00    -0.001 C 
ATOM      4  C   UNL     1       1.067   0.563   0.945  0.00  0.00    -0.001 C 
ATOM      5  C   UNL     1       0.201  -1.714  -0.414  0.00  0.00    +0.037 C 
ATOM      6  C   UNL     1      -0.196   0.542   0.353  0.00  0.00    +0.037 C 
ENDROOT
BRANCH   2   7
ATOM      7  O   UNL     1      -1.861  -0.619  -0.903  0.00  0.00    -0.478 OA
BRANCH   7   8
ATOM      8  C   UNL     1      -2.871   0.171  -0.288  0.00  0.00    +0.183 C 
BRANCH   8   9
ATOM      9  C   UNL     1      -4.222  -0.476  -0.545  0.00  0.00    -0.029 C 
BRANCH   9  10
ATOM     10  N   UNL     1      -5.293   0.294   0.086  0.00  0.00    +0.389 N 
ATOM     11  H   UNL     1      -5.114   0.334   1.089  0.00  0.00    -0.080 HD
BRANCH  10  12
ATOM     12  C   UNL     1      -5.314   1.661  -0.435  0.00  0.00    -0.077 C 
ATOM     13  C   UNL     1      -6.382   2.494   0.254  0.00  0.00    -0.025 C 
ENDBRANCH  10  12
BRANCH  10  14
ATOM     14  C   UNL     1      -6.585  -0.355  -0.130  0.00  0.00    -0.077 C 
ATOM     15  C   UNL     1      -6.582  -1.777   0.406  0.00  0.00    -0.025 C 
ENDBRANCH  10  14
ENDBRANCH   9  10
ENDBRANCH   8   9
ENDBRANCH   7   8
ENDBRANCH   2   7
BRANCH   1  16
ATOM     16  C   UNL     1       3.248  -0.531   1.489  0.00  0.00    +0.053 C 
BRANCH  16  17
ATOM     17  C   UNL     1       4.346  -0.026   0.575  0.00  0.00    -0.018 C 
ATOM     18  C   UNL     1       4.635   1.326   0.552  0.00  0.00    -0.004 C 
ATOM     19  C   UNL     1       5.032  -0.930  -0.216  0.00  0.00    -0.004 C 
ATOM     20  C   UNL     1       5.645   1.791  -0.290  0.00  0.00    -0.000 C 
ATOM     21  C   UNL     1       6.043  -0.465  -1.058  0.00  0.00    -0.000 C 
ATOM     22  C   UNL     1       6.349   0.895  -1.095  0.00  0.00    -0.000 C 
ENDBRANCH  16  17
ENDBRANCH   1  16
TORSDOF 8
