REMARK  Name = 3748
REMARK  3 active torsions:
REMARK  status: ('A' for Active; 'I' for Inactive)
REMARK    1  A    between atoms: N_2  and  N_11
REMARK    2  A    between atoms: C_3  and  C_6
REMARK    3  A    between atoms: N_11  and  C_13
REMARK                            x       y       z     vdW  Elec       q    Type
REMARK                         _______ _______ _______ _____ _____    ______ ____
ROOT
ATOM      1  O   UNL     1       0.446  -1.682   0.873  0.00  0.00    -0.269 OA
ATOM      2  N   UNL     1       1.101   0.505   0.456  0.00  0.00    -0.246 N 
ATOM      3  C   UNL     1       0.182  -0.526   0.550  0.00  0.00    +0.259 C 
ATOM      4  H   UNL     1       0.813   1.408   0.189  0.00  0.00    +0.169 HD
ENDROOT
BRANCH   3   6
ATOM      5  N   UNL     1      -3.826   0.489  -0.428  0.00  0.00    -0.242 NA
ATOM      6  C   UNL     1      -1.220  -0.171   0.207  0.00  0.00    +0.058 C 
ATOM      7  C   UNL     1      -2.058  -1.152  -0.267  0.00  0.00    +0.025 C 
ATOM      8  C   UNL     1      -1.637   1.128   0.375  0.00  0.00    +0.025 C 
ATOM      9  C   UNL     1      -3.355  -0.770  -0.571  0.00  0.00    +0.099 C 
ATOM     10  C   UNL     1      -2.953   1.407   0.043  0.00  0.00    +0.099 C 
ENDBRANCH   3   6
BRANCH   2  11
ATOM     11  N   UNL     1       2.436   0.244   0.743  0.00  0.00    -0.231 NA
ATOM     12  H   UNL     1       2.540  -0.740   0.988  0.00  0.00    +0.145 HD
BRANCH  11  13
ATOM     13  C   UNL     1       3.270   0.540  -0.402  0.00  0.00    +0.072 C 
ATOM     14  C   UNL     1       2.882  -0.376  -1.556  0.00  0.00    +0.019 C 
ATOM     15  C   UNL     1       4.735   0.364  -0.023  0.00  0.00    +0.019 C 
ENDBRANCH  11  13
ENDBRANCH   2  11
TORSDOF 3
