REMARK  Name = 5733
REMARK  5 active torsions:
REMARK  status: ('A' for Active; 'I' for Inactive)
REMARK    1  A    between atoms: C_2  and  C_9
REMARK    2  A    between atoms: C_3  and  C_17
REMARK    3  A    between atoms: C_9  and  C_11
REMARK    4  A    between atoms: C_17  and  C_19
REMARK    5  A    between atoms: C_19  and  O_20
REMARK                            x       y       z     vdW  Elec       q    Type
REMARK                         _______ _______ _______ _____ _____    ______ ____
ROOT
ATOM      1  N   UNL     1       1.446   0.512   0.745  0.00  0.00    -0.286 N 
ATOM      2  C   UNL     1       0.514   1.201   0.064  0.00  0.00    +0.087 C 
ATOM      3  C   UNL     1       2.590   0.491  -0.010  0.00  0.00    +0.040 C 
ATOM      4  C   UNL     1       1.000   1.639  -1.116  0.00  0.00    -0.004 C 
ATOM      5  C   UNL     1       2.341   1.185  -1.173  0.00  0.00    +0.008 C 
ATOM      6  C   UNL     1       1.292  -0.108   2.044  0.00  0.00    +0.117 C 
ATOM      7  C   UNL     1       0.310   2.429  -2.156  0.00  0.00    +0.032 C 
ENDROOT
BRANCH   2   9
ATOM      8  O   UNL     1      -1.130   2.425   1.266  0.00  0.00    -0.285 OA
ATOM      9  C   UNL     1      -0.852   1.423   0.585  0.00  0.00    +0.209 C 
BRANCH   9  11
ATOM     10 CL   UNL     1      -5.258  -2.428  -0.571  0.00  0.00    -0.082 Cl
ATOM     11  C   UNL     1      -1.926   0.484   0.303  0.00  0.00    +0.040 C 
ATOM     12  C   UNL     1      -1.677  -0.649  -0.471  0.00  0.00    +0.004 C 
ATOM     13  C   UNL     1      -3.206   0.717   0.806  0.00  0.00    +0.004 C 
ATOM     14  C   UNL     1      -2.707  -1.550  -0.742  0.00  0.00    +0.011 C 
ATOM     15  C   UNL     1      -4.236  -0.183   0.535  0.00  0.00    +0.011 C 
ATOM     16  C   UNL     1      -3.987  -1.317  -0.239  0.00  0.00    +0.058 C 
ENDBRANCH   9  11
ENDBRANCH   2   9
BRANCH   3  17
ATOM     17  C   UNL     1       3.822  -0.188   0.442  0.00  0.00    +0.150 C 
BRANCH  17  19
ATOM     18  O   UNL     1       2.885  -2.158  -0.607  0.00  0.00    -0.250 OA
ATOM     19  C   UNL     1       3.823  -1.630  -0.023  0.00  0.00    +0.320 C 
BRANCH  19  20
ATOM     20  O   UNL     1       4.955  -2.295   0.316  0.00  0.00    -0.480 OA
ATOM     21  H   UNL     1       5.647  -1.847   0.763  0.00  0.00    +0.295 HD
ENDBRANCH  19  20
ENDBRANCH  17  19
ENDBRANCH   3  17
TORSDOF 5
