REMARK  Name = 193653
REMARK  8 active torsions:
REMARK  status: ('A' for Active; 'I' for Inactive)
REMARK    1  A    between atoms: C_1  and  N_2
REMARK    2  A    between atoms: C_1  and  C_7
REMARK    3  A    between atoms: C_1  and  C_10
REMARK    4  A    between atoms: C_7  and  O_8
REMARK    5  A    between atoms: C_10  and  S_11
REMARK    6  A    between atoms: S_11  and  C_12
REMARK    7  A    between atoms: C_12  and  C_14
REMARK    8  A    between atoms: C_14  and  O_15
REMARK                            x       y       z     vdW  Elec       q    Type
REMARK                         _______ _______ _______ _____ _____    ______ ____
ROOT
ATOM      1  C   UNK     1      -2.076  -0.585   0.531  0.00  0.00    +0.047 C 
ENDROOT
BRANCH   1   2
ATOM      2  N   UNK     1      -3.072  -1.619   0.243  0.00  0.00    +0.389 N 
ATOM      3  H   UNK     1      -2.840  -2.467   0.760  0.00  0.00    -0.088 HD
ATOM      4  H   UNK     1      -3.074  -1.820  -0.757  0.00  0.00    -0.088 HD
ATOM      5  H   UNK     1      -3.995  -1.290   0.526  0.00  0.00    -0.088 HD
ENDBRANCH   1   2
BRANCH   1   7
ATOM      6  O   UNK     1      -2.484   0.693  -1.482  0.00  0.00    -0.253 OA
ATOM      7  C   UNK     1      -2.462   0.653  -0.258  0.00  0.00    +0.294 C 
BRANCH   7   8
ATOM      8  O   UNK     1      -2.748   1.729   0.518  0.00  0.00    -0.482 OA
ATOM      9  H   UNK     1      -2.719   1.654   1.452  0.00  0.00    +0.295 HD
ENDBRANCH   7   8
ENDBRANCH   1   7
BRANCH   1  10
ATOM     10  C   UNK     1      -0.677  -1.089   0.169  0.00  0.00    +0.047 C 
BRANCH  10  11
ATOM     11  S   UNK     1       0.602   0.170   0.478  0.00  0.00    -0.130 S 
BRANCH  11  12
ATOM     12  C   UNK     1       2.026  -0.755  -0.140  0.00  0.00    +0.167 C 
BRANCH  12  14
ATOM     13  O   UNK     1       3.425   0.924   0.877  0.00  0.00    -0.249 OA
ATOM     14  C   UNK     1       3.264   0.083   0.002  0.00  0.00    +0.325 C 
BRANCH  14  15
ATOM     15  O   UNK     1       4.200  -0.203  -0.938  0.00  0.00    -0.480 OA
ATOM     16  H   UNK     1       4.029  -0.857  -1.587  0.00  0.00    +0.295 HD
ENDBRANCH  14  15
ENDBRANCH  12  14
ENDBRANCH  11  12
ENDBRANCH  10  11
ENDBRANCH   1  10
TORSDOF 8
