REMARK  Name = 448017
REMARK  6 active torsions:
REMARK  status: ('A' for Active; 'I' for Inactive)
REMARK    1  A    between atoms: C_5  and  C_19
REMARK    2  A    between atoms: C_9  and  N_16
REMARK    3  A    between atoms: C_19  and  S_20
REMARK    4  A    between atoms: S_20  and  C_21
REMARK    5  A    between atoms: C_21  and  C_22
REMARK    6  A    between atoms: C_22  and  N_23
REMARK                            x       y       z     vdW  Elec       q    Type
REMARK                         _______ _______ _______ _____ _____    ______ ____
ROOT
ATOM      1  O   UNL     1       4.818   0.811   0.663  0.00  0.00    -0.209 OA
ATOM      2  N   UNL     1       0.996   1.462  -0.344  0.00  0.00    -0.275 N 
ATOM      3  N   UNL     1       3.142   2.314   0.238  0.00  0.00    -0.302 NA
ATOM      4  N   UNL     1       1.330   3.728  -0.222  0.00  0.00    -0.320 N 
ATOM      5  C   UNL     1       0.555  -0.933  -0.497  0.00  0.00    +0.004 C 
ATOM      6  C   UNL     1       1.421   0.136  -0.251  0.00  0.00    +0.060 C 
ATOM      7  C   UNL     1       2.751  -0.125   0.099  0.00  0.00    +0.109 C 
ATOM      8  C   UNL     1       1.016  -2.247  -0.393  0.00  0.00    +0.012 C 
ATOM      9  C   UNL     1       2.344  -2.498  -0.043  0.00  0.00    +0.042 C 
ATOM     10  C   UNL     1       3.216  -1.439   0.204  0.00  0.00    +0.028 C 
ATOM     11  C   UNL     1       3.651   1.033   0.355  0.00  0.00    +0.208 C 
ATOM     12  C   UNL     1       1.887   2.481  -0.093  0.00  0.00    +0.248 C 
ATOM     13  H   UNL     1       0.064   1.668  -0.588  0.00  0.00    +0.156 HD
ATOM     14  H   UNL     1       0.382   3.821  -0.473  0.00  0.00    +0.146 HD
ATOM     15  H   UNL     1       1.878   4.531  -0.065  0.00  0.00    +0.146 HD
ENDROOT
BRANCH   9  16
ATOM     16  N   UNL     1       2.804  -3.828   0.060  0.00  0.00    -0.357 N 
ATOM     17  H   UNL     1       2.188  -4.577  -0.114  0.00  0.00    +0.142 HD
ATOM     18  H   UNL     1       3.740  -4.007   0.307  0.00  0.00    +0.142 HD
ENDBRANCH   9  16
BRANCH   5  19
ATOM     19  C   UNL     1      -0.874  -0.709  -0.874  0.00  0.00    +0.085 C 
BRANCH  19  20
ATOM     20  S   UNL     1      -1.968  -0.627   0.575  0.00  0.00    -0.138 S 
BRANCH  20  21
ATOM     21  C   UNL     1      -3.530  -0.358  -0.293  0.00  0.00    +0.035 C 
BRANCH  21  22
ATOM     22  C   UNL     1      -4.683  -0.284   0.700  0.00  0.00    -0.066 C 
BRANCH  22  23
ATOM     23  N   UNL     1      -5.938  -0.067  -0.012  0.00  0.00    +0.385 N 
ATOM     24  C   UNL     1      -5.877   1.166  -0.798  0.00  0.00    -0.101 C 
ATOM     25  C   UNL     1      -7.060  -0.017   0.926  0.00  0.00    -0.101 C 
ATOM     26  H   UNL     1      -6.085  -0.850  -0.649  0.00  0.00    -0.080 HD
ENDBRANCH  22  23
ENDBRANCH  21  22
ENDBRANCH  20  21
ENDBRANCH  19  20
ENDBRANCH   5  19
TORSDOF 6
