REMARK  Name = 75791
REMARK  5 active torsions:
REMARK  status: ('A' for Active; 'I' for Inactive)
REMARK    1  A    between atoms: C_1  and  C_2
REMARK    2  A    between atoms: C_1  and  C_9
REMARK    3  A    between atoms: C_1  and  C_13
REMARK    4  A    between atoms: C_9  and  O_10
REMARK    5  A    between atoms: C_13  and  O_14
REMARK                            x       y       z     vdW  Elec       q    Type
REMARK                         _______ _______ _______ _____ _____    ______ ____
ROOT
ATOM      1  C   UNL     1       0.906  -0.069   0.521  0.00  0.00    +0.219 C 
ENDROOT
BRANCH   1   2
ATOM      2  C   UNL     1      -0.559  -0.034   0.241  0.00  0.00    -0.001 C 
ATOM      3  C   UNL     1      -1.034   0.606  -0.904  0.00  0.00    -0.003 C 
ATOM      4  C   UNL     1      -1.453  -0.641   1.123  0.00  0.00    -0.003 C 
ATOM      5  C   UNL     1      -2.404   0.639  -1.167  0.00  0.00    -0.000 C 
ATOM      6  C   UNL     1      -2.822  -0.608   0.860  0.00  0.00    -0.000 C 
ATOM      7  C   UNL     1      -3.298   0.032  -0.285  0.00  0.00    -0.000 C 
ENDBRANCH   1   2
BRANCH   1   9
ATOM      8  O   UNL     1       1.001  -2.162  -0.749  0.00  0.00    -0.249 OA
ATOM      9  C   UNL     1       1.576  -1.299  -0.098  0.00  0.00    +0.328 C 
BRANCH   9  10
ATOM     10  O   UNL     1       2.904  -1.352   0.188  0.00  0.00    -0.480 OA
ATOM     11  H   UNL     1       3.303  -0.669   0.690  0.00  0.00    +0.295 HD
ENDBRANCH   9  10
ENDBRANCH   1   9
BRANCH   1  13
ATOM     12  O   UNL     1       2.522   1.342  -0.658  0.00  0.00    -0.249 OA
ATOM     13  C   UNL     1       1.607   1.239   0.146  0.00  0.00    +0.328 C 
BRANCH  13  14
ATOM     14  O   UNL     1       1.053   2.306   0.780  0.00  0.00    -0.480 OA
ATOM     15  H   UNL     1       0.353   2.178   1.389  0.00  0.00    +0.295 HD
ENDBRANCH  13  14
ENDBRANCH   1  13
TORSDOF 5
