REMARK  Name = 114947
REMARK  4 active torsions:
REMARK  status: ('A' for Active; 'I' for Inactive)
REMARK    1  A    between atoms: C_2  and  N_8
REMARK    2  A    between atoms: C_3  and  C_14
REMARK    3  A    between atoms: C_4  and  O_11
REMARK    4  A    between atoms: C_14  and  O_15
REMARK                            x       y       z     vdW  Elec       q    Type
REMARK                         _______ _______ _______ _____ _____    ______ ____
ROOT
ATOM      1 CL   UNL     1       3.614   0.789  -0.037  0.00  0.00    -0.079 Cl
ATOM      2  C   UNL     1      -0.050  -0.847   0.046  0.00  0.00    +0.083 C 
ATOM      3  C   UNL     1      -0.872   0.277  -0.036  0.00  0.00    +0.091 C 
ATOM      4  C   UNL     1       1.337  -0.699   0.047  0.00  0.00    +0.157 C 
ATOM      5  C   UNL     1      -0.307   1.550  -0.118  0.00  0.00    +0.009 C 
ATOM      6  C   UNL     1       1.902   0.574  -0.035  0.00  0.00    +0.092 C 
ATOM      7  C   UNL     1       1.081   1.698  -0.118  0.00  0.00    +0.015 C 
ENDROOT
BRANCH   2   8
ATOM      8  N   UNL     1      -0.620  -2.139   0.129  0.00  0.00    -0.354 N 
ATOM      9  H   UNL     1      -1.599  -2.247   0.129  0.00  0.00    +0.142 HD
ATOM     10  H   UNL     1      -0.038  -2.931   0.186  0.00  0.00    +0.142 HD
ENDBRANCH   2   8
BRANCH   4  11
ATOM     11  O   UNL     1       2.135  -1.803   0.128  0.00  0.00    -0.503 OA
ATOM     12  H   UNL     1       1.751  -2.656   0.183  0.00  0.00    +0.292 HD
ENDBRANCH   4  11
BRANCH   3  14
ATOM     13  O   UNL     1      -2.961  -0.800  -0.483  0.00  0.00    -0.245 OA
ATOM     14  C   UNL     1      -2.325   0.159  -0.038  0.00  0.00    +0.339 C 
BRANCH  14  15
ATOM     15  O   UNL     1      -2.933   1.242   0.515  0.00  0.00    -0.477 OA
ATOM     16  H   UNL     1      -2.417   1.953   0.843  0.00  0.00    +0.295 HD
ENDBRANCH  14  15
ENDBRANCH   3  14
TORSDOF 4
