REMARK  Name = 441481
REMARK  4 active torsions:
REMARK  status: ('A' for Active; 'I' for Inactive)
REMARK    1  A    between atoms: C_2  and  O_7
REMARK    2  A    between atoms: C_3  and  O_9
REMARK    3  A    between atoms: C_4  and  O_11
REMARK    4  A    between atoms: C_5  and  O_13
REMARK                            x       y       z     vdW  Elec       q    Type
REMARK                         _______ _______ _______ _____ _____    ______ ____
ROOT
ATOM      1  O   UNL     1       1.303   0.955  -0.616  0.00  0.00    -0.326 OA
ATOM      2  C   UNL     1      -0.758  -0.443   0.798  0.00  0.00    +0.172 C 
ATOM      3  C   UNL     1       0.160  -1.163  -0.194  0.00  0.00    +0.196 C 
ATOM      4  C   UNL     1      -0.875   1.049   0.488  0.00  0.00    +0.169 C 
ATOM      5  C   UNL     1       1.500  -0.431  -0.313  0.00  0.00    +0.262 C 
ATOM      6  C   UNL     1       0.516   1.661   0.349  0.00  0.00    +0.176 C 
ENDROOT
BRANCH   2   7
ATOM      7  O   UNL     1      -2.051  -1.037   0.817  0.00  0.00    -0.379 OA
ATOM      8  H   UNL     1      -1.969  -1.983   1.014  0.00  0.00    +0.211 HD
ENDBRANCH   2   7
BRANCH   3   9
ATOM      9  O   UNL     1      -0.460  -1.211  -1.478  0.00  0.00    -0.378 OA
ATOM     10  H   UNL     1      -1.310  -1.674  -1.409  0.00  0.00    +0.211 HD
ENDBRANCH   3   9
BRANCH   4  11
ATOM     11  O   UNL     1      -1.591   1.241  -0.731  0.00  0.00    -0.379 OA
ATOM     12  H   UNL     1      -2.477   0.854  -0.650  0.00  0.00    +0.211 HD
ENDBRANCH   4  11
BRANCH   5  13
ATOM     13  O   UNL     1       2.255  -0.620   0.880  0.00  0.00    -0.358 OA
ATOM     14  H   UNL     1       3.103  -0.155   0.804  0.00  0.00    +0.213 HD
ENDBRANCH   5  13
TORSDOF 4
