REMARK  Name = 1514
REMARK  4 active torsions:
REMARK  status: ('A' for Active; 'I' for Inactive)
REMARK    1  A    between atoms: N_5  and  C_12
REMARK    2  A    between atoms: C_11  and  S_20
REMARK    3  A    between atoms: C_15  and  O_18
REMARK    4  A    between atoms: S_20  and  N_23
REMARK                            x       y       z     vdW  Elec       q    Type
REMARK                         _______ _______ _______ _____ _____    ______ ____
ROOT
ATOM      1  S   UNL     1       0.138   0.620   0.641  0.00  0.00    +0.086 S 
ATOM      2  S   UNL     1      -2.824   1.042   0.660  0.00  0.00    -0.047 S 
ATOM      3  O   UNL     1       0.449   1.771  -0.182  0.00  0.00    -0.149 OA
ATOM      4  O   UNL     1       0.101   0.694   2.088  0.00  0.00    -0.149 OA
ATOM      5  N   UNL     1       1.071  -0.729   0.152  0.00  0.00    -0.167 N 
ATOM      6  C   UNL     1      -1.478   0.157   0.159  0.00  0.00    +0.156 C 
ATOM      7  C   UNL     1      -1.784  -0.901  -0.651  0.00  0.00    +0.028 C 
ATOM      8  C   UNL     1       0.573  -1.639  -0.848  0.00  0.00    +0.089 C 
ATOM      9  C   UNL     1      -0.732  -1.717  -1.166  0.00  0.00    +0.020 C 
ATOM     10  C   UNL     1      -3.182  -1.004  -0.874  0.00  0.00    +0.028 C 
ATOM     11  C   UNL     1      -3.873  -0.007  -0.211  0.00  0.00    +0.152 C 
ENDROOT
BRANCH   5  12
ATOM     12  C   UNL     1       2.499  -0.599   0.265  0.00  0.00    +0.077 C 
ATOM     13  C   UNL     1       3.177   0.361  -0.489  0.00  0.00    +0.053 C 
ATOM     14  C   UNL     1       3.213  -1.434   1.128  0.00  0.00    +0.017 C 
ATOM     15  C   UNL     1       4.563   0.486  -0.381  0.00  0.00    +0.140 C 
ATOM     16  C   UNL     1       4.598  -1.309   1.236  0.00  0.00    +0.004 C 
ATOM     17  C   UNL     1       5.273  -0.349   0.482  0.00  0.00    +0.037 C 
BRANCH  15  18
ATOM     18  O   UNL     1       5.221   1.422  -1.117  0.00  0.00    -0.471 OA
ATOM     19  C   UNL     1       6.637   1.494  -0.959  0.00  0.00    +0.252 C 
ENDBRANCH  15  18
ENDBRANCH   5  12
BRANCH  11  20
ATOM     20  S   UNL     1      -5.580   0.395  -0.088  0.00  0.00    +0.063 S 
ATOM     21  O   UNL     1      -5.634   1.823   0.203  0.00  0.00    -0.153 OA
ATOM     22  O   UNL     1      -6.182  -0.137  -1.304  0.00  0.00    -0.153 OA
BRANCH  20  23
ATOM     23  N   UNL     1      -6.246  -0.440   1.256  0.00  0.00    -0.203 NA
ATOM     24  H   UNL     1      -7.237  -0.215   1.339  0.00  0.00    +0.144 HD
ATOM     25  H   UNL     1      -5.761  -0.156   2.107  0.00  0.00    +0.144 HD
ENDBRANCH  20  23
ENDBRANCH  11  20
TORSDOF 4
