REMARK  Name = 9574101
REMARK  13 active torsions:
REMARK  status: ('A' for Active; 'I' for Inactive)
REMARK    1  A    between atoms: C_3  and  C_9
REMARK    2  A    between atoms: C_6  and  C_25
REMARK    3  A    between atoms: N_8  and  C_11
REMARK    4  A    between atoms: C_11  and  C_12
REMARK    5  A    between atoms: C_17  and  C_20
REMARK    6  A    between atoms: N_19  and  C_20
REMARK    7  A    between atoms: N_19  and  O_23
REMARK    8  A    between atoms: C_25  and  C_26
REMARK    9  A    between atoms: C_25  and  N_32
REMARK   10  A    between atoms: N_32  and  C_35
REMARK   11  A    between atoms: C_35  and  C_37
REMARK   12  A    between atoms: C_37  and  O_38
REMARK   13  A    between atoms: O_38  and  C_39
REMARK                            x       y       z     vdW  Elec       q    Type
REMARK                         _______ _______ _______ _____ _____    ______ ____
ROOT
ATOM      1  O   UNL     1      -1.602   0.841  -1.445  0.00  0.00    -0.277 OA
ATOM      2  N   UNL     1      -2.253   1.724   0.572  0.00  0.00    -0.275 N 
ATOM      3  C   UNL     1      -1.864   3.119   0.582  0.00  0.00    +0.153 C 
ATOM      4  C   UNL     1      -2.821   1.737   1.905  0.00  0.00    +0.096 C 
ATOM      5  C   UNL     1      -2.765   3.266   1.814  0.00  0.00    +0.051 C 
ATOM      6  C   UNL     1      -2.110   0.709  -0.333  0.00  0.00    +0.206 C 
ENDROOT
BRANCH   3   9
ATOM      7  O   UNL     1       0.199   3.333   1.868  0.00  0.00    -0.273 OA
ATOM      8  N   UNL     1       0.313   3.584  -0.429  0.00  0.00    -0.299 N 
ATOM      9  C   UNL     1      -0.355   3.355   0.764  0.00  0.00    +0.241 C 
ATOM     10  H   UNL     1      -0.208   3.585  -1.265  0.00  0.00    +0.150 HD
BRANCH   8  11
ATOM     11  C   UNL     1       1.737   3.822  -0.507  0.00  0.00    +0.116 C 
BRANCH  11  12
ATOM     12  C   UNL     1       2.511   2.547  -0.675  0.00  0.00    -0.003 C 
ATOM     13  C   UNL     1       2.787   2.063  -1.954  0.00  0.00    -0.003 C 
ATOM     14  C   UNL     1       2.953   1.845   0.446  0.00  0.00    -0.003 C 
ATOM     15  C   UNL     1       3.506   0.878  -2.111  0.00  0.00    +0.003 C 
ATOM     16  C   UNL     1       3.672   0.660   0.289  0.00  0.00    +0.003 C 
ATOM     17  C   UNL     1       3.948   0.177  -0.990  0.00  0.00    +0.036 C 
BRANCH  17  19
ATOM     18  N   UNL     1       5.644  -1.429  -0.191  0.00  0.00    -0.381 N 
ATOM     19  C   UNL     1       4.697  -1.059  -1.154  0.00  0.00    +0.160 C 
ATOM     20  H   UNL     1       6.154  -2.264  -0.297  0.00  0.00    +0.157 HD
ATOM     21  H   UNL     1       5.799  -0.854   0.593  0.00  0.00    +0.157 HD
BRANCH  19  22
ATOM     22  N   UNL     1       4.455  -1.806  -2.221  0.00  0.00    -0.118 NA
BRANCH  22  23
ATOM     23  O   UNL     1       5.244  -2.961  -2.248  0.00  0.00    -0.264 OA
ATOM     24  H   UNL     1       5.161  -3.569  -2.956  0.00  0.00    +0.247 HD
ENDBRANCH  22  23
ENDBRANCH  19  22
ENDBRANCH  17  19
ENDBRANCH  11  12
ENDBRANCH   8  11
ENDBRANCH   3   9
BRANCH   6  25
ATOM     25  C   UNL     1      -2.629  -0.622   0.140  0.00  0.00    +0.018 C 
BRANCH  25  26
ATOM     26  C   UNL     1      -3.721  -1.126  -0.801  0.00  0.00    -0.011 C 
ATOM     27  C   UNL     1      -4.231  -2.503  -0.353  0.00  0.00    -0.002 C 
ATOM     28  C   UNL     1      -4.875  -0.117  -0.883  0.00  0.00    -0.002 C 
ATOM     29  C   UNL     1      -5.361  -3.005  -1.248  0.00  0.00    -0.000 C 
ATOM     30  C   UNL     1      -6.004  -0.623  -1.777  0.00  0.00    -0.000 C 
ATOM     31  C   UNL     1      -6.502  -1.995  -1.334  0.00  0.00    -0.000 C 
ENDBRANCH  25  26
BRANCH  25  32
ATOM     32  N   UNL     1      -1.508  -1.548   0.160  0.00  0.00    +0.398 N 
ATOM     33  H   UNL     1      -0.925  -1.383  -0.660  0.00  0.00    -0.083 HD
ATOM     34  H   UNL     1      -1.874  -2.500   0.153  0.00  0.00    -0.083 HD
BRANCH  32  35
ATOM     35  C   UNL     1      -0.703  -1.370   1.361  0.00  0.00    +0.031 C 
BRANCH  35  37
ATOM     36  O   UNL     1       0.645  -3.189   0.466  0.00  0.00    -0.252 OA
ATOM     37  C   UNL     1       0.435  -2.360   1.341  0.00  0.00    +0.295 C 
BRANCH  37  38
ATOM     38  O   UNL     1       1.192  -2.178   2.465  0.00  0.00    -0.450 OA
BRANCH  38  39
ATOM     39  C   UNL     1       2.320  -3.049   2.597  0.00  0.00    +0.208 C 
ATOM     40  C   UNL     1       3.048  -2.722   3.883  0.00  0.00    +0.051 C 
ENDBRANCH  38  39
ENDBRANCH  37  38
ENDBRANCH  35  37
ENDBRANCH  32  35
ENDBRANCH  25  32
ENDBRANCH   6  25
TORSDOF 13
