REMARK  Name = 6926992
REMARK  5 active torsions:
REMARK  status: ('A' for Active; 'I' for Inactive)
REMARK    1  A    between atoms: C_1  and  C_3
REMARK    2  A    between atoms: C_1  and  CA_11
REMARK    3  A    between atoms: C_8  and  O_9
REMARK    4  A    between atoms: CA_11  and  N_12
REMARK    5  A    between atoms: CA_11  and  C_18
REMARK                            x       y       z     vdW  Elec       q    Type
REMARK                         _______ _______ _______ _____ _____    ______ ____
ROOT
ATOM      1  C   UNL     1      -1.369   1.018   0.898  0.00  0.00    +0.016 C 
ENDROOT
BRANCH   1   3
ATOM      2  F   UNL     1       2.474  -1.956   0.654  0.00  0.00    -0.201 F 
ATOM      3  C   UNL     1       0.057   0.736   0.486  0.00  0.00    -0.021 C 
ATOM      4  C   UNL     1       0.611  -0.502   0.767  0.00  0.00    +0.028 C 
ATOM      5  C   UNL     1       0.782   1.721  -0.164  0.00  0.00    -0.001 C 
ATOM      6  C   UNL     1       1.928  -0.762   0.387  0.00  0.00    +0.173 C 
ATOM      7  C   UNL     1       2.099   1.461  -0.543  0.00  0.00    +0.039 C 
ATOM      8  C   UNL     1       2.672   0.220  -0.268  0.00  0.00    +0.161 C 
BRANCH   8   9
ATOM      9  O   UNL     1       3.958  -0.032  -0.637  0.00  0.00    -0.503 OA
ATOM     10  H   UNL     1       4.344  -0.865  -0.453  0.00  0.00    +0.292 HD
ENDBRANCH   8   9
ENDBRANCH   1   3
BRANCH   1  11
ATOM     11  CA  UNL     1      -2.383   0.641  -0.188  0.00  0.00    +0.045 C 
BRANCH  11  12
ATOM     12  N   UNL     1      -3.726   1.105   0.286  0.00  0.00    +0.389 N 
ATOM     13  H1  UNL     1      -3.692   2.107   0.475  0.00  0.00    -0.088 HD
ATOM     14  H2  UNL     1      -3.976   0.606   1.140  0.00  0.00    -0.088 HD
ATOM     15  H3  UNL     1      -4.423   0.918  -0.434  0.00  0.00    -0.088 HD
ENDBRANCH  11  12
BRANCH  11  18
ATOM     16  O   UNL     1      -2.587  -1.607   0.507  0.00  0.00    -0.248 OA
ATOM     17  OXT UNL     1      -2.148  -1.179  -1.695  0.00  0.00    -0.248 OA
ATOM     18  C   UNL     1      -2.367  -0.865  -0.491  0.00  0.00    +0.345 C 
ENDBRANCH  11  18
ENDBRANCH   1  11
TORSDOF 5
