REMARK  Name = 5388928
REMARK  7 active torsions:
REMARK  status: ('A' for Active; 'I' for Inactive)
REMARK    1  A    between atoms: CA_1  and  C_9
REMARK    2  A    between atoms: CA_1  and  N_15
REMARK    3  A    between atoms: CA_5  and  C_11
REMARK    4  A    between atoms: C_11  and  O_12
REMARK    5  A    between atoms: C_16  and  O_18
REMARK    6  A    between atoms: O_18  and  C_19
REMARK    7  A    between atoms: C_19  and  C_20
REMARK                            x       y       z     vdW  Elec       q    Type
REMARK                         _______ _______ _______ _____ _____    ______ ____
ROOT
ATOM      1  CA  UNL     1      -1.197   1.309  -0.938  0.00  0.00    +0.151 C 
ATOM      2  CB  UNL     1      -1.626   1.811  -2.296  0.00  0.00    +0.031 C 
ENDROOT
BRANCH   1   9
ATOM      3  O   UNL     1      -1.539  -1.047  -0.921  0.00  0.00    -0.273 OA
ATOM      4  N   UNL     1      -3.112   0.256   0.166  0.00  0.00    -0.270 N 
ATOM      5  CA  UNL     1      -3.873  -0.846   0.741  0.00  0.00    +0.175 C 
ATOM      6  CB  UNL     1      -4.747  -0.197   1.808  0.00  0.00    +0.033 C 
ATOM      7  CG  UNL     1      -4.964   1.218   1.277  0.00  0.00    +0.024 C 
ATOM      8  CD  UNL     1      -3.639   1.546   0.606  0.00  0.00    +0.094 C 
ATOM      9  C   UNL     1      -1.953   0.058  -0.568  0.00  0.00    +0.244 C 
BRANCH   5  11
ATOM     10  OXT UNL     1      -5.119  -0.828  -1.330  0.00  0.00    -0.248 OA
ATOM     11  C   UNL     1      -4.692  -1.442  -0.364  0.00  0.00    +0.332 C 
BRANCH  11  12
ATOM     12  O   UNL     1      -4.900  -2.763  -0.146  0.00  0.00    -0.479 OA
ATOM     13  H   UNL     1      -4.544  -3.174   0.617  0.00  0.00    +0.295 HD
ENDBRANCH  11  12
ENDBRANCH   5  11
ENDBRANCH   1   9
BRANCH   1  15
ATOM     14  O   UNL     1       0.592   1.232   1.350  0.00  0.00    -0.226 OA
ATOM     15  N   UNL     1       0.179   0.914  -0.913  0.00  0.00    -0.264 N 
ATOM     16  C   ACE A   0       0.966   0.906   0.228  0.00  0.00    +0.402 C 
ATOM     17  H   UNL     1       0.593   0.629  -1.760  0.00  0.00    +0.153 HD
BRANCH  16  18
ATOM     18  O   UNL     1       2.229   0.480  -0.074  0.00  0.00    -0.430 OA
BRANCH  18  19
ATOM     19  C   UNL     1       3.149   0.425   1.022  0.00  0.00    +0.237 C 
BRANCH  19  20
ATOM     20  C   UNL     1       4.479  -0.058   0.521  0.00  0.00    +0.021 C 
ATOM     21  C   UNL     1       4.757  -1.421   0.512  0.00  0.00    -0.001 C 
ATOM     22  C   UNL     1       5.420   0.860   0.071  0.00  0.00    -0.001 C 
ATOM     23  C   UNL     1       5.993  -1.870   0.047  0.00  0.00    -0.000 C 
ATOM     24  C   UNL     1       6.656   0.411  -0.394  0.00  0.00    -0.000 C 
ATOM     25  C   UNL     1       6.942  -0.954  -0.406  0.00  0.00    -0.000 C 
ENDBRANCH  19  20
ENDBRANCH  18  19
ENDBRANCH  16  18
ENDBRANCH   1  15
TORSDOF 7
