REMARK  Name = 36
REMARK  7 active torsions:
REMARK  status: ('A' for Active; 'I' for Inactive)
REMARK    1  A    between atoms: C_1  and  C_2
REMARK    2  A    between atoms: C_1  and  C_6
REMARK    3  A    between atoms: C_1  and  C_9
REMARK    4  A    between atoms: C_6  and  O_7
REMARK    5  A    between atoms: C_9  and  O_10
REMARK    6  A    between atoms: C_9  and  C_13
REMARK    7  A    between atoms: C_13  and  O_14
REMARK                            x       y       z     vdW  Elec       q    Type
REMARK                         _______ _______ _______ _____ _____    ______ ____
ROOT
ATOM      1  C   UNL     1       0.507   0.098   0.246  0.00  0.00    +0.137 C 
ENDROOT
BRANCH   1   2
ATOM      2  C   UNL     1       1.928   0.584  -0.153  0.00  0.00    +0.014 C 
ATOM      3  C   UNL     1       2.155   2.062   0.182  0.00  0.00    +0.001 C 
ATOM      4  C   UNL     1       3.014  -0.246   0.551  0.00  0.00    +0.001 C 
ENDBRANCH   1   2
BRANCH   1   6
ATOM      5  O   UNL     1       0.330  -1.808  -1.248  0.00  0.00    -0.250 OA
ATOM      6  C   UNL     1       0.317  -1.376  -0.101  0.00  0.00    +0.316 C 
BRANCH   6   7
ATOM      7  O   UNL     1       0.128  -2.169   0.983  0.00  0.00    -0.480 OA
ATOM      8  H   UNL     1       0.126  -1.796   1.842  0.00  0.00    +0.295 HD
ENDBRANCH   6   7
ENDBRANCH   1   6
BRANCH   1   9
ATOM      9  C   UNL     1      -0.686   0.892  -0.338  0.00  0.00    +0.220 C 
BRANCH   9  10
ATOM     10  O   UNL     1      -0.696   0.786  -1.748  0.00  0.00    -0.374 OA
ATOM     11  H   UNL     1       0.166   1.062  -2.099  0.00  0.00    +0.211 HD
ENDBRANCH   9  10
BRANCH   9  13
ATOM     12  O   UNL     1      -2.953   0.027  -0.325  0.00  0.00    -0.248 OA
ATOM     13  C   UNL     1      -2.004   0.479   0.305  0.00  0.00    +0.342 C 
BRANCH  13  14
ATOM     14  O   UNL     1      -2.041   0.669   1.646  0.00  0.00    -0.479 OA
ATOM     15  H   UNL     1      -1.293   1.018   2.091  0.00  0.00    +0.295 HD
ENDBRANCH  13  14
ENDBRANCH   9  13
ENDBRANCH   1   9
TORSDOF 7
