REMARK  Name = 17753793
REMARK  10 active torsions:
REMARK  status: ('A' for Active; 'I' for Inactive)
REMARK    1  A    between atoms: C_3  and  C_18
REMARK    2  A    between atoms: C_5  and  S_7
REMARK    3  A    between atoms: S_7  and  C_8
REMARK    4  A    between atoms: C_8  and  C_9
REMARK    5  A    between atoms: C_9  and  N_10
REMARK    6  A    between atoms: C_9  and  C_15
REMARK    7  A    between atoms: C_15  and  O_16
REMARK    8  A    between atoms: C_18  and  N_19
REMARK    9  A    between atoms: C_18  and  C_24
REMARK   10  A    between atoms: C_24  and  O_25
REMARK                            x       y       z     vdW  Elec       q    Type
REMARK                         _______ _______ _______ _____ _____    ______ ____
ROOT
ATOM      1  O   UNK     1      -2.314   1.574   0.832  0.00  0.00    -0.289 OA
ATOM      2  N   UNK     1      -0.974   1.936   0.360  0.00  0.00    -0.181 NA
ATOM      3  C   UNK     1      -2.324   0.172   1.116  0.00  0.00    +0.130 C 
ATOM      4  C   UNK     1      -1.115  -0.389   0.404  0.00  0.00    +0.059 C 
ATOM      5  C   UNK     1      -0.141   0.752   0.570  0.00  0.00    +0.129 C 
ATOM      6  H   UNK     1      -0.610   2.724   0.896  0.00  0.00    +0.156 HD
ENDROOT
BRANCH   5   7
ATOM      7  S   UNK     1       1.236   0.645  -0.597  0.00  0.00    -0.125 S 
BRANCH   7   8
ATOM      8  C   UNK     1       2.236  -0.582   0.278  0.00  0.00    +0.048 C 
BRANCH   8   9
ATOM      9  C   UNK     1       3.559  -0.857  -0.438  0.00  0.00    +0.047 C 
BRANCH   9  10
ATOM     10  N   UNK     1       4.120  -2.131   0.017  0.00  0.00    +0.389 N 
ATOM     11  H   UNK     1       3.446  -2.878  -0.151  0.00  0.00    -0.088 HD
ATOM     12  H   UNK     1       4.324  -2.076   1.015  0.00  0.00    -0.088 HD
ATOM     13  H   UNK     1       4.980  -2.327  -0.495  0.00  0.00    -0.088 HD
ENDBRANCH   9  10
BRANCH   9  15
ATOM     14  O   UNK     1       5.353   0.198   0.795  0.00  0.00    -0.253 OA
ATOM     15  C   UNK     1       4.594   0.219  -0.167  0.00  0.00    +0.294 C 
BRANCH  15  16
ATOM     16  O   UNK     1       4.580   1.232  -1.071  0.00  0.00    -0.482 OA
ATOM     17  H   UNK     1       3.983   1.208  -1.792  0.00  0.00    +0.295 HD
ENDBRANCH  15  16
ENDBRANCH   9  15
ENDBRANCH   8   9
ENDBRANCH   7   8
ENDBRANCH   5   7
BRANCH   3  18
ATOM     18  C   UNK     1      -3.631  -0.440   0.648  0.00  0.00    +0.065 C 
BRANCH  18  19
ATOM     19  N   UNK     1      -3.654  -1.869   0.962  0.00  0.00    +0.390 N 
ATOM     20  H   UNK     1      -3.545  -1.998   1.968  0.00  0.00    -0.088 HD
ATOM     21  H   UNK     1      -2.890  -2.336   0.475  0.00  0.00    -0.088 HD
ATOM     22  H   UNK     1      -4.544  -2.269   0.663  0.00  0.00    -0.088 HD
ENDBRANCH  18  19
BRANCH  18  24
ATOM     23  O   UNK     1      -3.880  -1.196  -1.668  0.00  0.00    -0.253 OA
ATOM     24  C   UNK     1      -3.796  -0.290  -0.851  0.00  0.00    +0.295 C 
BRANCH  24  25
ATOM     25  O   UNK     1      -3.849   1.025  -1.191  0.00  0.00    -0.482 OA
ATOM     26  H   UNK     1      -3.780   1.683  -0.527  0.00  0.00    +0.295 HD
ENDBRANCH  24  25
ENDBRANCH  18  24
ENDBRANCH   3  18
TORSDOF 10
