REMARK  Name = 444732
REMARK  7 active torsions:
REMARK  status: ('A' for Active; 'I' for Inactive)
REMARK    1  A    between atoms: C_1  and  C_3
REMARK    2  A    between atoms: C_1  and  C_15
REMARK    3  A    between atoms: C_4  and  C_6
REMARK    4  A    between atoms: C_7  and  C_10
REMARK    5  A    between atoms: N_9  and  O_12
REMARK    6  A    between atoms: C_15  and  C_16
REMARK    7  A    between atoms: C_17  and  N_22
REMARK                            x       y       z     vdW  Elec       q    Type
REMARK                         _______ _______ _______ _____ _____    ______ ____
ROOT
ATOM      1  C   UNL     1       0.008   1.926   0.515  0.00  0.00    +0.084 C 
ATOM      2  C   UNL     1       0.022   3.421   0.837  0.00  0.00    +0.013 C 
ENDROOT
BRANCH   1   3
ATOM      3  C   UNL     1       1.383   1.474   0.089  0.00  0.00    -0.023 C 
ATOM      4  C   UNL     1       2.170   0.541   0.667  0.00  0.00    -0.026 C 
ATOM      5  C   UNL     1       1.805  -0.207   1.922  0.00  0.00    +0.031 C 
BRANCH   4   6
ATOM      6  C   UNL     1       3.467   0.241   0.052  0.00  0.00    +0.000 C 
ATOM      7  C   UNL     1       4.367  -0.651   0.492  0.00  0.00    +0.059 C 
BRANCH   7  10
ATOM      8  O   UNL     1       5.930  -0.226  -1.263  0.00  0.00    -0.268 OA
ATOM      9  N   UNL     1       6.434  -1.800   0.352  0.00  0.00    -0.193 N 
ATOM     10  C   UNL     1       5.647  -0.849  -0.245  0.00  0.00    +0.268 C 
ATOM     11  H   UNL     1       6.155  -2.271   1.171  0.00  0.00    +0.183 HD
BRANCH   9  12
ATOM     12  O   UNL     1       7.660  -2.060  -0.276  0.00  0.00    -0.295 OA
ATOM     13  H   UNL     1       8.139  -2.743   0.219  0.00  0.00    +0.241 HD
ENDBRANCH   9  12
ENDBRANCH   7  10
ENDBRANCH   4   6
ENDBRANCH   1   3
BRANCH   1  15
ATOM     14  O   UNL     1      -0.742   2.104  -1.772  0.00  0.00    -0.291 OA
ATOM     15  C   UNL     1      -0.947   1.649  -0.648  0.00  0.00    +0.177 C 
BRANCH  15  16
ATOM     16  C   UNL     1      -2.150   0.793  -0.433  0.00  0.00    +0.035 C 
ATOM     17  C   UNL     1      -4.369  -0.787  -0.038  0.00  0.00    +0.048 C 
ATOM     18  C   UNL     1      -2.736   0.777   0.812  0.00  0.00    +0.004 C 
ATOM     19  C   UNL     1      -2.628   0.051  -1.489  0.00  0.00    +0.004 C 
ATOM     20  C   UNL     1      -3.860  -0.024   1.013  0.00  0.00    +0.015 C 
ATOM     21  C   UNL     1      -3.753  -0.750  -1.289  0.00  0.00    +0.015 C 
BRANCH  17  22
ATOM     22  N   UNL     1      -5.505  -1.597   0.165  0.00  0.00    -0.304 N 
ATOM     23  C   UNL     1      -6.152  -1.643   1.461  0.00  0.00    +0.112 C 
ATOM     24  C   UNL     1      -6.050  -2.384  -0.924  0.00  0.00    +0.112 C 
ENDBRANCH  17  22
ENDBRANCH  15  16
ENDBRANCH   1  15
TORSDOF 7
