25200582
  -OEChem-10051720323D

 21 21  0     1  0  0  0  0  0999 V2000
   -3.9276    0.2086   -0.4138 O   0  0  0  0  0  0  0  0  0  0  0  0
    2.2175   -0.1340   -1.5874 O   0  5  0  0  0  0  0  0  0  0  0  0
    3.1316    1.3663   -0.1268 O   0  0  0  0  0  0  0  0  0  0  0  0
    2.0124   -1.6176    1.0671 N   0  3  0  0  0  0  0  0  0  0  0  0
    1.5851   -0.2184    0.7077 C   0  0  2  0  0  0  0  0  0  0  0  0
    0.1280   -0.1052    0.4117 C   0  0  0  0  0  0  0  0  0  0  0  0
   -0.5699    1.0477    0.7715 C   0  0  0  0  0  0  0  0  0  0  0  0
   -0.5371   -1.1527   -0.2255 C   0  0  0  0  0  0  0  0  0  0  0  0
    2.3905    0.3944   -0.4530 C   0  0  0  0  0  0  0  0  0  0  0  0
   -1.9328    1.1531    0.4941 C   0  0  0  0  0  0  0  0  0  0  0  0
   -1.9000   -1.0475   -0.5027 C   0  0  0  0  0  0  0  0  0  0  0  0
   -2.5978    0.1054   -0.1429 C   0  0  0  0  0  0  0  0  0  0  0  0
    1.8010    0.3473    1.6233 H   0  0  0  0  0  0  0  0  0  0  0  0
    2.9831   -1.6240    1.4083 H   0  0  0  0  0  0  0  0  0  0  0  0
    1.9753   -2.2542    0.2601 H   0  0  0  0  0  0  0  0  0  0  0  0
    1.4252   -2.0148    1.8128 H   0  0  0  0  0  0  0  0  0  0  0  0
   -0.0635    1.8721    1.2666 H   0  0  0  0  0  0  0  0  0  0  0  0
   -0.0215   -2.0575   -0.5330 H   0  0  0  0  0  0  0  0  0  0  0  0
   -2.4710    2.0539    0.7762 H   0  0  0  0  0  0  0  0  0  0  0  0
   -2.4061   -1.8690   -1.0026 H   0  0  0  0  0  0  0  0  0  0  0  0
   -4.2231   -0.6058   -0.8561 H   0  0  0  0  0  0  0  0  0  0  0  0
  1 12  1  0  0  0  0
  1 21  1  0  0  0  0
  2  9  1  0  0  0  0
  3  9  2  0  0  0  0
  4  5  1  0  0  0  0
  4 14  1  0  0  0  0
  4 15  1  0  0  0  0
  4 16  1  0  0  0  0
  5  6  1  0  0  0  0
  5  9  1  0  0  0  0
  5 13  1  0  0  0  0
  6  7  2  0  0  0  0
  6  8  1  0  0  0  0
  7 10  1  0  0  0  0
  7 17  1  0  0  0  0
  8 11  2  0  0  0  0
  8 18  1  0  0  0  0
 10 12  2  0  0  0  0
 10 19  1  0  0  0  0
 11 12  1  0  0  0  0
 11 20  1  0  0  0  0
M  CHG  2   2  -1   4   1
M  END
> <DATABASE_ID>
DB04308

> <DATABASE_NAME>
drugbank

> <ORIGINAL_SOURCE>
PUBCHEM

> <ORIGINAL_SOURCE_URL>
https://pubchem.ncbi.nlm.nih.gov/rest/pug/compound/inchikey/LJCWONGJFPCTTL-SSDOTTSWSA-N/SDF?record_type=3d

> <SMILES>
[H][C@](N)(C(O)=O)C1=CC=C(O)C=C1

> <INCHI_IDENTIFIER>
InChI=1S/C8H9NO3/c9-7(8(11)12)5-1-3-6(10)4-2-5/h1-4,7,10H,9H2,(H,11,12)/t7-/m1/s1

> <INCHI_KEY>
LJCWONGJFPCTTL-SSDOTTSWSA-N

> <FORMULA>
C8H9NO3

> <MOLECULAR_WEIGHT>
167.162

> <EXACT_MASS>
167.058243159

> <JCHEM_ACCEPTOR_COUNT>
4

> <JCHEM_AVERAGE_POLARIZABILITY>
16.103775281757585

> <JCHEM_BIOAVAILABILITY>
1

> <JCHEM_DONOR_COUNT>
3

> <JCHEM_FORMAL_CHARGE>
0

> <JCHEM_GHOSE_FILTER>
0

> <JCHEM_IUPAC>
(2R)-2-amino-2-(4-hydroxyphenyl)acetic acid

> <ALOGPS_LOGP>
-2.44

> <JCHEM_LOGP>
-1.7768551612088122

> <ALOGPS_LOGS>
-1.35

> <JCHEM_MDDR_LIKE_RULE>
0

> <JCHEM_NUMBER_OF_RINGS>
1

> <JCHEM_PHYSIOLOGICAL_CHARGE>
0

> <JCHEM_PKA>
9.588308589045008

> <JCHEM_PKA_STRONGEST_ACIDIC>
1.7398199298342538

> <JCHEM_PKA_STRONGEST_BASIC>
8.745202161521709

> <JCHEM_POLAR_SURFACE_AREA>
83.55000000000001

> <JCHEM_REFRACTIVITY>
42.3422

> <JCHEM_ROTATABLE_BOND_COUNT>
2

> <JCHEM_RULE_OF_FIVE>
1

> <ALOGPS_SOLUBILITY>
7.44e+00 g/l

> <JCHEM_TRADITIONAL_IUPAC>
D-4-hydroxyphenylglycine

> <JCHEM_VEBER_RULE>
0

> <DRUGBANK_ID>
DB04308

> <SECONDARY_ACCESSION_NUMBERS>
EXPT01178

> <DRUG_GROUPS>
experimental

> <GENERIC_NAME>
D-4-hydroxyphenylglycine

> <SYNONYMS>
(R)-(4-hydroxyphenyl)glycine; (R)-2-(4-hydroxyphenyl)glycine; (R)-alpha-Amino-4-hydroxybenzeneacetic acid; (R)-ethyl 2-amino-2-(4-hydroxyphenyl)acetate; 4-hydroxy-d-phenylglycine; D-(-)-2-(p-hydroxyphenyl)glycine; D-(-)-4-hydroxyphenylglycine; D-(-)-amino(4-hydroxyphenyl)acetic acid; D-(-)-p-hydroxyphenylglycine; D-2-amino-2-(p-hydroxyphenyl)acetic acid; D-4-hydroxyphenylglycine; D-N-(4-Hydroxyphenyl)glycine; D-p-hydroxyphenylglycine; P-hydroxy-(R)-phenylglycine; P-hydroxy-d-phenylglycine

$$$$
