REMARK  Name = 2374
REMARK  4 active torsions:
REMARK  status: ('A' for Active; 'I' for Inactive)
REMARK    1  A    between atoms: C_1  and  C_7
REMARK    2  A    between atoms: C_2  and  C_11
REMARK    3  A    between atoms: C_3  and  O_15
REMARK    4  A    between atoms: C_4  and  O_17
REMARK                            x       y       z     vdW  Elec       q    Type
REMARK                         _______ _______ _______ _____ _____    ______ ____
ROOT
ATOM      1  C   UNL     1      -1.357  -0.107   0.006  0.00  0.00    +0.014 C 
ATOM      2  C   UNL     1       1.379   0.110   0.005  0.00  0.00    +0.014 C 
ATOM      3  C   UNL     1      -0.802   1.148   0.005  0.00  0.00    +0.129 C 
ATOM      4  C   UNL     1       0.780  -1.150   0.005  0.00  0.00    +0.129 C 
ATOM      5  C   UNL     1      -0.611  -1.260   0.006  0.00  0.00    +0.035 C 
ATOM      6  C   UNL     1       0.588   1.258   0.005  0.00  0.00    +0.035 C 
ENDROOT
BRANCH   1   7
ATOM      7  C   UNL     1      -2.888  -0.249   0.004  0.00  0.00    +0.022 C 
ATOM      8  C   UNL     1      -3.272  -1.744   0.004  0.00  0.00    +0.004 C 
ATOM      9  C   UNL     1      -3.471   0.426  -1.256  0.00  0.00    +0.004 C 
ATOM     10  C   UNL     1      -3.577   0.398   1.228  0.00  0.00    +0.004 C 
ENDBRANCH   1   7
BRANCH   2  11
ATOM     11  C   UNL     1       2.866   0.247   0.004  0.00  0.00    +0.022 C 
ATOM     12  C   UNL     1       3.294   1.746   0.004  0.00  0.00    +0.004 C 
ATOM     13  C   UNL     1       3.494  -0.423  -1.256  0.00  0.00    +0.004 C 
ATOM     14  C   UNL     1       3.598  -0.396   1.228  0.00  0.00    +0.004 C 
ENDBRANCH   2  11
BRANCH   3  15
ATOM     15  O   UNL     1      -1.560   2.280   0.005  0.00  0.00    -0.506 OA
ATOM     16  H   UNL     1      -2.495   2.218   0.005  0.00  0.00    +0.292 HD
ENDBRANCH   3  15
BRANCH   4  17
ATOM     17  O   UNL     1       1.538  -2.282   0.004  0.00  0.00    -0.506 OA
ATOM     18  H   UNL     1       2.473  -2.220   0.004  0.00  0.00    +0.292 HD
ENDBRANCH   4  17
TORSDOF 4
