REMARK  Name = 92092
REMARK  10 active torsions:
REMARK  status: ('A' for Active; 'I' for Inactive)
REMARK    1  A    between atoms: C_1  and  O_2
REMARK    2  A    between atoms: C_1  and  C_4
REMARK    3  A    between atoms: C_1  and  C_10
REMARK    4  A    between atoms: C_4  and  O_5
REMARK    5  A    between atoms: C_4  and  C_7
REMARK    6  A    between atoms: C_7  and  O_8
REMARK    7  A    between atoms: C_10  and  O_11
REMARK    8  A    between atoms: C_10  and  C_14
REMARK    9  A    between atoms: C_14  and  C_15
REMARK   10  A    between atoms: C_15  and  O_16
REMARK                            x       y       z     vdW  Elec       q    Type
REMARK                         _______ _______ _______ _____ _____    ______ ____
ROOT
ATOM      1  C   UNL     1      -0.623   1.172   0.114  0.00  0.00    +0.174 C 
ENDROOT
BRANCH   1   2
ATOM      2  O   UNL     1      -0.320   1.990  -1.013  0.00  0.00    -0.379 OA
ATOM      3  H   UNL     1      -1.144   2.243  -1.459  0.00  0.00    +0.211 HD
ENDBRANCH   1   2
BRANCH   1   4
ATOM      4  C   UNL     1      -1.543   0.020  -0.330  0.00  0.00    +0.169 C 
BRANCH   4   5
ATOM      5  O   UNL     1      -2.703   0.545  -0.976  0.00  0.00    -0.379 OA
ATOM      6  H   UNL     1      -2.434   1.087  -1.733  0.00  0.00    +0.211 HD
ENDBRANCH   4   5
BRANCH   4   7
ATOM      7  C   UNL     1      -2.006  -0.827   0.856  0.00  0.00    +0.169 C 
BRANCH   7   8
ATOM      8  O   UNL     1      -2.823  -1.888   0.371  0.00  0.00    -0.379 OA
ATOM      9  H   UNL     1      -3.122  -2.432   1.116  0.00  0.00    +0.211 HD
ENDBRANCH   7   8
ENDBRANCH   4   7
ENDBRANCH   1   4
BRANCH   1  10
ATOM     10  C   UNL     1       0.666   0.756   0.839  0.00  0.00    +0.200 C 
BRANCH  10  11
ATOM     11  O   UNL     1       1.367   1.935   1.215  0.00  0.00    -0.375 OA
ATOM     12  H   UNL     1       0.779   2.511   1.728  0.00  0.00    +0.211 HD
ENDBRANCH  10  11
BRANCH  10  14
ATOM     13  O   UNL     1       2.488   0.357  -0.692  0.00  0.00    -0.291 OA
ATOM     14  C   UNL     1       1.618  -0.127   0.034  0.00  0.00    +0.209 C 
BRANCH  14  15
ATOM     15  C   UNL     1       1.469  -1.628   0.195  0.00  0.00    +0.205 C 
BRANCH  15  16
ATOM     16  O   UNL     1       2.411  -2.305  -0.612  0.00  0.00    -0.375 OA
ATOM     17  H   UNL     1       2.304  -3.263  -0.499  0.00  0.00    +0.211 HD
ENDBRANCH  15  16
ENDBRANCH  14  15
ENDBRANCH  10  14
ENDBRANCH   1  10
TORSDOF 10
