REMARK  Name = 447508
REMARK  3 active torsions:
REMARK  status: ('A' for Active; 'I' for Inactive)
REMARK    1  A    between atoms: C_2  and  C_12
REMARK    2  A    between atoms: C_8  and  C_23
REMARK    3  A    between atoms: C_14  and  O_19
REMARK                            x       y       z     vdW  Elec       q    Type
REMARK                         _______ _______ _______ _____ _____    ______ ____
ROOT
ATOM      1  N   UNL     1      -0.017   1.016  -0.429  0.00  0.00    -0.312 N 
ATOM      2  C   UNL     1       0.631  -0.121  -0.028  0.00  0.00    +0.051 C 
ATOM      3  C   UNL     1      -1.599  -0.456   0.127  0.00  0.00    +0.015 C 
ATOM      4  C   UNL     1      -1.380   0.841  -0.345  0.00  0.00    +0.048 C 
ATOM      5  C   UNL     1      -0.321  -1.050   0.322  0.00  0.00    +0.016 C 
ATOM      6  C   UNL     1      -2.925  -0.897   0.306  0.00  0.00    +0.004 C 
ATOM      7  C   UNL     1      -2.425   1.721  -0.647  0.00  0.00    +0.015 C 
ATOM      8  C   UNL     1      -3.980  -0.027   0.008  0.00  0.00    +0.031 C 
ATOM      9  C   UNL     1      -3.732   1.261  -0.461  0.00  0.00    +0.004 C 
ATOM     10  H   UNL     1       0.427   1.840  -0.733  0.00  0.00    +0.152 HD
ENDROOT
BRANCH   2  12
ATOM     11 BR   UNL     1       5.369   2.302   0.495  0.00  0.00    -0.046 Br
ATOM     12  C   UNL     1       2.071  -0.217  -0.015  0.00  0.00    +0.047 C 
ATOM     13  C   UNL     1       2.670  -1.460  -0.224  0.00  0.00    +0.000 C 
ATOM     14  C   UNL     1       2.866   0.910   0.200  0.00  0.00    +0.141 C 
ATOM     15  C   UNL     1       4.061  -1.576  -0.216  0.00  0.00    -0.021 C 
ATOM     16  C   UNL     1       4.256   0.794   0.207  0.00  0.00    +0.068 C 
ATOM     17  C   UNL     1       4.853  -0.449  -0.001  0.00  0.00    +0.005 C 
ATOM     18  C   UNL     1       4.699  -2.905  -0.439  0.00  0.00    +0.031 C 
BRANCH  14  19
ATOM     19  O   UNL     1       2.277   2.126   0.404  0.00  0.00    -0.505 OA
ATOM     20  H   UNL     1       1.343   2.200   0.399  0.00  0.00    +0.292 HD
ENDBRANCH  14  19
ENDBRANCH   2  12
BRANCH   8  23
ATOM     21  N   UNL     1      -6.431   0.358  -0.094  0.00  0.00    -0.343 N 
ATOM     22  N   UNL     1      -5.591  -1.695   0.638  0.00  0.00    -0.285 NA
ATOM     23  C   UNL     1      -5.352  -0.476   0.190  0.00  0.00    +0.117 C 
ATOM     24  H   UNL     1      -7.352   0.035   0.036  0.00  0.00    +0.144 HD
ATOM     25  H   UNL     1      -6.273   1.272  -0.426  0.00  0.00    +0.144 HD
ATOM     26  H   UNL     1      -6.519  -2.001   0.763  0.00  0.00    +0.188 HD
ENDBRANCH   8  23
TORSDOF 3
