REMARK  Name = 8631
REMARK  3 active torsions:
REMARK  status: ('A' for Active; 'I' for Inactive)
REMARK    1  A    between atoms: C_3  and  C_12
REMARK    2  A    between atoms: C_4  and  O_9
REMARK    3  A    between atoms: C_12  and  O_13
REMARK                            x       y       z     vdW  Elec       q    Type
REMARK                         _______ _______ _______ _____ _____    ______ ____
ROOT
ATOM      1  I   UNL     1       2.143   3.042   0.112  0.00  0.00    -0.039 I 
ATOM      2  I   UNL     1       2.674  -2.927  -0.115  0.00  0.00    -0.043 I 
ATOM      3  C   UNL     1      -0.737  -0.243  -0.022  0.00  0.00    +0.110 C 
ATOM      4  C   UNL     1      -0.162   1.027   0.029  0.00  0.00    +0.145 C 
ATOM      5  C   UNL     1       0.076  -1.376  -0.063  0.00  0.00    +0.015 C 
ATOM      6  C   UNL     1       1.227   1.164   0.037  0.00  0.00    +0.064 C 
ATOM      7  C   UNL     1       1.464  -1.239  -0.054  0.00  0.00    +0.031 C 
ATOM      8  C   UNL     1       2.039   0.031  -0.004  0.00  0.00    +0.015 C 
ENDROOT
BRANCH   4   9
ATOM      9  O   UNL     1      -0.975   2.123   0.068  0.00  0.00    -0.505 OA
ATOM     10  H   UNL     1      -1.906   2.015   0.062  0.00  0.00    +0.292 HD
ENDBRANCH   4   9
BRANCH   3  12
ATOM     11  O   UNL     1      -2.993   0.390  -0.507  0.00  0.00    -0.245 OA
ATOM     12  C   UNL     1      -2.184  -0.412  -0.032  0.00  0.00    +0.341 C 
BRANCH  12  13
ATOM     13  O   UNL     1      -2.573  -1.578   0.551  0.00  0.00    -0.477 OA
ATOM     14  H   UNL     1      -1.931  -2.164   0.901  0.00  0.00    +0.295 HD
ENDBRANCH  12  13
ENDBRANCH   3  12
TORSDOF 3
