REMARK  Name = 24466
REMARK  1 active torsions:
REMARK  status: ('A' for Active; 'I' for Inactive)
REMARK    1  A    between atoms: C_5  and  C_16
REMARK                            x       y       z     vdW  Elec       q    Type
REMARK                         _______ _______ _______ _____ _____    ______ ____
ROOT
ATOM      1  N   UNL     1       2.954   1.201   0.072  0.00  0.00    -0.337 NA
ATOM      2  N   UNL     1       2.966  -1.208   0.075  0.00  0.00    -0.317 NA
ATOM      3  N   UNL     1       0.943  -2.421  -0.082  0.00  0.00    -0.335 N 
ATOM      4  N   UNL     1       4.968   0.007   0.230  0.00  0.00    -0.283 N 
ATOM      5  C   UNL     1       0.881  -0.014  -0.088  0.00  0.00    +0.138 C 
ATOM      6  C   UNL     1       1.610   1.157  -0.033  0.00  0.00    +0.112 C 
ATOM      7  C   UNL     1       1.622  -1.178  -0.030  0.00  0.00    +0.178 C 
ATOM      8  C   UNL     1       0.931   2.488  -0.086  0.00  0.00    +0.063 C 
ATOM      9  C   UNL     1       3.560   0.000   0.120  0.00  0.00    +0.196 C 
ATOM     10  H   UNL     1       1.452  -3.263  -0.042  0.00  0.00    +0.144 HD
ATOM     11  H   UNL     1      -0.039  -2.443  -0.158  0.00  0.00    +0.144 HD
ATOM     12  H   UNL     1       5.454   0.862   0.267  0.00  0.00    +0.156 HD
ATOM     13  H   UNL     1       5.463  -0.843   0.269  0.00  0.00    +0.156 HD
ENDROOT
BRANCH   5  16
ATOM     14 CL   UNL     1      -3.666   0.002   2.301  0.00  0.00    -0.081 Cl
ATOM     15 CL   UNL     1      -5.059   0.004  -0.620  0.00  0.00    -0.081 Cl
ATOM     16  C   UNL     1      -0.561  -0.011  -0.200  0.00  0.00    -0.007 C 
ATOM     17  C   UNL     1      -1.351  -0.007   0.949  0.00  0.00    +0.009 C 
ATOM     18  C   UNL     1      -1.162  -0.010  -1.459  0.00  0.00    -0.003 C 
ATOM     19  C   UNL     1      -2.741  -0.003   0.840  0.00  0.00    +0.068 C 
ATOM     20  C   UNL     1      -2.552  -0.005  -1.569  0.00  0.00    +0.012 C 
ATOM     21  C   UNL     1      -3.342  -0.002  -0.419  0.00  0.00    +0.068 C 
ENDBRANCH   5  16
TORSDOF 1
