REMARK  Name = 447153
REMARK  2 active torsions:
REMARK  status: ('A' for Active; 'I' for Inactive)
REMARK    1  A    between atoms: C_3  and  C_9
REMARK    2  A    between atoms: C_9  and  O_10
REMARK                            x       y       z     vdW  Elec       q    Type
REMARK                         _______ _______ _______ _____ _____    ______ ____
ROOT
ATOM      1  F   UNL     1      -0.207   2.020  -0.215  0.00  0.00    -0.202 F 
ATOM      2  F   UNL     1       2.400   1.332   0.189  0.00  0.00    -0.202 F 
ATOM      3  C   UNL     1      -0.837  -0.269  -0.254  0.00  0.00    +0.037 C 
ATOM      4  C   UNL     1       0.133   0.727  -0.134  0.00  0.00    +0.166 C 
ATOM      5  C   UNL     1      -0.473  -1.612  -0.167  0.00  0.00    +0.001 C 
ATOM      6  C   UNL     1       1.468   0.378   0.073  0.00  0.00    +0.167 C 
ATOM      7  C   UNL     1       0.862  -1.961   0.040  0.00  0.00    +0.002 C 
ATOM      8  C   UNL     1       1.832  -0.966   0.160  0.00  0.00    +0.032 C 
ENDROOT
BRANCH   3   9
ATOM      9  C   UNL     1      -2.265   0.101  -0.474  0.00  0.00    +0.166 C 
BRANCH   9  10
ATOM     10  O   UNL     1      -2.914   0.250   0.783  0.00  0.00    -0.377 OA
ATOM     11  H   UNL     1      -3.843   0.490   0.641  0.00  0.00    +0.211 HD
ENDBRANCH   9  10
ENDBRANCH   3   9
TORSDOF 2
