REMARK  Name = 132302
REMARK  4 active torsions:
REMARK  status: ('A' for Active; 'I' for Inactive)
REMARK    1  A    between atoms: N_1  and  S_13
REMARK    2  A    between atoms: C_11  and  C_19
REMARK    3  A    between atoms: S_13  and  N_16
REMARK    4  A    between atoms: C_19  and  O_20
REMARK                            x       y       z     vdW  Elec       q    Type
REMARK                         _______ _______ _______ _____ _____    ______ ____
ROOT
ATOM      1  N   UNL     1      -2.153  -0.370  -0.115  0.00  0.00    -0.142 NA
ATOM      2  N   UNL     1       0.675  -0.542   0.025  0.00  0.00    -0.280 N 
ATOM      3  N   UNL     1       2.765   0.589  -0.276  0.00  0.00    -0.337 NA
ATOM      4  N   UNL     1       4.836  -0.608   0.013  0.00  0.00    -0.184 NA
ATOM      5  C   UNL     1      -1.409   0.436   0.894  0.00  0.00    +0.118 C 
ATOM      6  C   UNL     1      -1.474  -1.673  -0.363  0.00  0.00    +0.118 C 
ATOM      7  C   UNL     1       0.002   0.715   0.383  0.00  0.00    +0.112 C 
ATOM      8  C   UNL     1      -0.062  -1.424  -0.887  0.00  0.00    +0.112 C 
ATOM      9  C   UNL     1       2.074  -0.552   0.018  0.00  0.00    +0.196 C 
ATOM     10  C   UNL     1       2.736  -1.744   0.316  0.00  0.00    +0.070 C 
ATOM     11  C   UNL     1       4.108   0.492  -0.260  0.00  0.00    +0.096 C 
ATOM     12  C   UNL     1       4.115  -1.712   0.298  0.00  0.00    +0.114 C 
ENDROOT
BRANCH   1  13
ATOM     13  S   UNL     1      -3.848  -0.456   0.118  0.00  0.00    +0.102 S 
ATOM     14  O   UNL     1      -4.093  -0.930   1.467  0.00  0.00    -0.141 OA
ATOM     15  O   UNL     1      -4.423  -1.154  -1.015  0.00  0.00    -0.141 OA
BRANCH  13  16
ATOM     16  N   UNL     1      -4.275   1.215   0.024  0.00  0.00    -0.142 NA
ATOM     17  C   UNL     1      -3.958   1.924  -1.243  0.00  0.00    +0.116 C 
ATOM     18  C   UNL     1      -5.605   1.604   0.561  0.00  0.00    +0.116 C 
ENDBRANCH  13  16
ENDBRANCH   1  13
BRANCH  11  19
ATOM     19  C   UNL     1       4.869   1.733  -0.580  0.00  0.00    +0.251 C 
BRANCH  19  20
ATOM     20  O   UNL     1       5.119   2.456   0.619  0.00  0.00    -0.368 OA
ATOM     21  H   UNL     1       5.615   3.264   0.412  0.00  0.00    +0.212 HD
ENDBRANCH  19  20
ENDBRANCH  11  19
TORSDOF 4
