REMARK  Name = 5326886
REMARK  8 active torsions:
REMARK  status: ('A' for Active; 'I' for Inactive)
REMARK    1  A    between atoms: N_3  and  C_20
REMARK    2  A    between atoms: C_6  and  C_11
REMARK    3  A    between atoms: C_19  and  O_25
REMARK    4  A    between atoms: O_25  and  C_26
REMARK    5  A    between atoms: C_26  and  C_27
REMARK    6  A    between atoms: C_27  and  C_28
REMARK    7  A    between atoms: C_28  and  C_30
REMARK    8  A    between atoms: C_30  and  O_31
REMARK                            x       y       z     vdW  Elec       q    Type
REMARK                         _______ _______ _______ _____ _____    ______ ____
ROOT
ATOM      1  O   UNL     1       1.362   2.011  -0.064  0.00  0.00    -0.252 OA
ATOM      2  O   UNL     1       4.091   2.344   0.355  0.00  0.00    -0.270 OA
ATOM      3  N   UNL     1       0.752  -0.243  -0.348  0.00  0.00    -0.268 N 
ATOM      4  N   UNL     1       2.967   0.332   0.021  0.00  0.00    -0.236 N 
ATOM      5  C   UNL     1       1.651   0.819  -0.125  0.00  0.00    +0.310 C 
ATOM      6  C   UNL     1       4.093   1.121   0.250  0.00  0.00    +0.253 C 
ATOM      7  H   UNL     1       1.150  -1.144  -0.371  0.00  0.00    +0.156 HD
ATOM      8  H   UNL     1       3.100  -0.641  -0.044  0.00  0.00    +0.159 HD
ENDROOT
BRANCH   6  11
ATOM      9 CL   UNL     1       6.392   1.779  -1.706  0.00  0.00    -0.082 Cl
ATOM     10 CL   UNL     1       9.200  -1.930   0.998  0.00  0.00    -0.082 Cl
ATOM     11  C   UNL     1       5.373   0.383   0.405  0.00  0.00    +0.064 C 
ATOM     12  C   UNL     1       6.465   0.615  -0.432  0.00  0.00    +0.063 C 
ATOM     13  C   UNL     1       5.465  -0.563   1.426  0.00  0.00    +0.006 C 
ATOM     14  C   UNL     1       7.649  -0.100  -0.248  0.00  0.00    +0.023 C 
ATOM     15  C   UNL     1       6.649  -1.278   1.609  0.00  0.00    +0.012 C 
ATOM     16  C   UNL     1       7.740  -1.047   0.772  0.00  0.00    +0.059 C 
ENDBRANCH   6  11
BRANCH   3  20
ATOM     17  C   UNL     1      -2.756  -1.259  -0.942  0.00  0.00    +0.009 C 
ATOM     18  C   UNL     1      -1.377  -1.342  -0.751  0.00  0.00    -0.009 C 
ATOM     19  C   UNL     1      -3.389  -0.016  -0.923  0.00  0.00    +0.134 C 
ATOM     20  C   UNL     1      -0.630  -0.183  -0.541  0.00  0.00    +0.047 C 
ATOM     21  C   UNL     1      -2.642   1.144  -0.714  0.00  0.00    +0.038 C 
ATOM     22  C   UNL     1      -1.263   1.060  -0.523  0.00  0.00    +0.017 C 
ATOM     23  C   UNL     1      -3.564  -2.497  -1.168  0.00  0.00    +0.034 C 
ATOM     24  C   UNL     1      -0.700  -2.678  -0.772  0.00  0.00    +0.032 C 
BRANCH  19  25
ATOM     25  O   UNL     1      -4.743   0.086  -1.108  0.00  0.00    -0.476 OA
BRANCH  25  26
ATOM     26  C   UNL     1      -5.492   0.667  -0.050  0.00  0.00    +0.206 C 
BRANCH  26  27
ATOM     27  C   UNL     1      -6.900   0.085  -0.028  0.00  0.00    +0.059 C 
BRANCH  27  28
ATOM     28  C   UNL     1      -7.748   0.662   1.106  0.00  0.00    +0.113 C 
BRANCH  28  30
ATOM     29  O   UNL     1      -9.598  -0.689   0.281  0.00  0.00    -0.250 OA
ATOM     30  C   UNL     1      -9.154   0.107   1.097  0.00  0.00    +0.314 C 
BRANCH  30  31
ATOM     31  O   UNL     1      -9.892   0.608   2.122  0.00  0.00    -0.480 OA
ATOM     32  H   UNL     1      -9.508   1.216   2.723  0.00  0.00    +0.295 HD
ENDBRANCH  30  31
ENDBRANCH  28  30
ENDBRANCH  27  28
ENDBRANCH  26  27
ENDBRANCH  25  26
ENDBRANCH  19  25
ENDBRANCH   3  20
TORSDOF 8
