REMARK  Name = 444773
REMARK  11 active torsions:
REMARK  status: ('A' for Active; 'I' for Inactive)
REMARK    1  A    between atoms: C_2  and  C_10
REMARK    2  A    between atoms: C_3  and  C_20
REMARK    3  A    between atoms: C_4  and  O_8
REMARK    4  A    between atoms: C_10  and  N_11
REMARK    5  A    between atoms: N_11  and  CA_14
REMARK    6  A    between atoms: CA_14  and  C_17
REMARK    7  A    between atoms: C_17  and  O_18
REMARK    8  A    between atoms: C_20  and  O_21
REMARK    9  A    between atoms: O_21  and  P_22
REMARK   10  A    between atoms: P_22  and  O_24
REMARK   11  A    between atoms: P_22  and  O_26
REMARK                            x       y       z     vdW  Elec       q    Type
REMARK                         _______ _______ _______ _____ _____    ______ ____
ROOT
ATOM      1  N   UNL     1       0.404  -3.623  -0.373  0.00  0.00    -0.245 NA
ATOM      2  C   UNL     1      -0.408  -0.992   0.045  0.00  0.00    -0.009 C 
ATOM      3  C   UNL     1       0.870  -1.251  -0.422  0.00  0.00    +0.024 C 
ATOM      4  C   UNL     1      -1.285  -2.032   0.306  0.00  0.00    +0.141 C 
ATOM      5  C   UNL     1      -0.833  -3.322   0.082  0.00  0.00    +0.092 C 
ATOM      6  C   UNL     1       1.226  -2.576  -0.614  0.00  0.00    +0.096 C 
ATOM      7  C   UNL     1      -1.731  -4.487   0.344  0.00  0.00    +0.055 C 
ENDROOT
BRANCH   4   8
ATOM      8  O   UNL     1      -2.543  -1.799   0.765  0.00  0.00    -0.505 OA
ATOM      9  H   UNL     1      -2.833  -0.920   0.911  0.00  0.00    +0.292 HD
ENDBRANCH   4   8
BRANCH   2  10
ATOM     10  C   ACE A   0      -0.851   0.429   0.271  0.00  0.00    -0.051 C 
BRANCH  10  11
ATOM     11  N   UNL     1      -1.463   1.001  -0.919  0.00  0.00    +0.395 N 
ATOM     12  H1  UNL     1      -2.276   0.443  -1.179  0.00  0.00    -0.083 HD
ATOM     13  H2  UNL     1      -0.776   1.000  -1.673  0.00  0.00    -0.083 HD
BRANCH  11  14
ATOM     14  CA  UNL     1      -1.886   2.378  -0.672  0.00  0.00    +0.040 C 
ATOM     15  CB  UNL     1      -2.510   2.958  -1.934  0.00  0.00    -0.012 C 
BRANCH  14  17
ATOM     16  OXT UNL     1      -3.972   1.806   0.471  0.00  0.00    -0.253 OA
ATOM     17  C   UNL     1      -2.885   2.366   0.465  0.00  0.00    +0.293 C 
BRANCH  17  18
ATOM     18  O   UNL     1      -2.404   3.070   1.525  0.00  0.00    -0.482 OA
ATOM     19  H   UNL     1      -1.564   3.481   1.471  0.00  0.00    +0.295 HD
ENDBRANCH  17  18
ENDBRANCH  14  17
ENDBRANCH  11  14
ENDBRANCH  10  11
ENDBRANCH   2  10
BRANCH   3  20
ATOM     20  C   UNL     1       1.847  -0.166  -0.716  0.00  0.00    +0.181 C 
BRANCH  20  21
ATOM     21  O   UNL     1       2.607   0.118   0.453  0.00  0.00    -0.268 OA
BRANCH  21  22
ATOM     22  P   UNL     1       3.738   1.269   0.372  0.00  0.00    +0.473 P 
ATOM     23  O   UNL     1       4.495   1.509   1.645  0.00  0.00    -0.227 OA
BRANCH  22  24
ATOM     24  O   UNL     1       2.942   2.551  -0.211  0.00  0.00    -0.303 OA
ATOM     25  H   UNL     1       2.485   2.303  -1.030  0.00  0.00    +0.222 HD
ENDBRANCH  22  24
BRANCH  22  26
ATOM     26  O   UNL     1       4.642   0.792  -0.881  0.00  0.00    -0.303 OA
ATOM     27  H   UNL     1       4.076   0.662  -1.658  0.00  0.00    +0.222 HD
ENDBRANCH  22  26
ENDBRANCH  21  22
ENDBRANCH  20  21
ENDBRANCH   3  20
TORSDOF 11
