REMARK  Name = 177336
REMARK  6 active torsions:
REMARK  status: ('A' for Active; 'I' for Inactive)
REMARK    1  A    between atoms: N_2  and  C_18
REMARK    2  A    between atoms: C_3  and  C_7
REMARK    3  A    between atoms: C_18  and  C_20
REMARK    4  A    between atoms: N_19  and  C_26
REMARK    5  A    between atoms: C_26  and  C_27
REMARK    6  A    between atoms: C_27  and  C_28
REMARK                            x       y       z     vdW  Elec       q    Type
REMARK                         _______ _______ _______ _____ _____    ______ ____
ROOT
ATOM      1  O   UNL     1      -0.936  -2.071  -1.077  0.00  0.00    -0.270 OA
ATOM      2  N   UNL     1      -0.232   0.109  -1.343  0.00  0.00    -0.301 N 
ATOM      3  C   UNL     1      -1.169  -0.853  -0.931  0.00  0.00    +0.250 C 
ATOM      4  H   UNL     1      -0.450   1.060  -1.212  0.00  0.00    +0.150 HD
ENDROOT
BRANCH   3   7
ATOM      5  O   UNL     1      -1.980   2.057  -0.535  0.00  0.00    -0.461 OA
ATOM      6  N   UNL     1      -3.960   1.046   0.327  0.00  0.00    -0.299 N 
ATOM      7  C   UNL     1      -2.397  -0.361  -0.372  0.00  0.00    +0.106 A 
ATOM      8  C   UNL     1      -2.697   0.975  -0.213  0.00  0.00    +0.210 A 
ATOM      9  C   UNL     1      -4.631   2.301   0.614  0.00  0.00    +0.113 C 
ATOM     10  C   UNL     1      -3.497  -1.121   0.115  0.00  0.00    +0.025 A 
ATOM     11  C   UNL     1      -4.466  -0.214   0.555  0.00  0.00    +0.063 A 
ATOM     12  C   UNL     1      -3.950   3.449  -0.118  0.00  0.00    +0.072 C 
ATOM     13  C   UNL     1      -2.439   3.299   0.011  0.00  0.00    +0.209 C 
ATOM     14  C   UNL     1      -3.756  -2.503   0.223  0.00  0.00    +0.002 C 
ATOM     15  C   UNL     1      -5.686  -0.636   1.104  0.00  0.00    +0.017 C 
ATOM     16  C   UNL     1      -4.971  -2.932   0.768  0.00  0.00    +0.000 C 
ATOM     17  C   UNL     1      -5.920  -2.010   1.202  0.00  0.00    +0.001 C 
ENDBRANCH   3   7
BRANCH   2  18
ATOM     18  C   UNL     1       1.036  -0.227  -1.950  0.00  0.00    +0.089 C 
BRANCH  18  20
ATOM     19  N   UNL     1       4.735   0.393   0.193  0.00  0.00    +0.387 N 
ATOM     20  C   UNL     1       2.131  -0.394  -0.900  0.00  0.00    +0.015 C 
ATOM     21  C   UNL     1       3.456  -0.813  -1.548  0.00  0.00    -0.021 C 
ATOM     22  C   UNL     1       2.331   0.898  -0.101  0.00  0.00    -0.021 C 
ATOM     23  C   UNL     1       4.582  -0.885  -0.514  0.00  0.00    -0.077 C 
ATOM     24  C   UNL     1       3.494   0.769   0.884  0.00  0.00    -0.077 C 
ATOM     25  H   UNL     1       4.939   1.113  -0.499  0.00  0.00    -0.080 HD
BRANCH  19  26
ATOM     26  C   UNL     1       5.847   0.324   1.140  0.00  0.00    -0.077 C 
BRANCH  26  27
ATOM     27  C   UNL     1       7.142  -0.033   0.412  0.00  0.00    -0.023 C 
BRANCH  27  28
ATOM     28  C   UNL     1       8.324  -0.089   1.382  0.00  0.00    -0.002 C 
ATOM     29  C   UNL     1       9.610  -0.478   0.671  0.00  0.00    -0.000 C 
ENDBRANCH  27  28
ENDBRANCH  26  27
ENDBRANCH  19  26
ENDBRANCH  18  20
ENDBRANCH   2  18
TORSDOF 6
