REMARK  Name = 5326926
REMARK  6 active torsions:
REMARK  status: ('A' for Active; 'I' for Inactive)
REMARK    1  A    between atoms: C_5  and  O_9
REMARK    2  A    between atoms: C_6  and  O_22
REMARK    3  A    between atoms: O_9  and  C_10
REMARK    4  A    between atoms: C_15  and  C_18
REMARK    5  A    between atoms: O_22  and  C_23
REMARK    6  A    between atoms: C_28  and  C_31
REMARK                            x       y       z     vdW  Elec       q    Type
REMARK                         _______ _______ _______ _____ _____    ______ ____
ROOT
ATOM      1  O   UNL     1       0.180   2.248   0.199  0.00  0.00    -0.346 OA
ATOM      2  O   UNL     1      -0.172  -0.009  -1.835  0.00  0.00    -0.346 OA
ATOM      3  C   UNL     1       0.597   0.870   0.229  0.00  0.00    +0.188 C 
ATOM      4  C   UNL     1      -0.502   0.064  -0.437  0.00  0.00    +0.188 C 
ATOM      5  C   UNL     1       1.784   0.658  -0.676  0.00  0.00    +0.225 C 
ATOM      6  C   UNL     1      -1.723   0.918  -0.194  0.00  0.00    +0.225 C 
ATOM      7  C   UNL     1      -1.160   2.317  -0.311  0.00  0.00    +0.188 C 
ATOM      8  C   UNL     1       1.141   0.537  -2.042  0.00  0.00    +0.188 C 
ENDROOT
BRANCH   5   9
ATOM      9  O   UNL     1       2.418  -0.576  -0.360  0.00  0.00    -0.474 OA
BRANCH   9  10
ATOM     10  C   UNL     1       3.760  -0.529  -0.089  0.00  0.00    +0.139 C 
ATOM     11  C   UNL     1       4.222   0.244   0.971  0.00  0.00    +0.037 C 
ATOM     12  C   UNL     1       4.647  -1.255  -0.876  0.00  0.00    +0.037 C 
ATOM     13  C   UNL     1       5.588   0.291   1.247  0.00  0.00    +0.006 C 
ATOM     14  C   UNL     1       6.013  -1.208  -0.599  0.00  0.00    +0.006 C 
ATOM     15  C   UNL     1       6.484  -0.435   0.462  0.00  0.00    +0.031 C 
BRANCH  15  18
ATOM     16  N   UNL     1       8.409   0.377   1.804  0.00  0.00    -0.343 N 
ATOM     17  N   UNL     1       8.755  -1.072   0.003  0.00  0.00    -0.285 NA
ATOM     18  C   UNL     1       7.909  -0.386   0.750  0.00  0.00    +0.117 C 
ATOM     19  H   UNL     1       9.377   0.395   1.981  0.00  0.00    +0.144 HD
ATOM     20  H   UNL     1       7.795   0.897   2.370  0.00  0.00    +0.144 HD
ATOM     21  H   UNL     1       9.720  -1.040   0.196  0.00  0.00    +0.188 HD
ENDBRANCH  15  18
ENDBRANCH   9  10
ENDBRANCH   5   9
BRANCH   6  22
ATOM     22  O   UNL     1      -2.758   0.664  -1.116  0.00  0.00    -0.474 OA
BRANCH  22  23
ATOM     23  C   UNL     1      -3.976   0.278  -0.605  0.00  0.00    +0.139 C 
ATOM     24  C   UNL     1      -4.651   1.125   0.263  0.00  0.00    +0.037 C 
ATOM     25  C   UNL     1      -4.510  -0.950  -0.968  0.00  0.00    +0.037 C 
ATOM     26  C   UNL     1      -5.886   0.734   0.780  0.00  0.00    +0.006 C 
ATOM     27  C   UNL     1      -5.745  -1.340  -0.450  0.00  0.00    +0.006 C 
ATOM     28  C   UNL     1      -6.433  -0.498   0.423  0.00  0.00    +0.031 C 
BRANCH  28  31
ATOM     29  N   UNL     1      -8.433  -0.086   1.837  0.00  0.00    -0.343 N 
ATOM     30  N   UNL     1      -8.236  -2.075   0.626  0.00  0.00    -0.285 NA
ATOM     31  C   UNL     1      -7.721  -0.905   0.962  0.00  0.00    +0.117 C 
ATOM     32  H   UNL     1      -9.303  -0.381   2.190  0.00  0.00    +0.144 HD
ATOM     33  H   UNL     1      -8.065   0.788   2.102  0.00  0.00    +0.144 HD
ATOM     34  H   UNL     1      -9.107  -2.352   0.990  0.00  0.00    +0.188 HD
ENDBRANCH  28  31
ENDBRANCH  22  23
ENDBRANCH   6  22
TORSDOF 6
