REMARK  Name = 439650
REMARK  4 active torsions:
REMARK  status: ('A' for Active; 'I' for Inactive)
REMARK    1  A    between atoms: C_2  and  O_8
REMARK    2  A    between atoms: C_3  and  O_10
REMARK    3  A    between atoms: C_4  and  O_12
REMARK    4  A    between atoms: C_6  and  O_14
REMARK                            x       y       z     vdW  Elec       q    Type
REMARK                         _______ _______ _______ _____ _____    ______ ____
ROOT
ATOM      1  O   UNL     1       0.682   1.376  -0.110  0.00  0.00    -0.329 OA
ATOM      2  C   UNL     1      -0.457  -1.189   0.478  0.00  0.00    +0.171 C 
ATOM      3  C   UNL     1       1.034  -1.007   0.191  0.00  0.00    +0.167 C 
ATOM      4  C   UNL     1      -1.280  -0.070  -0.162  0.00  0.00    +0.196 C 
ATOM      5  C   UNL     1       1.470   0.406   0.591  0.00  0.00    +0.147 C 
ATOM      6  C   UNL     1      -0.708   1.301   0.205  0.00  0.00    +0.262 C 
ATOM      7  C   UNL     1       2.932   0.679   0.254  0.00  0.00    +0.035 C 
ENDROOT
BRANCH   2   8
ATOM      8  O   UNL     1      -0.904  -2.445  -0.023  0.00  0.00    -0.379 OA
ATOM      9  H   UNL     1      -0.385  -3.158   0.381  0.00  0.00    +0.211 HD
ENDBRANCH   2   8
BRANCH   3  10
ATOM     10  O   UNL     1       1.279  -1.194  -1.204  0.00  0.00    -0.379 OA
ATOM     11  H   UNL     1       1.005  -2.087  -1.464  0.00  0.00    +0.211 HD
ENDBRANCH   3  10
BRANCH   4  12
ATOM     12  O   UNL     1      -2.623  -0.144   0.315  0.00  0.00    -0.378 OA
ATOM     13  H   UNL     1      -3.000  -1.009   0.089  0.00  0.00    +0.211 HD
ENDBRANCH   4  12
BRANCH   6  14
ATOM     14  O   UNL     1      -1.425   2.287  -0.537  0.00  0.00    -0.358 OA
ATOM     15  H   UNL     1      -1.080   3.168  -0.321  0.00  0.00    +0.213 HD
ENDBRANCH   6  14
TORSDOF 4
