REMARK  Name = 93072
REMARK  6 active torsions:
REMARK  status: ('A' for Active; 'I' for Inactive)
REMARK    1  A    between atoms: CA_1  and  N_3
REMARK    2  A    between atoms: CA_1  and  C_10
REMARK    3  A    between atoms: CA_1  and  CB_13
REMARK    4  A    between atoms: C_10  and  O_11
REMARK    5  A    between atoms: CB_13  and  CG_15
REMARK    6  A    between atoms: CG_15  and  OD1_16
REMARK                            x       y       z     vdW  Elec       q    Type
REMARK                         _______ _______ _______ _____ _____    ______ ____
ROOT
ATOM      1  CA  UNL     1      -0.026  -0.556  -0.246  0.00  0.00    +0.184 C 
ENDROOT
BRANCH   1   3
ATOM      2  O   UNL     1      -2.027   1.334  -1.158  0.00  0.00    -0.253 OA
ATOM      3  N   UNL     1      -0.518   0.606   0.455  0.00  0.00    -0.281 N 
ATOM      4  N   UNL     1      -1.778   2.495   0.806  0.00  0.00    -0.313 N 
ATOM      5  C   ACE A   0      -1.484   1.460  -0.062  0.00  0.00    +0.298 C 
ATOM      6  H   UNL     1      -0.149   0.803   1.346  0.00  0.00    +0.151 HD
ATOM      7  H   UNL     1      -2.449   3.171   0.557  0.00  0.00    +0.146 HD
ATOM      8  H   UNL     1      -1.317   2.556   1.674  0.00  0.00    +0.146 HD
ENDBRANCH   1   3
BRANCH   1  10
ATOM      9  OXT UNL     1      -0.761  -2.846  -0.556  0.00  0.00    -0.248 OA
ATOM     10  C   UNL     1      -0.916  -1.764  -0.004  0.00  0.00    +0.332 C 
BRANCH  10  11
ATOM     11  O   UNL     1      -1.911  -1.529   0.886  0.00  0.00    -0.479 OA
ATOM     12  H   UNL     1      -1.993  -0.686   1.285  0.00  0.00    +0.295 HD
ENDBRANCH  10  11
ENDBRANCH   1  10
BRANCH   1  13
ATOM     13  CB  UNL     1       1.416  -0.874   0.158  0.00  0.00    +0.140 C 
BRANCH  13  15
ATOM     14  OD2 UNL     1       2.259   1.105  -0.991  0.00  0.00    -0.250 OA
ATOM     15  CG  UNL     1       2.365   0.278  -0.096  0.00  0.00    +0.316 C 
BRANCH  15  16
ATOM     16  OD1 UNL     1       3.381   0.291   0.807  0.00  0.00    -0.480 OA
ATOM     17  HD1 UNL     1       3.421  -0.363   1.476  0.00  0.00    +0.295 HD
ENDBRANCH  15  16
ENDBRANCH  13  15
ENDBRANCH   1  13
TORSDOF 6
