REMARK  Name = 4764
REMARK  4 active torsions:
REMARK  status: ('A' for Active; 'I' for Inactive)
REMARK    1  A    between atoms: C_3  and  C_11
REMARK    2  A    between atoms: C_3  and  C_19
REMARK    3  A    between atoms: C_16  and  O_17
REMARK    4  A    between atoms: C_24  and  O_25
REMARK                            x       y       z     vdW  Elec       q    Type
REMARK                         _______ _______ _______ _____ _____    ______ ____
ROOT
ATOM      1  O   UNL     1       0.068  -0.680   1.682  0.00  0.00    -0.440 OA
ATOM      2  O   UNL     1       0.131  -2.691   2.819  0.00  0.00    -0.245 OA
ATOM      3  C   UNL     1       0.006  -0.186   0.294  0.00  0.00    +0.192 C 
ATOM      4  C   UNL     1      -0.145  -1.487  -0.438  0.00  0.00    +0.028 C 
ATOM      5  C   UNL     1      -0.102  -2.548   0.448  0.00  0.00    +0.076 C 
ATOM      6  C   UNL     1       0.051  -2.041   1.797  0.00  0.00    +0.342 C 
ATOM      7  C   UNL     1      -0.336  -1.737  -1.791  0.00  0.00    -0.000 C 
ATOM      8  C   UNL     1      -0.222  -3.869   0.053  0.00  0.00    +0.006 C 
ATOM      9  C   UNL     1      -0.460  -3.061  -2.224  0.00  0.00    -0.000 C 
ATOM     10  C   UNL     1      -0.400  -4.121  -1.307  0.00  0.00    +0.000 C 
ENDROOT
BRANCH   3  11
ATOM     11  C   UNL     1       1.327   0.571   0.117  0.00  0.00    +0.022 C 
ATOM     12  C   UNL     1       1.636   1.648   0.950  0.00  0.00    +0.003 C 
ATOM     13  C   UNL     1       2.227   0.185  -0.880  0.00  0.00    +0.003 C 
ATOM     14  C   UNL     1       2.838   2.337   0.787  0.00  0.00    +0.036 C 
ATOM     15  C   UNL     1       3.429   0.874  -1.043  0.00  0.00    +0.036 C 
ATOM     16  C   UNL     1       3.734   1.949  -0.209  0.00  0.00    +0.134 C 
BRANCH  16  17
ATOM     17  O   UNL     1       4.907   2.621  -0.366  0.00  0.00    -0.506 OA
ATOM     18  H   UNL     1       5.112   3.344   0.194  0.00  0.00    +0.292 HD
ENDBRANCH  16  17
ENDBRANCH   3  11
BRANCH   3  19
ATOM     19  C   UNL     1      -1.229   0.706   0.113  0.00  0.00    +0.022 C 
ATOM     20  C   UNL     1      -1.445   1.365  -1.099  0.00  0.00    +0.003 C 
ATOM     21  C   UNL     1      -2.140   0.861   1.160  0.00  0.00    +0.003 C 
ATOM     22  C   UNL     1      -2.567   2.177  -1.263  0.00  0.00    +0.036 C 
ATOM     23  C   UNL     1      -3.262   1.673   0.995  0.00  0.00    +0.036 C 
ATOM     24  C   UNL     1      -3.476   2.331  -0.216  0.00  0.00    +0.134 C 
BRANCH  24  25
ATOM     25  O   UNL     1      -4.571   3.122  -0.377  0.00  0.00    -0.506 OA
ATOM     26  H   UNL     1      -4.714   3.564  -1.191  0.00  0.00    +0.292 HD
ENDBRANCH  24  25
ENDBRANCH   3  19
TORSDOF 4
