REMARK  Name = 72443
REMARK  5 active torsions:
REMARK  status: ('A' for Active; 'I' for Inactive)
REMARK    1  A    between atoms: C_2  and  O_18
REMARK    2  A    between atoms: C_3  and  C_11
REMARK    3  A    between atoms: C_4  and  O_20
REMARK    4  A    between atoms: C_5  and  C_22
REMARK    5  A    between atoms: C_22  and  O_23
REMARK                            x       y       z     vdW  Elec       q    Type
REMARK                         _______ _______ _______ _____ _____    ______ ____
ROOT
ATOM      1  O   UNL     1      -2.021   0.504  -0.973  0.00  0.00    -0.345 OA
ATOM      2  C   UNL     1      -1.816  -1.038   0.811  0.00  0.00    +0.173 C 
ATOM      3  C   UNL     1      -1.137  -0.504  -0.441  0.00  0.00    +0.185 C 
ATOM      4  C   UNL     1      -3.285  -0.931   0.446  0.00  0.00    +0.170 C 
ATOM      5  C   UNL     1      -3.327   0.356  -0.371  0.00  0.00    +0.174 C 
ENDROOT
BRANCH   3  11
ATOM      6  O   UNL     1       4.515   1.472   0.472  0.00  0.00    -0.221 OA
ATOM      7  N   UNL     1       0.364   1.418   0.200  0.00  0.00    -0.275 N 
ATOM      8  N   UNL     1       1.981  -1.582  -0.557  0.00  0.00    -0.309 N 
ATOM      9  N   UNL     1       1.649   1.796   0.388  0.00  0.00    -0.160 NA
ATOM     10  N   UNL     1       4.226  -0.732  -0.174  0.00  0.00    -0.179 NA
ATOM     11  C   UNL     1       0.215   0.113  -0.182  0.00  0.00    +0.096 A 
ATOM     12  C   UNL     1       1.484  -0.376  -0.244  0.00  0.00    +0.092 A 
ATOM     13  C   UNL     1       2.333   0.683   0.111  0.00  0.00    +0.197 A 
ATOM     14  C   UNL     1       3.778   0.544   0.162  0.00  0.00    +0.173 C 
ATOM     15  C   UNL     1       3.359  -1.652  -0.491  0.00  0.00    +0.229 C 
ATOM     16  H   UNL     1      -0.398   2.028   0.328  0.00  0.00    +0.189 HD
ATOM     17  H   UNL     1       1.415  -2.347  -0.811  0.00  0.00    +0.149 HD
ENDBRANCH   3  11
BRANCH   2  18
ATOM     18  O   UNL     1      -1.417  -2.362   1.104  0.00  0.00    -0.379 OA
ATOM     19  H   UNL     1      -0.474  -2.373   1.330  0.00  0.00    +0.211 HD
ENDBRANCH   2  18
BRANCH   4  20
ATOM     20  O   UNL     1      -3.684  -2.026  -0.377  0.00  0.00    -0.379 OA
ATOM     21  H   UNL     1      -3.658  -2.846   0.140  0.00  0.00    +0.211 HD
ENDBRANCH   4  20
BRANCH   5  22
ATOM     22  C   UNL     1      -3.604   1.589   0.479  0.00  0.00    +0.169 C 
BRANCH  22  23
ATOM     23  O   UNL     1      -3.613   2.728  -0.363  0.00  0.00    -0.379 OA
ATOM     24  H   UNL     1      -3.789   3.521   0.167  0.00  0.00    +0.211 HD
ENDBRANCH  22  23
ENDBRANCH   5  22
TORSDOF 5
