REMARK  Name = 11622909
REMARK  6 active torsions:
REMARK  status: ('A' for Active; 'I' for Inactive)
REMARK    1  A    between atoms: C_1  and  C_4
REMARK    2  A    between atoms: C_1  and  C_12
REMARK    3  A    between atoms: C_2  and  C_17
REMARK    4  A    between atoms: N_11  and  C_13
REMARK    5  A    between atoms: N_11  and  C_15
REMARK    6  A    between atoms: C_17  and  N_18
REMARK                            x       y       z     vdW  Elec       q    Type
REMARK                         _______ _______ _______ _____ _____    ______ ____
ROOT
ATOM      1  C   UNL     1       0.080   0.681  -0.204  0.00  0.00    +0.086 C 
ATOM      2  C   UNL     1      -0.127   2.131  -0.504  0.00  0.00    -0.009 C 
ATOM      3  C   UNL     1       0.406   1.211  -1.563  0.00  0.00    +0.011 C 
ENDROOT
BRANCH   1   4
ATOM      4  C   UNL     1      -1.083  -0.227  -0.055  0.00  0.00    -0.015 C 
ATOM      5  C   UNL     1      -1.545  -0.965  -1.149  0.00  0.00    -0.004 C 
ATOM      6  C   UNL     1      -1.724  -0.353   1.182  0.00  0.00    -0.004 C 
ATOM      7  C   UNL     1      -2.637  -1.821  -1.008  0.00  0.00    -0.000 C 
ATOM      8  C   UNL     1      -2.816  -1.209   1.323  0.00  0.00    -0.000 C 
ATOM      9  C   UNL     1      -3.273  -1.943   0.228  0.00  0.00    -0.000 C 
ENDBRANCH   1   4
BRANCH   1  12
ATOM     10  O   UNL     1       1.283   0.866   1.791  0.00  0.00    -0.275 OA
ATOM     11  N   UNL     1       2.201  -0.532   0.169  0.00  0.00    -0.279 N 
ATOM     12  C   UNL     1       1.241   0.348   0.677  0.00  0.00    +0.228 C 
BRANCH  11  13
ATOM     13  C   UNL     1       3.603  -0.464   0.562  0.00  0.00    +0.093 C 
ATOM     14  C   UNL     1       4.376   0.442  -0.340  0.00  0.00    +0.023 C 
ENDBRANCH  11  13
BRANCH  11  15
ATOM     15  C   UNL     1       1.866  -1.581  -0.790  0.00  0.00    +0.093 C 
ATOM     16  C   UNL     1       1.490  -2.850  -0.098  0.00  0.00    +0.023 C 
ENDBRANCH  11  15
ENDBRANCH   1  12
BRANCH   2  17
ATOM     17  C   UNL     1      -1.496   2.687  -0.662  0.00  0.00    -0.085 C 
BRANCH  17  18
ATOM     18  N   UNL     1      -1.845   3.579   0.441  0.00  0.00    +0.380 N 
ATOM     19  H   UNL     1      -2.788   3.941   0.299  0.00  0.00    -0.089 HD
ATOM     20  H   UNL     1      -1.184   4.355   0.472  0.00  0.00    -0.089 HD
ATOM     21  H   UNL     1      -1.807   3.063   1.320  0.00  0.00    -0.089 HD
ENDBRANCH  17  18
ENDBRANCH   2  17
TORSDOF 6
