REMARK  Name = 5287902
REMARK  7 active torsions:
REMARK  status: ('A' for Active; 'I' for Inactive)
REMARK    1  A    between atoms: CA_1  and  C_4
REMARK    2  A    between atoms: CA_1  and  N_15
REMARK    3  A    between atoms: CA_1  and  C_25
REMARK    4  A    between atoms: CA_7  and  C_11
REMARK    5  A    between atoms: C_11  and  O_12
REMARK    6  A    between atoms: C_16  and  C_18
REMARK    7  A    between atoms: C_18  and  C_20
REMARK                            x       y       z     vdW  Elec       q    Type
REMARK                         _______ _______ _______ _____ _____    ______ ____
ROOT
ATOM      1  CA  UNL     1       0.126   2.249   0.375  0.00  0.00    +0.165 C 
ENDROOT
BRANCH   1   4
ATOM      2  S   UNL     1       0.316   0.077   2.023  0.00  0.00    -0.115 S 
ATOM      3  N   UNL     1       1.820   0.587  -0.158  0.00  0.00    -0.320 N 
ATOM      4  C   UNL     1       1.152   1.270   0.932  0.00  0.00    +0.144 C 
ATOM      5  C   UNL     1       1.721  -1.039   2.301  0.00  0.00    +0.083 C 
ATOM      6  C   UNL     1       2.486  -1.408   1.043  0.00  0.00    -0.014 C 
ATOM      7  CA  UNL     1       2.474  -0.624  -0.059  0.00  0.00    +0.115 C 
ATOM      8  C   UNL     1       3.254  -2.699   1.195  0.00  0.00    +0.029 C 
ATOM      9  H   UNL     1       1.805   1.022  -1.041  0.00  0.00    +0.148 HD
BRANCH   7  11
ATOM     10  OXT UNL     1       4.172  -1.729  -1.302  0.00  0.00    -0.244 OA
ATOM     11  C   UNL     1       3.176  -1.037  -1.287  0.00  0.00    +0.351 C 
BRANCH  11  12
ATOM     12  O   UNL     1       2.537  -0.527  -2.357  0.00  0.00    -0.476 OA
ATOM     13  H   UNL     1       1.770  -0.001  -2.238  0.00  0.00    +0.295 HD
ENDBRANCH  11  12
ENDBRANCH   7  11
ENDBRANCH   1   4
BRANCH   1  15
ATOM     14  O   UNL     1      -2.716   2.234   0.823  0.00  0.00    -0.275 OA
ATOM     15  N   UNL     1      -0.864   1.571  -0.412  0.00  0.00    -0.297 N 
ATOM     16  C   UNL     1      -2.223   1.619  -0.120  0.00  0.00    +0.228 C 
ATOM     17  H   UNL     1      -0.569   1.049  -1.193  0.00  0.00    +0.150 HD
BRANCH  16  18
ATOM     18  C   UNL     1      -3.075   0.840  -1.102  0.00  0.00    +0.118 C 
BRANCH  18  20
ATOM     19  S   UNL     1      -2.666  -1.852  -1.550  0.00  0.00    -0.090 S 
ATOM     20  C   UNL     1      -3.245  -0.566  -0.599  0.00  0.00    +0.016 C 
ATOM     21  C   UNL     1      -3.825  -0.970   0.567  0.00  0.00    +0.003 C 
ATOM     22  C   UNL     1      -3.798  -2.389   0.693  0.00  0.00    +0.007 C 
ATOM     23  C   UNL     1      -3.196  -2.993  -0.389  0.00  0.00    +0.035 C 
ENDBRANCH  18  20
ENDBRANCH  16  18
ENDBRANCH   1  15
BRANCH   1  25
ATOM     24  O   UNL     1       1.604   4.097  -0.107  0.00  0.00    -0.286 OA
ATOM     25  C   UNL     1       0.770   3.289  -0.508  0.00  0.00    +0.229 C 
ENDBRANCH   1  25
TORSDOF 7
