REMARK  Name = 121892
REMARK  7 active torsions:
REMARK  status: ('A' for Active; 'I' for Inactive)
REMARK    1  A    between atoms: C_1  and  N_17
REMARK    2  A    between atoms: C_2  and  N_8
REMARK    3  A    between atoms: C_4  and  N_14
REMARK    4  A    between atoms: C_9  and  O_11
REMARK    5  A    between atoms: O_11  and  C_12
REMARK    6  A    between atoms: N_17  and  C_19
REMARK    7  A    between atoms: C_19  and  C_21
REMARK                            x       y       z     vdW  Elec       q    Type
REMARK                         _______ _______ _______ _____ _____    ______ ____
ROOT
ATOM      1  C   UNL     1       0.310   0.407  -0.034  0.00  0.00    +0.046 C 
ATOM      2  C   UNL     1      -2.504   0.500  -0.004  0.00  0.00    +0.066 C 
ATOM      3  C   UNL     1      -0.373   1.638  -0.009  0.00  0.00    +0.030 C 
ATOM      4  C   UNL     1      -1.767   1.684   0.006  0.00  0.00    +0.056 C 
ATOM      5  C   UNL     1      -0.453  -0.776  -0.044  0.00  0.00    +0.016 C 
ATOM      6  C   UNL     1      -1.847  -0.730  -0.029  0.00  0.00    +0.017 C 
ENDROOT
BRANCH   2   8
ATOM      7  O   UNL     1      -4.501  -1.746  -0.018  0.00  0.00    -0.226 OA
ATOM      8  N   UNL     1      -3.901   0.521   0.011  0.00  0.00    -0.249 N 
ATOM      9  C   UNL     1      -4.784  -0.554   0.004  0.00  0.00    +0.405 C 
ATOM     10  H   UNL     1      -4.315   1.414   0.028  0.00  0.00    +0.158 HD
BRANCH   9  11
ATOM     11  O   UNL     1      -6.069  -0.082   0.024  0.00  0.00    -0.434 OA
BRANCH  11  12
ATOM     12  C   UNL     1      -7.104  -1.073   0.019  0.00  0.00    +0.210 C 
ATOM     13  C   UNL     1      -8.450  -0.382   0.044  0.00  0.00    +0.051 C 
ENDBRANCH  11  12
ENDBRANCH   9  11
ENDBRANCH   2   8
BRANCH   4  14
ATOM     14  N   UNL     1      -2.412   2.941   0.032  0.00  0.00    -0.356 N 
ATOM     15  H   UNL     1      -3.395   2.990   0.043  0.00  0.00    +0.142 HD
ATOM     16  H   UNL     1      -1.878   3.768   0.039  0.00  0.00    +0.142 HD
ENDBRANCH   4  14
BRANCH   1  17
ATOM     17  N   UNL     1       1.694   0.361  -0.049  0.00  0.00    -0.329 N 
ATOM     18  H   UNL     1       2.188   1.213  -0.041  0.00  0.00    +0.147 HD
BRANCH  17  19
ATOM     19  C   UNL     1       2.454  -0.870  -0.075  0.00  0.00    +0.114 C 
BRANCH  19  21
ATOM     20  F   UNL     1       7.974   0.173   0.084  0.00  0.00    -0.204 F 
ATOM     21  C   UNL     1       3.918  -0.594  -0.033  0.00  0.00    -0.002 C 
ATOM     22  C   UNL     1       4.630  -0.422  -1.220  0.00  0.00    -0.000 C 
ATOM     23  C   UNL     1       4.577  -0.507   1.194  0.00  0.00    -0.000 C 
ATOM     24  C   UNL     1       6.000  -0.164  -1.181  0.00  0.00    +0.029 C 
ATOM     25  C   UNL     1       5.947  -0.248   1.233  0.00  0.00    +0.029 C 
ATOM     26  C   UNL     1       6.659  -0.077   0.046  0.00  0.00    +0.140 C 
ENDBRANCH  19  21
ENDBRANCH  17  19
ENDBRANCH   1  17
TORSDOF 7
