REMARK  Name = 448819
REMARK  3 active torsions:
REMARK  status: ('A' for Active; 'I' for Inactive)
REMARK    1  A    between atoms: C_2  and  O_8
REMARK    2  A    between atoms: C_5  and  O_10
REMARK    3  A    between atoms: C_6  and  O_12
REMARK                            x       y       z     vdW  Elec       q    Type
REMARK                         _______ _______ _______ _____ _____    ______ ____
ROOT
ATOM      1  O   UNL     1      -0.152   1.242  -0.590  0.00  0.00    -0.329 OA
ATOM      2  C   UNL     1       1.024  -0.815  -0.032  0.00  0.00    +0.140 C 
ATOM      3  C   UNL     1      -0.252  -1.375   0.597  0.00  0.00    +0.066 C 
ATOM      4  C   UNL     1       1.022   0.715   0.033  0.00  0.00    +0.145 C 
ATOM      5  C   UNL     1      -1.491  -0.714   0.002  0.00  0.00    +0.169 C 
ATOM      6  C   UNL     1      -1.375   0.811   0.017  0.00  0.00    +0.260 C 
ATOM      7  C   UNL     1       2.228   1.309  -0.690  0.00  0.00    +0.035 C 
ENDROOT
BRANCH   2   8
ATOM      8  O   UNL     1       2.157  -1.324   0.663  0.00  0.00    -0.382 OA
ATOM      9  H   UNL     1       2.154  -2.293   0.619  0.00  0.00    +0.210 HD
ENDBRANCH   2   8
BRANCH   5  10
ATOM     10  O   UNL     1      -1.653  -1.136  -1.351  0.00  0.00    -0.379 OA
ATOM     11  H   UNL     1      -1.729  -2.102  -1.381  0.00  0.00    +0.211 HD
ENDBRANCH   5  10
BRANCH   6  12
ATOM     12  O   UNL     1      -1.509   1.285   1.353  0.00  0.00    -0.358 OA
ATOM     13  H   UNL     1      -1.435   2.253   1.362  0.00  0.00    +0.213 HD
ENDBRANCH   6  12
TORSDOF 3
