REMARK  Name = 657041
REMARK  14 active torsions:
REMARK  status: ('A' for Active; 'I' for Inactive)
REMARK    1  A    between atoms: C_1  and  C_4
REMARK    2  A    between atoms: C_2  and  C_15
REMARK    3  A    between atoms: C_4  and  C_5
REMARK    4  A    between atoms: C_5  and  C_7
REMARK    5  A    between atoms: C_6  and  C_9
REMARK    6  A    between atoms: C_9  and  C_10
REMARK    7  A    between atoms: C_10  and  C_11
REMARK    8  A    between atoms: C_15  and  S_16
REMARK    9  A    between atoms: S_16  and  P_17
REMARK   10  A    between atoms: P_17  and  O_19
REMARK   11  A    between atoms: P_17  and  O_21
REMARK   12  A    between atoms: O_21  and  P_22
REMARK   13  A    between atoms: P_22  and  O_24
REMARK   14  A    between atoms: P_22  and  O_26
REMARK                            x       y       z     vdW  Elec       q    Type
REMARK                         _______ _______ _______ _____ _____    ______ ____
ROOT
ATOM      1  C   UNL     1      -0.172   1.978  -0.271  0.00  0.00    -0.047 C 
ATOM      2  C   UNL     1       0.643   2.075  -1.341  0.00  0.00    -0.022 C 
ATOM      3  C   UNL     1       0.223   2.608   1.039  0.00  0.00    +0.026 C 
ENDROOT
BRANCH   1   4
ATOM      4  C   UNL     1      -1.479   1.214  -0.264  0.00  0.00    +0.026 C 
BRANCH   4   5
ATOM      5  C   UNL     1      -2.717   2.092  -0.045  0.00  0.00    +0.030 C 
BRANCH   5   7
ATOM      6  C   UNL     1      -4.729   0.797   0.876  0.00  0.00    -0.048 C 
ATOM      7  C   UNL     1      -4.007   1.325  -0.133  0.00  0.00    -0.034 C 
ATOM      8  C   UNL     1      -4.256   0.949   2.299  0.00  0.00    +0.026 C 
BRANCH   6   9
ATOM      9  C   UNL     1      -6.046   0.071   0.706  0.00  0.00    +0.026 C 
BRANCH   9  10
ATOM     10  C   UNL     1      -5.908  -1.438   0.469  0.00  0.00    +0.030 C 
BRANCH  10  11
ATOM     11  C   UNL     1      -5.103  -1.773  -0.756  0.00  0.00    -0.034 C 
ATOM     12  C   UNL     1      -3.937  -2.442  -0.814  0.00  0.00    -0.048 C 
ATOM     13  C   UNL     1      -3.222  -3.032   0.368  0.00  0.00    +0.026 C 
ATOM     14  C   UNL     1      -3.249  -2.666  -2.135  0.00  0.00    +0.026 C 
ENDBRANCH  10  11
ENDBRANCH   9  10
ENDBRANCH   6   9
ENDBRANCH   5   7
ENDBRANCH   4   5
ENDBRANCH   1   4
BRANCH   2  15
ATOM     15  C   UNL     1       1.971   2.767  -1.412  0.00  0.00    +0.094 C 
BRANCH  15  16
ATOM     16  S   UNL     1       3.263   1.587  -1.889  0.00  0.00    -0.026 S 
BRANCH  16  17
ATOM     17  P   UNL     1       3.732   0.555  -0.130  0.00  0.00    +0.398 P 
ATOM     18  O   UNL     1       4.230   1.490   0.939  0.00  0.00    -0.246 OA
BRANCH  17  19
ATOM     19  O   UNL     1       2.432  -0.291   0.348  0.00  0.00    -0.316 OA
ATOM     20  H   UNL     1       2.147  -0.879  -0.369  0.00  0.00    +0.221 HD
ENDBRANCH  17  19
BRANCH  17  21
ATOM     21  O   UNL     1       4.786  -0.629  -0.469  0.00  0.00    -0.200 OA
BRANCH  21  22
ATOM     22  P   UNL     1       5.738  -1.514   0.490  0.00  0.00    +0.480 P 
ATOM     23  O   UNL     1       6.734  -0.734   1.296  0.00  0.00    -0.227 OA
BRANCH  22  24
ATOM     24  O   UNL     1       4.689  -2.391   1.352  0.00  0.00    -0.302 OA
ATOM     25  H   UNL     1       4.087  -2.858   0.752  0.00  0.00    +0.222 HD
ENDBRANCH  22  24
BRANCH  22  26
ATOM     26  O   UNL     1       6.384  -2.598  -0.521  0.00  0.00    -0.302 OA
ATOM     27  H   UNL     1       5.675  -3.055  -1.001  0.00  0.00    +0.222 HD
ENDBRANCH  22  26
ENDBRANCH  21  22
ENDBRANCH  17  21
ENDBRANCH  16  17
ENDBRANCH  15  16
ENDBRANCH   2  15
TORSDOF 14
