REMARK  Name = 5288116
REMARK  0 active torsions:
REMARK  status: ('A' for Active; 'I' for Inactive)
REMARK                            x       y       z     vdW  Elec       q    Type
REMARK                         _______ _______ _______ _____ _____    ______ ____
ROOT
ATOM      1  N   UNL     1      -1.132  -1.464  -0.150  0.00  0.00    -0.147 NA
ATOM      2  N   UNL     1      -2.496  -1.452  -0.165  0.00  0.00    -0.133 NA
ATOM      3  N   UNL     1      -4.561  -0.272  -0.029  0.00  0.00    -0.341 N 
ATOM      4  C   UNL     1       1.042   2.129  -0.357  0.00  0.00    +0.031 C 
ATOM      5  C   UNL     1      -0.311   2.175   0.361  0.00  0.00    +0.033 C 
ATOM      6  C   UNL     1       1.766   0.822  -0.130  0.00  0.00    -0.020 C 
ATOM      7  C   UNL     1      -1.104   0.915   0.138  0.00  0.00    +0.000 C 
ATOM      8  C   UNL     1       1.023  -0.373   0.012  0.00  0.00    +0.015 C 
ATOM      9  C   UNL     1      -0.446  -0.307   0.001  0.00  0.00    +0.099 C 
ATOM     10  C   UNL     1       3.168   0.788  -0.140  0.00  0.00    -0.004 C 
ATOM     11  C   UNL     1      -2.493   0.922   0.138  0.00  0.00    +0.033 C 
ATOM     12  C   UNL     1       1.725  -1.580   0.162  0.00  0.00    +0.001 C 
ATOM     13  C   UNL     1       3.842  -0.420   0.015  0.00  0.00    -0.000 C 
ATOM     14  C   UNL     1       3.122  -1.602   0.167  0.00  0.00    +0.000 C 
ATOM     15  C   UNL     1      -3.146  -0.281  -0.022  0.00  0.00    +0.147 C 
ATOM     16  H   UNL     1      -5.058  -1.114  -0.141  0.00  0.00    +0.144 HD
ATOM     17  H   UNL     1      -5.047   0.577   0.078  0.00  0.00    +0.144 HD
ENDROOT
TORSDOF 0
