REMARK  Name = 8924
REMARK  14 active torsions:
REMARK  status: ('A' for Active; 'I' for Inactive)
REMARK    1  A    between atoms: N_1  and  C_4
REMARK    2  A    between atoms: N_1  and  C_14
REMARK    3  A    between atoms: C_4  and  C_5
REMARK    4  A    between atoms: C_5  and  C_6
REMARK    5  A    between atoms: C_6  and  C_7
REMARK    6  A    between atoms: C_7  and  C_8
REMARK    7  A    between atoms: C_8  and  C_9
REMARK    8  A    between atoms: C_9  and  N_10
REMARK    9  A    between atoms: C_14  and  C_15
REMARK   10  A    between atoms: C_15  and  C_16
REMARK   11  A    between atoms: C_16  and  C_17
REMARK   12  A    between atoms: C_17  and  C_18
REMARK   13  A    between atoms: C_18  and  C_19
REMARK   14  A    between atoms: C_19  and  N_20
REMARK                            x       y       z     vdW  Elec       q    Type
REMARK                         _______ _______ _______ _____ _____    ______ ____
ROOT
ATOM      1  N   UNL     1      -0.001  -0.363  -0.018  0.00  0.00    +0.384 N 
ATOM      2  H   UNL     1       0.001  -0.947  -0.854  0.00  0.00    -0.085 HD
ATOM      3  H   UNL     1      -0.003  -0.942   0.821  0.00  0.00    -0.085 HD
ENDROOT
BRANCH   1   4
ATOM      4  C   UNL     1      -1.200   0.463  -0.016  0.00  0.00    -0.082 C 
BRANCH   4   5
ATOM      5  C   UNL     1      -2.450  -0.416  -0.016  0.00  0.00    -0.023 C 
BRANCH   5   6
ATOM      6  C   UNL     1      -3.723   0.434  -0.036  0.00  0.00    -0.002 C 
BRANCH   6   7
ATOM      7  C   UNL     1      -4.976  -0.445   0.001  0.00  0.00    -0.002 C 
BRANCH   7   8
ATOM      8  C   UNL     1      -6.282   0.355  -0.048  0.00  0.00    -0.024 C 
BRANCH   8   9
ATOM      9  C   UNL     1      -7.530  -0.520   0.067  0.00  0.00    -0.086 C 
BRANCH   9  10
ATOM     10  N   UNL     1      -8.730   0.309   0.022  0.00  0.00    +0.380 N 
ATOM     11  H   UNL     1      -9.556  -0.284   0.100  0.00  0.00    -0.089 HD
ATOM     12  H   UNL     1      -8.759   0.818  -0.861  0.00  0.00    -0.089 HD
ATOM     13  H   UNL     1      -8.714   0.972   0.797  0.00  0.00    -0.089 HD
ENDBRANCH   9  10
ENDBRANCH   8   9
ENDBRANCH   7   8
ENDBRANCH   6   7
ENDBRANCH   5   6
ENDBRANCH   4   5
ENDBRANCH   1   4
BRANCH   1  14
ATOM     14  C   UNL     1       1.200   0.464  -0.010  0.00  0.00    -0.082 C 
BRANCH  14  15
ATOM     15  C   UNL     1       2.450  -0.415  -0.002  0.00  0.00    -0.023 C 
BRANCH  15  16
ATOM     16  C   UNL     1       3.723   0.434   0.029  0.00  0.00    -0.002 C 
BRANCH  16  17
ATOM     17  C   UNL     1       4.976  -0.445   0.001  0.00  0.00    -0.002 C 
BRANCH  17  18
ATOM     18  C   UNL     1       6.281   0.355   0.061  0.00  0.00    -0.024 C 
BRANCH  18  19
ATOM     19  C   UNL     1       7.530  -0.520  -0.045  0.00  0.00    -0.086 C 
BRANCH  19  20
ATOM     20  N   UNL     1       8.730   0.308   0.009  0.00  0.00    +0.380 N 
ATOM     21  H   UNL     1       9.557  -0.285  -0.062  0.00  0.00    -0.089 HD
ATOM     22  H   UNL     1       8.752   0.818   0.892  0.00  0.00    -0.089 HD
ATOM     23  H   UNL     1       8.720   0.972  -0.766  0.00  0.00    -0.089 HD
ENDBRANCH  19  20
ENDBRANCH  18  19
ENDBRANCH  17  18
ENDBRANCH  16  17
ENDBRANCH  15  16
ENDBRANCH  14  15
ENDBRANCH   1  14
TORSDOF 14
