REMARK  Name = 3001028
REMARK  2 active torsions:
REMARK  status: ('A' for Active; 'I' for Inactive)
REMARK    1  A    between atoms: C_19  and  O_20
REMARK    2  A    between atoms: O_20  and  S_21
REMARK                            x       y       z     vdW  Elec       q    Type
REMARK                         _______ _______ _______ _____ _____    ______ ____
ROOT
ATOM      1  O   UNL     1      -6.049  -1.274   0.169  0.00  0.00    -0.296 OA
ATOM      2  C   UNL     1      -3.188   0.666  -0.181  0.00  0.00    +0.007 C 
ATOM      3  C   UNL     1      -3.712  -0.651   0.429  0.00  0.00    +0.052 C 
ATOM      4  C   UNL     1      -1.677   0.797  -0.001  0.00  0.00    +0.005 C 
ATOM      5  C   UNL     1      -0.991  -0.369  -0.779  0.00  0.00    +0.022 C 
ATOM      6  C   UNL     1      -3.112  -1.805  -0.368  0.00  0.00    +0.007 C 
ATOM      7  C   UNL     1      -4.121   1.733   0.381  0.00  0.00    +0.008 C 
ATOM      8  C   UNL     1      -1.572  -1.748  -0.362  0.00  0.00    +0.005 C 
ATOM      9  C   UNL     1      -1.130   2.128  -0.517  0.00  0.00    +0.005 C 
ATOM     10  C   UNL     1      -5.198  -0.399   0.251  0.00  0.00    +0.150 C 
ATOM     11  C   UNL     1      -5.507   1.089   0.222  0.00  0.00    +0.064 C 
ATOM     12  C   UNL     1      -3.477  -0.839   1.940  0.00  0.00    +0.007 C 
ATOM     13  C   UNL     1       0.529  -0.259  -0.712  0.00  0.00    -0.026 C 
ATOM     14  C   UNL     1       0.356   2.241  -0.188  0.00  0.00    +0.026 C 
ATOM     15  C   UNL     1       1.148   0.988  -0.475  0.00  0.00    -0.023 C 
ATOM     16  C   UNL     1       1.352  -1.370  -0.971  0.00  0.00    -0.001 C 
ATOM     17  C   UNL     1       2.551   1.081  -0.452  0.00  0.00    +0.035 C 
ATOM     18  C   UNL     1       2.744  -1.262  -0.952  0.00  0.00    +0.040 C 
ATOM     19  C   UNL     1       3.344  -0.037  -0.689  0.00  0.00    +0.175 C 
ENDROOT
BRANCH  19  20
ATOM     20  O   UNL     1       4.700   0.069  -0.667  0.00  0.00    -0.322 OA
BRANCH  20  21
ATOM     21  S   UNL     1       5.496  -0.172   0.751  0.00  0.00    +0.282 S 
ATOM     22  O   UNL     1       7.049   0.181   0.392  0.00  0.00    -0.105 OA
ATOM     23  O   UNL     1       5.032   0.800   1.724  0.00  0.00    -0.012 OA
ATOM     24  O   UNL     1       5.434  -1.589   1.057  0.00  0.00    -0.105 OA
ENDBRANCH  20  21
ENDBRANCH  19  20
TORSDOF 2
