REMARK  Name = 5289553
REMARK  6 active torsions:
REMARK  status: ('A' for Active; 'I' for Inactive)
REMARK    1  A    between atoms: C_1  and  N_2
REMARK    2  A    between atoms: C_1  and  C_6
REMARK    3  A    between atoms: C_1  and  C_8
REMARK    4  A    between atoms: C_8  and  C_9
REMARK    5  A    between atoms: C_9  and  C_11
REMARK    6  A    between atoms: C_11  and  O_12
REMARK                            x       y       z     vdW  Elec       q    Type
REMARK                         _______ _______ _______ _____ _____    ______ ____
ROOT
ATOM      1  C   UNL     1       1.582  -0.473  -0.588  0.00  0.00    -0.065 C 
ENDROOT
BRANCH   1   2
ATOM      2  N   UNL     1       2.496  -1.462  -0.007  0.00  0.00    +0.382 N 
ATOM      3  H   UNL     1       2.100  -2.396  -0.116  0.00  0.00    -0.089 HD
ATOM      4  H   UNL     1       2.627  -1.262   0.985  0.00  0.00    -0.089 HD
ATOM      5  H   UNL     1       3.396  -1.416  -0.485  0.00  0.00    -0.089 HD
ENDBRANCH   1   2
BRANCH   1   6
ATOM      6  C   UNL     1       2.169   0.941  -0.428  0.00  0.00    -0.022 C 
ATOM      7  C   UNL     1       2.343   1.410   1.011  0.00  0.00    -0.002 C 
ENDBRANCH   1   6
BRANCH   1   8
ATOM      8  C   UNL     1       0.191  -0.674   0.039  0.00  0.00    -0.010 C 
BRANCH   8   9
ATOM      9  C   UNL     1      -0.879   0.245  -0.556  0.00  0.00    +0.107 C 
BRANCH   9  11
ATOM     10  O   UNL     1      -2.489  -0.832   0.920  0.00  0.00    -0.250 OA
ATOM     11  C   UNL     1      -2.237   0.005   0.064  0.00  0.00    +0.314 C 
BRANCH  11  12
ATOM     12  O   UNL     1      -3.175   0.840  -0.455  0.00  0.00    -0.480 OA
ATOM     13  H   UNL     1      -2.934   1.465  -1.110  0.00  0.00    +0.295 HD
ENDBRANCH  11  12
ENDBRANCH   9  11
ENDBRANCH   8   9
ENDBRANCH   1   8
TORSDOF 6
