REMARK  Name = 126154
REMARK  0 active torsions:
REMARK  status: ('A' for Active; 'I' for Inactive)
REMARK                            x       y       z     vdW  Elec       q    Type
REMARK                         _______ _______ _______ _____ _____    ______ ____
ROOT
ATOM      1  O   PRO A   1      -0.668  -2.657  -0.337  0.00  0.00    -0.273 OA
ATOM      2  O   GLY A   2       2.002   1.928  -0.177  0.00  0.00    -0.273 OA
ATOM      3  N   PRO A   1      -0.002   0.769  -0.012  0.00  0.00    -0.272 N 
ATOM      4  N   GLY A   2       1.329  -1.508  -0.178  0.00  0.00    -0.295 N 
ATOM      5  CA  PRO A   1      -0.698  -0.396   0.519  0.00  0.00    +0.152 C 
ATOM      6  CB  PRO A   1      -2.148  -0.170   0.111  0.00  0.00    +0.031 C 
ATOM      7  CG  PRO A   1      -2.271   1.352   0.127  0.00  0.00    +0.024 C 
ATOM      8  CD  PRO A   1      -0.923   1.821  -0.403  0.00  0.00    +0.094 C 
ATOM      9  C   PRO A   1      -0.051  -1.627  -0.081  0.00  0.00    +0.241 C 
ATOM     10  C   GLY A   2       1.376   0.889   0.010  0.00  0.00    +0.246 C 
ATOM     11  CA  GLY A   2       2.054  -0.401   0.421  0.00  0.00    +0.176 C 
ATOM     12  H   GLY A   2       1.833  -2.197  -0.669  0.00  0.00    +0.150 HD
ENDROOT
TORSDOF 0
