REMARK  Name = 3072
REMARK  4 active torsions:
REMARK  status: ('A' for Active; 'I' for Inactive)
REMARK    1  A    between atoms: P_1  and  O_4
REMARK    2  A    between atoms: P_1  and  O_8
REMARK    3  A    between atoms: O_4  and  C_5
REMARK    4  A    between atoms: O_8  and  C_9
REMARK                            x       y       z     vdW  Elec       q    Type
REMARK                         _______ _______ _______ _____ _____    ______ ____
ROOT
ATOM      1  P   UNL     1      -0.004  -1.097   0.356  0.00  0.00    +0.322 P 
ATOM      2  O   UNL     1      -0.399  -2.517   0.043  0.00  0.00    -0.262 OA
ATOM      3  H   UNL     1      -0.647  -0.408   1.364  0.00  0.00    +0.160 HD
ENDROOT
BRANCH   1   4
ATOM      4  O   UNL     1      -0.867  -0.026  -0.514  0.00  0.00    -0.299 OA
BRANCH   4   5
ATOM      5  C   UNL     1      -2.217   0.181  -0.141  0.00  0.00    +0.124 C 
ATOM      6  C   UNL     1      -2.270   0.685   1.293  0.00  0.00    +0.033 C 
ATOM      7  C   UNL     1      -2.860   1.161  -1.110  0.00  0.00    +0.033 C 
ENDBRANCH   4   5
ENDBRANCH   1   4
BRANCH   1   8
ATOM      8  O   UNL     1       1.508  -0.778  -0.153  0.00  0.00    -0.299 OA
BRANCH   8   9
ATOM      9  C   UNL     1       1.927   0.575  -0.203  0.00  0.00    +0.124 C 
ATOM     10  C   UNL     1       1.844   1.176   1.192  0.00  0.00    +0.033 C 
ATOM     11  C   UNL     1       3.339   0.641  -0.765  0.00  0.00    +0.033 C 
ENDBRANCH   8   9
ENDBRANCH   1   8
TORSDOF 4
