REMARK  Name = 5756
REMARK  3 active torsions:
REMARK  status: ('A' for Active; 'I' for Inactive)
REMARK    1  A    between atoms: C_5  and  O_19
REMARK    2  A    between atoms: C_8  and  O_21
REMARK    3  A    between atoms: C_18  and  O_23
REMARK                            x       y       z     vdW  Elec       q    Type
REMARK                         _______ _______ _______ _____ _____    ______ ____
ROOT
ATOM      1  C   UNL     1      -2.383   0.794  -0.219  0.00  0.00    +0.027 C 
ATOM      2  C   UNL     1      -1.776  -0.548   0.241  0.00  0.00    +0.005 C 
ATOM      3  C   UNL     1      -0.301  -0.677  -0.139  0.00  0.00    +0.005 C 
ATOM      4  C   UNL     1       0.498   0.462   0.564  0.00  0.00    +0.022 C 
ATOM      5  C   UNL     1      -3.835   0.577   0.252  0.00  0.00    +0.137 C 
ATOM      6  C   UNL     1      -1.637   1.924   0.501  0.00  0.00    +0.003 C 
ATOM      7  C   UNL     1      -2.774  -1.589  -0.268  0.00  0.00    +0.032 C 
ATOM      8  C   UNL     1      -4.140  -0.884  -0.145  0.00  0.00    +0.137 C 
ATOM      9  C   UNL     1      -0.117   1.854   0.257  0.00  0.00    +0.004 C 
ATOM     10  C   UNL     1       0.295  -2.026   0.267  0.00  0.00    +0.005 C 
ATOM     11  C   UNL     1      -2.338   1.039  -1.748  0.00  0.00    +0.002 C 
ATOM     12  C   UNL     1       1.994   0.340   0.287  0.00  0.00    -0.026 C 
ATOM     13  C   UNL     1       1.720  -2.144  -0.267  0.00  0.00    +0.026 C 
ATOM     14  C   UNL     1       2.559  -0.907  -0.062  0.00  0.00    -0.023 C 
ATOM     15  C   UNL     1       2.858   1.437   0.456  0.00  0.00    -0.001 C 
ATOM     16  C   UNL     1       3.944  -1.012  -0.280  0.00  0.00    +0.032 C 
ATOM     17  C   UNL     1       4.233   1.316   0.245  0.00  0.00    +0.036 C 
ATOM     18  C   UNL     1       4.776   0.094  -0.128  0.00  0.00    +0.133 C 
ENDROOT
BRANCH   5  19
ATOM     19  O   UNL     1      -4.762   1.461  -0.353  0.00  0.00    -0.382 OA
ATOM     20  H   UNL     1      -4.556   2.372  -0.094  0.00  0.00    +0.210 HD
ENDBRANCH   5  19
BRANCH   8  21
ATOM     21  O   UNL     1      -4.927  -1.487   0.874  0.00  0.00    -0.382 OA
ATOM     22  H   UNL     1      -5.780  -1.030   0.937  0.00  0.00    +0.210 HD
ENDBRANCH   8  21
BRANCH  18  23
ATOM     23  O   UNL     1       6.114  -0.025  -0.338  0.00  0.00    -0.506 OA
ATOM     24  H   UNL     1       6.478  -0.851  -0.589  0.00  0.00    +0.292 HD
ENDBRANCH  18  23
TORSDOF 3
