REMARK  Name = 12803287
REMARK  8 active torsions:
REMARK  status: ('A' for Active; 'I' for Inactive)
REMARK    1  A    between atoms: C_2  and  O_16
REMARK    2  A    between atoms: C_3  and  O_18
REMARK    3  A    between atoms: C_4  and  C_20
REMARK    4  A    between atoms: C_5  and  N_8
REMARK    5  A    between atoms: C_20  and  O_21
REMARK    6  A    between atoms: O_21  and  P_22
REMARK    7  A    between atoms: P_22  and  O_24
REMARK    8  A    between atoms: P_22  and  O_26
REMARK                            x       y       z     vdW  Elec       q    Type
REMARK                         _______ _______ _______ _____ _____    ______ ____
ROOT
ATOM      1  O   UNL     1       0.426   1.149  -1.133  0.00  0.00    -0.333 OA
ATOM      2  C   UNL     1      -0.451   2.167   0.820  0.00  0.00    +0.187 C 
ATOM      3  C   UNL     1       0.865   2.832   0.476  0.00  0.00    +0.171 C 
ATOM      4  C   UNL     1       1.512   1.803  -0.441  0.00  0.00    +0.176 C 
ATOM      5  C   UNL     1      -0.814   1.490  -0.491  0.00  0.00    +0.229 C 
ENDROOT
BRANCH   5   8
ATOM      6  O   UNL     1      -3.659   1.332  -0.540  0.00  0.00    -0.252 OA
ATOM      7  O   UNL     1      -3.595  -3.193   0.278  0.00  0.00    -0.270 OA
ATOM      8  N   UNL     1      -1.582   0.293  -0.296  0.00  0.00    -0.217 N 
ATOM      9  N   UNL     1      -3.613  -0.924  -0.131  0.00  0.00    -0.236 N 
ATOM     10  C   UNL     1      -0.907  -0.899  -0.062  0.00  0.00    +0.071 C 
ATOM     11  C   UNL     1      -2.994   0.314  -0.338  0.00  0.00    +0.315 C 
ATOM     12  C   UNL     1      -1.502  -2.082   0.135  0.00  0.00    +0.047 C 
ATOM     13  C   UNL     1      -2.988  -2.140   0.105  0.00  0.00    +0.250 C 
ATOM     14  C   UNL     1      -0.755  -3.353   0.385  0.00  0.00    +0.037 C 
ATOM     15  H   UNL     1      -4.597  -0.934  -0.156  0.00  0.00    +0.159 HD
ENDBRANCH   5   8
BRANCH   2  16
ATOM     16  O   UNL     1      -1.428   3.096   1.241  0.00  0.00    -0.378 OA
ATOM     17  H   UNL     1      -1.151   3.499   2.078  0.00  0.00    +0.211 HD
ENDBRANCH   2  16
BRANCH   3  18
ATOM     18  O   UNL     1       0.636   4.018  -0.285  0.00  0.00    -0.379 OA
ATOM     19  H   UNL     1       0.223   4.690   0.279  0.00  0.00    +0.211 HD
ENDBRANCH   3  18
BRANCH   4  20
ATOM     20  C   UNL     1       2.304   0.741   0.309  0.00  0.00    +0.186 C 
BRANCH  20  21
ATOM     21  O   UNL     1       2.852  -0.165  -0.631  0.00  0.00    -0.271 OA
BRANCH  21  22
ATOM     22  P   UNL     1       3.747  -1.399  -0.085  0.00  0.00    +0.473 P 
ATOM     23  O   UNL     1       4.287  -2.310  -1.148  0.00  0.00    -0.227 OA
BRANCH  22  24
ATOM     24  O   UNL     1       2.793  -2.107   1.013  0.00  0.00    -0.303 OA
ATOM     25  H   UNL     1       2.493  -1.446   1.656  0.00  0.00    +0.222 HD
ENDBRANCH  22  24
BRANCH  22  26
ATOM     26  O   UNL     1       4.868  -0.662   0.817  0.00  0.00    -0.303 OA
ATOM     27  H   UNL     1       4.433  -0.096   1.475  0.00  0.00    +0.222 HD
ENDBRANCH  22  26
ENDBRANCH  21  22
ENDBRANCH  20  21
ENDBRANCH   4  20
TORSDOF 8
