REMARK  Name = 6951294
REMARK  6 active torsions:
REMARK  status: ('A' for Active; 'I' for Inactive)
REMARK    1  A    between atoms: C_1  and  S_2
REMARK    2  A    between atoms: C_1  and  C_10
REMARK    3  A    between atoms: S_2  and  C_3
REMARK    4  A    between atoms: C_3  and  C_4
REMARK    5  A    between atoms: C_10  and  N_11
REMARK    6  A    between atoms: C_10  and  C_17
REMARK                            x       y       z     vdW  Elec       q    Type
REMARK                         _______ _______ _______ _____ _____    ______ ____
ROOT
ATOM      1  C   UNK     1      -1.954  -0.603   1.074  0.00  0.00    +0.047 C 
ENDROOT
BRANCH   1   2
ATOM      2  S   UNK     1      -0.584  -0.227  -0.068  0.00  0.00    -0.137 S 
BRANCH   2   3
ATOM      3  C   UNK     1       0.779  -0.400   1.104  0.00  0.00    +0.084 C 
BRANCH   3   4
ATOM      4  C   UNK     1       2.115  -0.145   0.462  0.00  0.00    -0.011 C 
ATOM      5  C   UNK     1       2.633   1.143   0.447  0.00  0.00    -0.003 C 
ATOM      6  C   UNK     1       2.814  -1.201  -0.108  0.00  0.00    -0.003 C 
ATOM      7  C   UNK     1       3.872   1.380  -0.148  0.00  0.00    -0.000 C 
ATOM      8  C   UNK     1       4.053  -0.965  -0.703  0.00  0.00    -0.000 C 
ATOM      9  C   UNK     1       4.582   0.326  -0.724  0.00  0.00    -0.000 C 
ENDBRANCH   3   4
ENDBRANCH   2   3
ENDBRANCH   1   2
BRANCH   1  10
ATOM     10  C   UNK     1      -3.329  -0.606   0.400  0.00  0.00    +0.051 C 
BRANCH  10  11
ATOM     11  N   UNK     1      -3.365  -1.790  -0.518  0.00  0.00    +0.389 N 
ATOM     12  H   UNK     1      -3.058  -2.621  -0.013  0.00  0.00    -0.088 HD
ATOM     13  H   UNK     1      -2.745  -1.625  -1.311  0.00  0.00    -0.088 HD
ATOM     14  H   UNK     1      -4.318  -1.929  -0.855  0.00  0.00    -0.088 HD
ENDBRANCH  10  11
BRANCH  10  17
ATOM     15  O   UNK     1      -4.522   0.598  -1.259  0.00  0.00    -0.248 OA
ATOM     16  O   UNK     1      -3.321   1.770   0.287  0.00  0.00    -0.248 OA
ATOM     17  C   UNK     1      -3.773   0.718  -0.247  0.00  0.00    +0.346 C 
ENDBRANCH  10  17
ENDBRANCH   1  10
TORSDOF 6
