REMARK  Name = 19266
REMARK  3 active torsions:
REMARK  status: ('A' for Active; 'I' for Inactive)
REMARK    1  A    between atoms: C_1  and  N_8
REMARK    2  A    between atoms: C_2  and  C_13
REMARK    3  A    between atoms: C_13  and  O_14
REMARK                            x       y       z     vdW  Elec       q    Type
REMARK                         _______ _______ _______ _____ _____    ______ ____
ROOT
ATOM      1  C   UNL     1       0.939   0.482   0.001  0.00  0.00    +0.050 C 
ATOM      2  C   UNL     1      -1.818   0.054   0.001  0.00  0.00    +0.076 C 
ATOM      3  C   UNL     1       0.064   1.569   0.000  0.00  0.00    +0.015 C 
ATOM      4  C   UNL     1       0.435  -0.819   0.001  0.00  0.00    +0.015 C 
ATOM      5  C   UNL     1      -1.314   1.355   0.000  0.00  0.00    +0.008 C 
ATOM      6  C   UNL     1      -0.944  -1.033   0.001  0.00  0.00    +0.008 C 
ENDROOT
BRANCH   1   8
ATOM      7  O   UNL     1       3.222  -1.481  -0.001  0.00  0.00    -0.275 OA
ATOM      8  N   UNL     1       2.317   0.696   0.000  0.00  0.00    -0.284 N 
ATOM      9  C   UNL     1       3.342  -0.260   0.000  0.00  0.00    +0.227 C 
ATOM     10  C   UNL     1       4.706   0.382  -0.001  0.00  0.00    +0.095 C 
ATOM     11  H   UNL     1       2.607   1.637  -0.001  0.00  0.00    +0.155 HD
ENDBRANCH   1   8
BRANCH   2  13
ATOM     12  O   UNL     1      -4.117   0.716  -0.002  0.00  0.00    -0.245 OA
ATOM     13  C   UNL     1      -3.255  -0.169   0.000  0.00  0.00    +0.338 C 
BRANCH  13  14
ATOM     14  O   UNL     1      -3.576  -1.492  -0.001  0.00  0.00    -0.477 OA
ATOM     15  H   UNL     1      -2.898  -2.139   0.000  0.00  0.00    +0.295 HD
ENDBRANCH  13  14
ENDBRANCH   2  13
TORSDOF 3
