REMARK  Name = 79084
REMARK  2 active torsions:
REMARK  status: ('A' for Active; 'I' for Inactive)
REMARK    1  A    between atoms: C_1  and  N_2
REMARK    2  A    between atoms: C_1  and  C_4
REMARK                            x       y       z     vdW  Elec       q    Type
REMARK                         _______ _______ _______ _____ _____    ______ ____
ROOT
ATOM      1  C   UNL     1      -0.056   0.987   0.263  0.00  0.00    +0.200 C 
ENDROOT
BRANCH   1   2
ATOM      2  N   UNL     1       1.064   0.128   0.054  0.00  0.00    -0.374 NA
ATOM      3  C   UNL     1       1.982  -0.576  -0.118  0.00  0.00    +0.129 C 
ENDBRANCH   1   2
BRANCH   1   4
ATOM      4  C   UNL     1      -1.307   0.410  -0.385  0.00  0.00    +0.042 C 
ATOM      5  C   UNL     1      -1.683  -0.949   0.186  0.00  0.00    +0.003 C 
ENDBRANCH   1   4
TORSDOF 2
