REMARK  Name = 447213
REMARK  5 active torsions:
REMARK  status: ('A' for Active; 'I' for Inactive)
REMARK    1  A    between atoms: CA_1  and  N_2
REMARK    2  A    between atoms: CA_1  and  CB_6
REMARK    3  A    between atoms: CA_1  and  C_13
REMARK    4  A    between atoms: CB_6  and  CG_7
REMARK    5  A    between atoms: C_13  and  O_14
REMARK                            x       y       z     vdW  Elec       q    Type
REMARK                         _______ _______ _______ _____ _____    ______ ____
ROOT
ATOM      1  CA  PHE A   1      -1.912  -0.485   0.149  0.00  0.00    -0.032 C 
ENDROOT
BRANCH   1   2
ATOM      2  N   PHE A   1      -3.151  -1.129  -0.301  0.00  0.00    +0.384 N 
ATOM      3  H1  PHE A   1      -3.046  -2.142  -0.248  0.00  0.00    -0.089 HD
ATOM      4  H2  PHE A   1      -3.344  -0.857  -1.265  0.00  0.00    -0.089 HD
ATOM      5  H3  PHE A   1      -3.923  -0.835   0.296  0.00  0.00    -0.089 HD
ENDBRANCH   1   2
BRANCH   1   6
ATOM      6  CB  PHE A   1      -0.751  -1.009  -0.723  0.00  0.00    +0.007 C 
BRANCH   6   7
ATOM      7  CG  PHE A   1       0.608  -0.469  -0.349  0.00  0.00    -0.024 C 
ATOM      8  CD1 PHE A   1       1.063   0.697  -0.945  0.00  0.00    -0.004 C 
ATOM      9  CD2 PHE A   1       1.377  -1.150   0.582  0.00  0.00    -0.004 C 
ATOM     10  CE1 PHE A   1       2.320   1.195  -0.600  0.00  0.00    -0.000 C 
ATOM     11  CE2 PHE A   1       2.633  -0.651   0.927  0.00  0.00    -0.000 C 
ATOM     12  CZ  PHE A   1       3.104   0.521   0.336  0.00  0.00    -0.000 C 
ENDBRANCH   6   7
ENDBRANCH   1   6
BRANCH   1  13
ATOM     13  C   PHE A   1      -2.098   1.034   0.058  0.00  0.00    +0.116 C 
BRANCH  13  14
ATOM     14  O   PHE A   1      -3.194   1.446   0.865  0.00  0.00    -0.384 OA
ATOM     15  H   PHE A   1      -3.300   2.408   0.799  0.00  0.00    +0.210 HD
ENDBRANCH  13  14
ENDBRANCH   1  13
TORSDOF 5
