REMARK  Name = 192706
REMARK  3 active torsions:
REMARK  status: ('A' for Active; 'I' for Inactive)
REMARK    1  A    between atoms: C_14  and  O_17
REMARK    2  A    between atoms: O_17  and  C_20
REMARK    3  A    between atoms: N_19  and  C_22
REMARK                            x       y       z     vdW  Elec       q    Type
REMARK                         _______ _______ _______ _____ _____    ______ ____
ROOT
ATOM      1  N   UNL     1      -4.483  -1.491  -0.774  0.00  0.00    +0.398 N 
ATOM      2  N   UNL     1      -3.908   1.032  -0.602  0.00  0.00    -0.327 N 
ATOM      3  C   UNL     1      -3.213  -0.597   1.051  0.00  0.00    +0.017 C 
ATOM      4  C   UNL     1      -4.340  -0.237   0.007  0.00  0.00    +0.023 C 
ATOM      5  C   UNL     1      -2.929  -2.087   0.839  0.00  0.00    -0.019 C 
ATOM      6  C   UNL     1      -2.090   0.306   0.618  0.00  0.00    -0.007 C 
ATOM      7  C   UNL     1      -4.176  -2.592   0.137  0.00  0.00    -0.075 C 
ATOM      8  C   UNL     1      -2.564   1.220  -0.331  0.00  0.00    +0.042 C 
ATOM      9  C   UNL     1      -3.650  -0.292   2.487  0.00  0.00    +0.004 C 
ATOM     10  C   UNL     1      -5.798  -1.637  -1.383  0.00  0.00    -0.098 C 
ATOM     11  C   UNL     1      -0.771   0.316   1.050  0.00  0.00    +0.035 C 
ATOM     12  C   UNL     1      -4.641   1.704  -1.643  0.00  0.00    +0.110 C 
ATOM     13  C   UNL     1      -1.702   2.169  -0.861  0.00  0.00    +0.017 C 
ATOM     14  C   UNL     1       0.093   1.268   0.512  0.00  0.00    +0.150 C 
ATOM     15  C   UNL     1      -0.369   2.189  -0.437  0.00  0.00    +0.039 C 
ATOM     16  H   UNL     1      -3.839  -1.482  -1.565  0.00  0.00    -0.077 HD
ENDROOT
BRANCH  14  17
ATOM     17  O   UNL     1       1.395   1.306   0.913  0.00  0.00    -0.410 OA
BRANCH  17  20
ATOM     18  O   UNL     1       1.913  -0.162  -0.800  0.00  0.00    -0.226 OA
ATOM     19  N   UNL     1       3.565   0.636   0.656  0.00  0.00    -0.250 N 
ATOM     20  C   UNL     1       2.283   0.513   0.153  0.00  0.00    +0.410 C 
ATOM     21  H   UNL     1       3.668   1.230   1.434  0.00  0.00    +0.158 HD
BRANCH  19  22
ATOM     22  C   UNL     1       4.745   0.013   0.190  0.00  0.00    +0.053 C 
ATOM     23  C   UNL     1       5.946   0.266   0.834  0.00  0.00    +0.015 C 
ATOM     24  C   UNL     1       4.679  -0.837  -0.903  0.00  0.00    +0.015 C 
ATOM     25  C   UNL     1       7.111  -0.348   0.374  0.00  0.00    +0.001 C 
ATOM     26  C   UNL     1       5.844  -1.451  -1.363  0.00  0.00    +0.001 C 
ATOM     27  C   UNL     1       7.060  -1.206  -0.725  0.00  0.00    +0.000 C 
ENDBRANCH  19  22
ENDBRANCH  17  20
ENDBRANCH  14  17
TORSDOF 3
