REMARK  Name = 2353
REMARK  2 active torsions:
REMARK  status: ('A' for Active; 'I' for Inactive)
REMARK    1  A    between atoms: C_17  and  O_22
REMARK    2  A    between atoms: C_19  and  O_24
REMARK                            x       y       z     vdW  Elec       q    Type
REMARK                         _______ _______ _______ _____ _____    ______ ____
ROOT
ATOM      1  O   UNL     1      -6.155   0.036  -0.105  0.00  0.00    -0.435 OA
ATOM      2  O   UNL     1      -5.032  -2.063   0.264  0.00  0.00    -0.435 OA
ATOM      3  N   UNL     1       0.096   1.217   0.273  0.00  0.00    -0.300 N 
ATOM      4  C   UNL     1      -0.673   2.450   0.580  0.00  0.00    +0.096 C 
ATOM      5  C   UNL     1      -1.885   2.537  -0.328  0.00  0.00    +0.048 C 
ATOM      6  C   UNL     1      -0.536   0.032   0.032  0.00  0.00    +0.118 C 
ATOM      7  C   UNL     1      -2.699   1.284  -0.168  0.00  0.00    -0.019 C 
ATOM      8  C   UNL     1      -2.012   0.053   0.023  0.00  0.00    -0.001 C 
ATOM      9  C   UNL     1       1.446   1.297   0.293  0.00  0.00    +0.065 C 
ATOM     10  C   UNL     1       0.240  -1.112  -0.223  0.00  0.00    -0.002 C 
ATOM     11  C   UNL     1       2.253   0.187   0.051  0.00  0.00    +0.051 C 
ATOM     12  C   UNL     1       1.638  -1.046  -0.215  0.00  0.00    +0.002 C 
ATOM     13  C   UNL     1      -4.100   1.344  -0.236  0.00  0.00    +0.036 C 
ATOM     14  C   UNL     1      -2.782  -1.116   0.184  0.00  0.00    +0.038 C 
ATOM     15  C   UNL     1      -4.801   0.170  -0.080  0.00  0.00    +0.176 C 
ATOM     16  C   UNL     1      -4.160  -1.025   0.129  0.00  0.00    +0.176 C 
ATOM     17  C   UNL     1       3.655   0.273   0.067  0.00  0.00    +0.174 C 
ATOM     18  C   UNL     1       2.437  -2.174  -0.465  0.00  0.00    +0.003 C 
ATOM     19  C   UNL     1       4.437  -0.855  -0.182  0.00  0.00    +0.172 C 
ATOM     20  C   UNL     1      -6.294  -1.382   0.115  0.00  0.00    +0.429 C 
ATOM     21  C   UNL     1       3.829  -2.078  -0.448  0.00  0.00    +0.040 C 
ENDROOT
BRANCH  17  22
ATOM     22  O   UNL     1       4.280   1.461   0.324  0.00  0.00    -0.468 OA
ATOM     23  C   UNL     1       4.572   2.291  -0.796  0.00  0.00    +0.253 C 
ENDBRANCH  17  22
BRANCH  19  24
ATOM     24  O   UNL     1       5.797  -0.774  -0.168  0.00  0.00    -0.468 OA
ATOM     25  C   UNL     1       6.448  -1.008   1.080  0.00  0.00    +0.253 C 
ENDBRANCH  19  24
TORSDOF 2
