REMARK  Name = 5327154
REMARK  3 active torsions:
REMARK  status: ('A' for Active; 'I' for Inactive)
REMARK    1  A    between atoms: C_3  and  N_13
REMARK    2  A    between atoms: C_4  and  C_7
REMARK    3  A    between atoms: N_13  and  S_15
REMARK                            x       y       z     vdW  Elec       q    Type
REMARK                         _______ _______ _______ _____ _____    ______ ____
ROOT
ATOM      1  N   UNL     1       0.911  -1.802  -0.226  0.00  0.00    -0.195 N 
ATOM      2  N   UNL     1      -0.419  -1.766  -0.035  0.00  0.00    -0.177 NA
ATOM      3  C   UNL     1       1.463  -0.584  -0.491  0.00  0.00    +0.136 C 
ATOM      4  C   UNL     1      -0.716  -0.471  -0.187  0.00  0.00    +0.101 C 
ATOM      5  C   UNL     1       0.422   0.312  -0.473  0.00  0.00    +0.053 C 
ATOM      6  C   UNL     1       1.607  -3.065  -0.137  0.00  0.00    +0.141 C 
ENDROOT
BRANCH   4   7
ATOM      7  C   UNL     1      -2.069  -0.008  -0.055  0.00  0.00    +0.019 C 
ATOM      8  C   UNL     1      -2.498   1.107  -0.775  0.00  0.00    +0.002 C 
ATOM      9  C   UNL     1      -2.954  -0.674   0.793  0.00  0.00    +0.002 C 
ATOM     10  C   UNL     1      -3.812   1.556  -0.647  0.00  0.00    +0.000 C 
ATOM     11  C   UNL     1      -4.268  -0.225   0.921  0.00  0.00    +0.000 C 
ATOM     12  C   UNL     1      -4.697   0.890   0.201  0.00  0.00    +0.000 C 
ENDBRANCH   4   7
BRANCH   3  13
ATOM     13  N   UNL     1       2.858  -0.287  -0.742  0.00  0.00    -0.199 N 
ATOM     14  H   UNL     1       3.406  -0.793  -1.385  0.00  0.00    +0.175 HD
BRANCH  13  15
ATOM     15  S   UNL     1       3.482   1.044   0.193  0.00  0.00    +0.092 S 
ATOM     16  O   UNL     1       2.844   0.815   1.677  0.00  0.00    -0.050 OA
ATOM     17  O   UNL     1       2.927   2.279  -0.327  0.00  0.00    -0.050 OA
ATOM     18  O   UNL     1       4.920   0.878   0.311  0.00  0.00    -0.050 OA
ENDBRANCH  13  15
ENDBRANCH   3  13
TORSDOF 3
