REMARK  Name = 9576912
REMARK  8 active torsions:
REMARK  status: ('A' for Active; 'I' for Inactive)
REMARK    1  A    between atoms: N_1  and  C1*_14
REMARK    2  A    between atoms: N_4  and  N_27
REMARK    3  A    between atoms: C2*_13  and  O2*_17
REMARK    4  A    between atoms: C3*_15  and  O3*_19
REMARK    5  A    between atoms: C4*_16  and  C5*_21
REMARK    6  A    between atoms: C5*_21  and  O5*_22
REMARK    7  A    between atoms: N_27  and  C_28
REMARK    8  A    between atoms: C_28  and  C_29
REMARK                            x       y       z     vdW  Elec       q    Type
REMARK                         _______ _______ _______ _____ _____    ______ ____
ROOT
ATOM      1  N   UNL     1       2.410   0.594   0.135  0.00  0.00    -0.236 N 
ATOM      2  N   UNL     1       3.041   2.725  -0.036  0.00  0.00    -0.240 NA
ATOM      3  N   UNL     1      -0.003   0.867   0.079  0.00  0.00    -0.310 NA
ATOM      4  N   UNL     1      -2.245   1.532  -0.009  0.00  0.00    -0.186 N 
ATOM      5  N   UNL     1      -0.624   3.219  -0.128  0.00  0.00    -0.311 NA
ATOM      6  C   UNL     1       1.258   1.324   0.058  0.00  0.00    +0.221 C 
ATOM      7  C   UNL     1       3.453   1.480   0.075  0.00  0.00    +0.224 C 
ATOM      8  C   UNL     1       1.671   2.643  -0.048  0.00  0.00    +0.167 C 
ATOM      9  C   UNL     1       0.674   3.608  -0.144  0.00  0.00    +0.212 C 
ATOM     10  C   UNL     1      -0.888   1.889  -0.019  0.00  0.00    +0.217 C 
ATOM     11  H   UNL     1      -2.933   2.233  -0.070  0.00  0.00    +0.182 HD
ATOM     12  N   UNL     1       1.001   4.971  -0.256  0.00  0.00    -0.331 N 
ATOM     13  H   UNL     1       0.287   5.645  -0.323  0.00  0.00    +0.145 HD
ATOM     14  H   UNL     1       1.945   5.251  -0.267  0.00  0.00    +0.145 HD
ENDROOT
BRANCH   1  17
ATOM     15  O4* UNL     1       3.681  -1.191   1.046  0.00  0.00    -0.333 OA
ATOM     16  C2* UNL     1       2.683  -1.584  -1.066  0.00  0.00    +0.187 C 
ATOM     17  C1* UNL     1       2.520  -0.858   0.260  0.00  0.00    +0.226 C 
ATOM     18  C3* UNL     1       3.382  -2.856  -0.629  0.00  0.00    +0.171 C 
ATOM     19  C4* UNL     1       4.317  -2.354   0.466  0.00  0.00    +0.175 C 
BRANCH  16  20
ATOM     20  O2* UNL     1       1.439  -1.823  -1.692  0.00  0.00    -0.378 OA
ATOM     21  H2* UNL     1       1.039  -0.977  -1.950  0.00  0.00    +0.211 HD
ENDBRANCH  16  20
BRANCH  18  22
ATOM     22  O3* UNL     1       2.429  -3.747  -0.049  0.00  0.00    -0.379 OA
ATOM     23  H3* UNL     1       1.829  -4.073  -0.738  0.00  0.00    +0.211 HD
ENDBRANCH  18  22
BRANCH  19  24
ATOM     24  C5* UNL     1       5.683  -1.940  -0.063  0.00  0.00    +0.169 C 
BRANCH  24  25
ATOM     25  O5* UNL     1       6.470  -1.481   1.022  0.00  0.00    -0.379 OA
ATOM     26  H5* UNL     1       7.344  -1.214   0.698  0.00  0.00    +0.211 HD
ENDBRANCH  24  25
ENDBRANCH  19  24
ENDBRANCH   1  17
BRANCH   4  27
ATOM     27  N   UNL     1      -2.617   0.240   0.082  0.00  0.00    -0.123 NA
BRANCH  27  28
ATOM     28  C   UNL     1      -3.897   0.070   0.079  0.00  0.00    +0.112 C 
BRANCH  28  29
ATOM     29  C   UNL     1      -4.483  -1.309   0.172  0.00  0.00    +0.019 C 
ATOM     30  C   UNL     1      -5.273  -1.632  -1.098  0.00  0.00    +0.001 C 
ATOM     31  C   UNL     1      -5.317  -1.467   1.444  0.00  0.00    +0.001 C 
ATOM     32  C   UNL     1      -6.631  -0.935  -1.151  0.00  0.00    +0.000 C 
ATOM     33  C   UNL     1      -6.685  -0.788   1.363  0.00  0.00    +0.000 C 
ATOM     34  C   UNL     1      -7.448  -1.197   0.109  0.00  0.00    +0.000 C 
ENDBRANCH  28  29
ENDBRANCH  27  28
ENDBRANCH   4  27
TORSDOF 8
