REMARK  Name = 92105
REMARK  8 active torsions:
REMARK  status: ('A' for Active; 'I' for Inactive)
REMARK    1  A    between atoms: CA_1  and  N_2
REMARK    2  A    between atoms: CA_1  and  C_7
REMARK    3  A    between atoms: CA_1  and  C_10
REMARK    4  A    between atoms: C_7  and  O_8
REMARK    5  A    between atoms: C_10  and  C_13
REMARK    6  A    between atoms: N_11  and  C_14
REMARK    7  A    between atoms: N_12  and  C_13
REMARK    8  A    between atoms: C_13  and  C_14
REMARK                            x       y       z     vdW  Elec       q    Type
REMARK                         _______ _______ _______ _____ _____    ______ ____
ROOT
ATOM      1  CA  UNL     1      -1.770   0.743  -0.413  0.00  0.00    +0.037 C 
ENDROOT
BRANCH   1   2
ATOM      2  N   UNL     1      -3.037   1.438  -0.175  0.00  0.00    +0.389 N 
ATOM      3  H1  UNL     1      -2.894   2.444  -0.264  0.00  0.00    -0.088 HD
ATOM      4  H2  UNL     1      -3.371   1.223   0.764  0.00  0.00    -0.088 HD
ATOM      5  H3  UNL     1      -3.727   1.130  -0.861  0.00  0.00    -0.088 HD
ENDBRANCH   1   2
BRANCH   1   7
ATOM      6  OXT UNL     1      -2.861  -1.245   0.496  0.00  0.00    -0.253 OA
ATOM      7  C   UNL     1      -2.050  -0.739  -0.267  0.00  0.00    +0.293 C 
BRANCH   7   8
ATOM      8  O   UNL     1      -1.289  -1.456  -1.133  0.00  0.00    -0.482 OA
ATOM      9  H   UNL     1      -0.682  -1.019  -1.697  0.00  0.00    +0.295 HD
ENDBRANCH   7   8
ENDBRANCH   1   7
BRANCH   1  10
ATOM     10  C   UNL     1      -0.725   1.215   0.608  0.00  0.00    +0.008 C 
BRANCH  10  11
ATOM     11  C   UNL     1       0.617   0.545   0.419  0.00  0.00    +0.087 C 
BRANCH  11  12
ATOM     12  N   UNL     1       0.873  -0.610   1.073  0.00  0.00    -0.217 NA
ATOM     13  C   UNL     1       2.096  -0.906   0.693  0.00  0.00    +0.107 C 
ENDBRANCH  11  12
BRANCH  11  14
ATOM     14  C   UNL     1       1.637   0.979  -0.352  0.00  0.00    +0.086 C 
BRANCH  14  15
ATOM     15  N   UNL     1       2.600   0.027  -0.170  0.00  0.00    -0.295 NA
ATOM     16  C   UNL     1       3.908   0.008  -0.778  0.00  0.00    +0.086 C 
ATOM     17  H   UNL     1       1.948   0.328   0.504  0.00  0.00    +0.123 HD
ENDBRANCH  14  15
ENDBRANCH  11  14
ENDBRANCH  10  11
ENDBRANCH   1  10
TORSDOF 8
