REMARK  Name = 4026
REMARK  11 active torsions:
REMARK  status: ('A' for Active; 'I' for Inactive)
REMARK    1  A    between atoms: C_1  and  C_2
REMARK    2  A    between atoms: C_1  and  C_11
REMARK    3  A    between atoms: C_2  and  C_3
REMARK    4  A    between atoms: C_3  and  N_4
REMARK    5  A    between atoms: N_4  and  C_7
REMARK    6  A    between atoms: C_7  and  C_8
REMARK    7  A    between atoms: C_8  and  C_9
REMARK    8  A    between atoms: C_11  and  N_12
REMARK    9  A    between atoms: N_12  and  C_15
REMARK   10  A    between atoms: C_15  and  C_16
REMARK   11  A    between atoms: C_16  and  C_17
REMARK                            x       y       z     vdW  Elec       q    Type
REMARK                         _______ _______ _______ _____ _____    ______ ____
ROOT
ATOM      1  C   UNL     1       0.637   0.341  -0.378  0.00  0.00    -0.026 C 
ENDROOT
BRANCH   1   2
ATOM      2  C   UNL     1      -0.666   0.359   0.428  0.00  0.00    -0.026 C 
BRANCH   2   3
ATOM      3  C   UNL     1      -1.883   0.338  -0.496  0.00  0.00    -0.082 C 
BRANCH   3   4
ATOM      4  N   UNL     1      -3.114   0.364   0.286  0.00  0.00    +0.384 N 
ATOM      5  H   UNL     1      -3.124   1.204   0.864  0.00  0.00    -0.084 HD
ATOM      6  H   UNL     1      -3.146  -0.471   0.870  0.00  0.00    -0.084 HD
BRANCH   4   7
ATOM      7  C   UNL     1      -4.282   0.369  -0.584  0.00  0.00    -0.068 C 
BRANCH   7   8
ATOM      8  C   UNL     1      -5.555   0.405   0.203  0.00  0.00    +0.054 C 
BRANCH   8   9
ATOM      9  C   UNL     1      -6.504  -0.483   0.121  0.00  0.00    -0.080 C 
ATOM     10  C   UNL     1      -7.450  -1.368   0.040  0.00  0.00    -0.014 C 
ENDBRANCH   8   9
ENDBRANCH   7   8
ENDBRANCH   4   7
ENDBRANCH   3   4
ENDBRANCH   2   3
ENDBRANCH   1   2
BRANCH   1  11
ATOM     11  C   UNL     1       1.895   0.388   0.492  0.00  0.00    -0.082 C 
BRANCH  11  12
ATOM     12  N   UNL     1       3.119   0.367  -0.300  0.00  0.00    +0.384 N 
ATOM     13  H   UNL     1       3.130   1.179  -0.918  0.00  0.00    -0.084 HD
ATOM     14  H   UNL     1       3.140  -0.495  -0.844  0.00  0.00    -0.084 HD
BRANCH  12  15
ATOM     15  C   UNL     1       4.294   0.405   0.559  0.00  0.00    -0.068 C 
BRANCH  15  16
ATOM     16  C   UNL     1       5.561   0.394  -0.240  0.00  0.00    +0.054 C 
BRANCH  16  17
ATOM     17  C   UNL     1       6.504  -0.496  -0.124  0.00  0.00    -0.080 C 
ATOM     18  C   UNL     1       7.445  -1.383  -0.009  0.00  0.00    -0.014 C 
ENDBRANCH  16  17
ENDBRANCH  15  16
ENDBRANCH  12  15
ENDBRANCH  11  12
ENDBRANCH   1  11
TORSDOF 11
