REMARK  Name = 446355
REMARK  6 active torsions:
REMARK  status: ('A' for Active; 'I' for Inactive)
REMARK    1  A    between atoms: C_1  and  C_3
REMARK    2  A    between atoms: C_1  and  N_13
REMARK    3  A    between atoms: C_1  and  C_18
REMARK    4  A    between atoms: C_8  and  C_10
REMARK    5  A    between atoms: C_10  and  O_11
REMARK    6  A    between atoms: C_18  and  O_19
REMARK                            x       y       z     vdW  Elec       q    Type
REMARK                         _______ _______ _______ _____ _____    ______ ____
ROOT
ATOM      1  C   UNL     1       2.121  -0.529   0.182  0.00  0.00    +0.062 C 
ATOM      2  C   UNL     1       2.675  -1.654  -0.713  0.00  0.00    -0.007 C 
ENDROOT
BRANCH   1   3
ATOM      3  C   UNL     1       0.600  -0.344   0.122  0.00  0.00    -0.031 C 
ATOM      4  C   UNL     1      -0.183  -1.441  -0.146  0.00  0.00    -0.006 C 
ATOM      5  C   UNL     1       0.083   0.910   0.340  0.00  0.00    -0.006 C 
ATOM      6  C   UNL     1      -1.567  -1.274  -0.200  0.00  0.00    +0.006 C 
ATOM      7  C   UNL     1      -1.301   1.078   0.285  0.00  0.00    +0.006 C 
ATOM      8  C   UNL     1      -2.126  -0.014   0.016  0.00  0.00    +0.075 C 
BRANCH   8  10
ATOM      9  O   UNL     1      -4.390  -0.733  -0.271  0.00  0.00    -0.245 OA
ATOM     10  C   UNL     1      -3.568   0.161  -0.041  0.00  0.00    +0.338 C 
BRANCH  10  11
ATOM     11  O   UNL     1      -3.946   1.448   0.193  0.00  0.00    -0.477 OA
ATOM     12  H   UNL     1      -3.298   2.103   0.365  0.00  0.00    +0.295 HD
ENDBRANCH  10  11
ENDBRANCH   8  10
ENDBRANCH   1   3
BRANCH   1  13
ATOM     13  N   UNL     1       2.542  -0.860   1.554  0.00  0.00    +0.392 N 
ATOM     14  H   UNL     1       2.072  -1.713   1.858  0.00  0.00    -0.088 HD
ATOM     15  H   UNL     1       2.295  -0.094   2.180  0.00  0.00    -0.088 HD
ATOM     16  H   UNL     1       3.552  -1.004   1.575  0.00  0.00    -0.088 HD
ENDBRANCH   1  13
BRANCH   1  18
ATOM     17  O   UNL     1       3.614   1.384   0.466  0.00  0.00    -0.252 OA
ATOM     18  C   UNL     1       2.842   0.755  -0.250  0.00  0.00    +0.298 C 
BRANCH  18  19
ATOM     19  O   UNL     1       2.605   1.112  -1.539  0.00  0.00    -0.481 OA
ATOM     20  H   UNL     1       2.009   0.612  -2.062  0.00  0.00    +0.295 HD
ENDBRANCH  18  19
ENDBRANCH   1  18
TORSDOF 6
