REMARK  Name = 7708
REMARK  3 active torsions:
REMARK  status: ('A' for Active; 'I' for Inactive)
REMARK    1  A    between atoms: C_1  and  C_7
REMARK    2  A    between atoms: C_7  and  O_8
REMARK    3  A    between atoms: O_8  and  C_10
REMARK                            x       y       z     vdW  Elec       q    Type
REMARK                         _______ _______ _______ _____ _____    ______ ____
ROOT
ATOM      1  C   UNL     1      -0.315   0.000   0.291  0.00  0.00    +0.021 C 
ATOM      2  C   UNL     1      -1.000   1.208   0.164  0.00  0.00    -0.001 C 
ATOM      3  C   UNL     1      -1.000  -1.208   0.164  0.00  0.00    -0.001 C 
ATOM      4  C   UNL     1      -2.372   1.208  -0.090  0.00  0.00    -0.000 C 
ATOM      5  C   UNL     1      -2.372  -1.208  -0.090  0.00  0.00    -0.000 C 
ATOM      6  C   UNL     1      -3.058   0.000  -0.217  0.00  0.00    -0.000 C 
ENDROOT
BRANCH   1   7
ATOM      7  C   UNL     1       1.152   0.000   0.563  0.00  0.00    +0.236 C 
BRANCH   7   8
ATOM      8  O   UNL     1       1.861   0.000  -0.670  0.00  0.00    -0.436 OA
BRANCH   8  10
ATOM      9  O   UNL     1       3.885   0.000   0.454  0.00  0.00    -0.238 OA
ATOM     10  C   UNL     1       3.219   0.000  -0.570  0.00  0.00    +0.418 C 
ENDBRANCH   8  10
ENDBRANCH   7   8
ENDBRANCH   1   7
TORSDOF 3
