REMARK  Name = 6433106
REMARK  1 active torsions:
REMARK  status: ('A' for Active; 'I' for Inactive)
REMARK    1  A    between atoms: C_3  and  N_12
REMARK                            x       y       z     vdW  Elec       q    Type
REMARK                         _______ _______ _______ _____ _____    ______ ____
ROOT
ATOM      1  C   UNL     1      -1.327  -0.747  -0.073  0.00  0.00    -0.002 C 
ATOM      2  C   UNL     1       1.324  -0.752  -0.073  0.00  0.00    -0.002 C 
ATOM      3  C   UNL     1       0.003   1.518  -0.076  0.00  0.00    -0.049 C 
ATOM      4  C   UNL     1      -0.003  -1.473  -0.419  0.00  0.00    -0.000 C 
ATOM      5  C   UNL     1      -1.265   0.742  -0.493  0.00  0.00    -0.020 C 
ATOM      6  C   UNL     1       1.267   0.737  -0.493  0.00  0.00    -0.020 C 
ATOM      7  C   UNL     1      -1.717  -0.918   1.407  0.00  0.00    -0.000 C 
ATOM      8  C   UNL     1      -2.462  -1.421  -0.887  0.00  0.00    -0.000 C 
ATOM      9  C   UNL     1       2.456  -1.431  -0.886  0.00  0.00    -0.000 C 
ATOM     10  C   UNL     1       1.713  -0.924   1.407  0.00  0.00    -0.000 C 
ATOM     11  C   UNL     1       0.005   2.891  -0.777  0.00  0.00    -0.022 C 
ENDROOT
BRANCH   3  12
ATOM     12  N   UNL     1       0.004   1.780   1.364  0.00  0.00    +0.383 N 
ATOM     13  H   UNL     1       0.002   0.894   1.871  0.00  0.00    -0.089 HD
ATOM     14  H   UNL     1      -0.828   2.315   1.613  0.00  0.00    -0.089 HD
ATOM     15  H   UNL     1       0.838   2.312   1.613  0.00  0.00    -0.089 HD
ENDBRANCH   3  12
TORSDOF 1
