REMARK  Name = 448974
REMARK  7 active torsions:
REMARK  status: ('A' for Active; 'I' for Inactive)
REMARK    1  A    between atoms: N_2  and  C_14
REMARK    2  A    between atoms: C_6  and  C_18
REMARK    3  A    between atoms: C_14  and  C_15
REMARK    4  A    between atoms: C_15  and  C_16
REMARK    5  A    between atoms: C_18  and  C_19
REMARK    6  A    between atoms: C_20  and  O_25
REMARK    7  A    between atoms: C_22  and  O_27
REMARK                            x       y       z     vdW  Elec       q    Type
REMARK                         _______ _______ _______ _____ _____    ______ ____
ROOT
ATOM      1  F   UNL     1      -5.252  -0.364  -1.726  0.00  0.00    -0.098 F 
ATOM      2  N   UNL     1      -1.043   0.620   0.084  0.00  0.00    -0.238 N 
ATOM      3  N   UNL     1      -0.895  -1.258   1.249  0.00  0.00    -0.383 NA
ATOM      4  N   UNL     1      -3.209   0.313  -0.967  0.00  0.00    -0.299 NA
ATOM      5  N   UNL     1      -4.205  -1.815  -0.306  0.00  0.00    -0.300 NA
ATOM      6  C   UNL     1      -0.294  -0.129   0.939  0.00  0.00    +0.170 C 
ATOM      7  C   UNL     1      -2.190  -0.057  -0.176  0.00  0.00    +0.237 C 
ATOM      8  C   UNL     1      -2.082  -1.227   0.559  0.00  0.00    +0.222 C 
ATOM      9  C   UNL     1      -3.142  -2.123   0.475  0.00  0.00    +0.225 C 
ATOM     10  C   UNL     1      -4.173  -0.633  -0.968  0.00  0.00    +0.300 C 
ATOM     11  N   UNL     1      -3.115  -3.336   1.186  0.00  0.00    -0.330 N 
ATOM     12  H   UNL     1      -3.871  -3.963   1.119  0.00  0.00    +0.145 HD
ATOM     13  H   UNL     1      -2.339  -3.558   1.751  0.00  0.00    +0.145 HD
ENDROOT
BRANCH   2  14
ATOM     14  C   UNL     1      -0.682   1.924  -0.464  0.00  0.00    +0.100 C 
BRANCH  14  15
ATOM     15  C   UNL     1      -1.165   3.072   0.421  0.00  0.00    +0.022 C 
BRANCH  15  16
ATOM     16  C   UNL     1      -0.786   4.426  -0.176  0.00  0.00    +0.002 C 
ATOM     17  C   UNL     1      -1.298   5.575   0.678  0.00  0.00    +0.000 C 
ENDBRANCH  15  16
ENDBRANCH  14  15
ENDBRANCH   2  14
BRANCH   6  18
ATOM     18  C   UNL     1       1.028   0.311   1.431  0.00  0.00    +0.105 C 
BRANCH  18  19
ATOM     19  C   UNL     1       2.198  -0.123   0.560  0.00  0.00    +0.023 C 
ATOM     20  C   UNL     1       3.018   0.832  -0.008  0.00  0.00    +0.135 C 
ATOM     21  C   UNL     1       2.402  -1.475   0.365  0.00  0.00    +0.036 C 
ATOM     22  C   UNL     1       3.471  -1.889  -0.431  0.00  0.00    +0.139 C 
ATOM     23  C   UNL     1       4.086   0.417  -0.804  0.00  0.00    +0.040 C 
ATOM     24  C   UNL     1       4.313  -0.943  -1.016  0.00  0.00    +0.040 C 
BRANCH  20  25
ATOM     25  O   UNL     1       2.811   2.164   0.187  0.00  0.00    -0.472 OA
ATOM     26  C   UNL     1       3.720   3.061  -0.448  0.00  0.00    +0.252 C 
ENDBRANCH  20  25
BRANCH  22  27
ATOM     27  O   UNL     1       3.692  -3.216  -0.637  0.00  0.00    -0.471 OA
ATOM     28  C   UNL     1       2.793  -4.129  -0.009  0.00  0.00    +0.252 C 
ENDBRANCH  22  27
ENDBRANCH  18  19
ENDBRANCH   6  18
TORSDOF 7
