REMARK  Name = 17754095
REMARK  7 active torsions:
REMARK  status: ('A' for Active; 'I' for Inactive)
REMARK    1  A    between atoms: C_2  and  O_15
REMARK    2  A    between atoms: C_3  and  C_17
REMARK    3  A    between atoms: C_5  and  C_8
REMARK    4  A    between atoms: C_17  and  O_18
REMARK    5  A    between atoms: O_18  and  P_19
REMARK    6  A    between atoms: P_19  and  O_21
REMARK    7  A    between atoms: P_19  and  O_23
REMARK                            x       y       z     vdW  Elec       q    Type
REMARK                         _______ _______ _______ _____ _____    ______ ____
ROOT
ATOM      1  O   UNL     1      -0.643  -1.078  -1.090  0.00  0.00    -0.349 OA
ATOM      2  C   UNL     1      -1.157  -2.748   0.517  0.00  0.00    +0.143 C 
ATOM      3  C   UNL     1      -1.749  -1.665  -0.375  0.00  0.00    +0.172 C 
ATOM      4  C   UNL     1       0.240  -2.239   0.784  0.00  0.00    +0.066 C 
ATOM      5  C   UNL     1       0.591  -1.566  -0.536  0.00  0.00    +0.141 C 
ENDROOT
BRANCH   5   8
ATOM      6  O   UNL     1       4.291   2.526   0.092  0.00  0.00    -0.270 OA
ATOM      7  N   UNL     1       2.181   1.831  -0.513  0.00  0.00    -0.280 N 
ATOM      8  C   UNL     1       1.554  -0.442  -0.382  0.00  0.00    +0.019 C 
ATOM      9  C   UNL     1       2.882  -0.750   0.111  0.00  0.00    -0.000 C 
ATOM     10  C   UNL     1       1.256   0.832  -0.674  0.00  0.00    +0.062 C 
ATOM     11  C   UNL     1       3.818   0.199   0.282  0.00  0.00    +0.032 C 
ATOM     12  C   UNL     1       3.469   1.622  -0.048  0.00  0.00    +0.246 C 
ATOM     13  C   UNL     1       5.197  -0.081   0.787  0.00  0.00    +0.036 C 
ATOM     14  H   UNL     1       1.914   2.751  -0.742  0.00  0.00    +0.155 HD
ENDBRANCH   5   8
BRANCH   2  15
ATOM     15  O   UNL     1      -1.063  -3.970  -0.210  0.00  0.00    -0.382 OA
ATOM     16  H   UNL     1      -1.954  -4.310  -0.389  0.00  0.00    +0.210 HD
ENDBRANCH   2  15
BRANCH   3  17
ATOM     17  C   UNL     1      -2.435  -0.558   0.414  0.00  0.00    +0.185 C 
BRANCH  17  18
ATOM     18  O   UNL     1      -2.940   0.402  -0.498  0.00  0.00    -0.271 OA
BRANCH  18  19
ATOM     19  P   UNL     1      -3.721   1.692   0.092  0.00  0.00    +0.473 P 
ATOM     20  O   UNL     1      -4.222   2.657  -0.942  0.00  0.00    -0.227 OA
BRANCH  19  21
ATOM     21  O   UNL     1      -2.683   2.309   1.169  0.00  0.00    -0.303 OA
ATOM     22  H   UNL     1      -2.415   1.617   1.793  0.00  0.00    +0.222 HD
ENDBRANCH  19  21
BRANCH  19  23
ATOM     23  O   UNL     1      -4.867   1.028   1.020  0.00  0.00    -0.303 OA
ATOM     24  H   UNL     1      -4.457   0.421   1.656  0.00  0.00    +0.222 HD
ENDBRANCH  19  23
ENDBRANCH  18  19
ENDBRANCH  17  18
ENDBRANCH   3  17
TORSDOF 7
