REMARK  Name = 637542
REMARK  4 active torsions:
REMARK  status: ('A' for Active; 'I' for Inactive)
REMARK    1  A    between atoms: C_1  and  C_9
REMARK    2  A    between atoms: C_6  and  O_7
REMARK    3  A    between atoms: C_10  and  C_12
REMARK    4  A    between atoms: C_12  and  O_13
REMARK                            x       y       z     vdW  Elec       q    Type
REMARK                         _______ _______ _______ _____ _____    ______ ____
ROOT
ATOM      1  C   UNL     1       0.343  -0.289   0.070  0.00  0.00    +0.000 C 
ATOM      2  C   UNL     1       0.843   1.006   0.202  0.00  0.00    +0.003 C 
ATOM      3  C   UNL     1       1.219  -1.360  -0.110  0.00  0.00    +0.003 C 
ATOM      4  C   UNL     1       2.219   1.231   0.152  0.00  0.00    +0.037 C 
ATOM      5  C   UNL     1       2.594  -1.135  -0.159  0.00  0.00    +0.037 C 
ATOM      6  C   UNL     1       3.095   0.160  -0.028  0.00  0.00    +0.134 C 
ENDROOT
BRANCH   6   7
ATOM      7  O   UNL     1       4.437   0.380  -0.076  0.00  0.00    -0.506 OA
ATOM      8  H   UNL     1       4.772   1.250   0.012  0.00  0.00    +0.292 HD
ENDBRANCH   6   7
BRANCH   1   9
ATOM      9  C   UNL     1      -1.091  -0.524   0.120  0.00  0.00    +0.007 C 
ATOM     10  C   UNL     1      -2.044   0.411  -0.093  0.00  0.00    +0.082 C 
BRANCH  10  12
ATOM     11  O   UNL     1      -3.924  -1.063   0.228  0.00  0.00    -0.245 OA
ATOM     12  C   UNL     1      -3.472   0.042  -0.023  0.00  0.00    +0.338 C 
BRANCH  12  13
ATOM     13  O   UNL     1      -4.218   1.141  -0.283  0.00  0.00    -0.477 OA
ATOM     14  H   UNL     1      -3.798   1.959  -0.468  0.00  0.00    +0.295 HD
ENDBRANCH  12  13
ENDBRANCH  10  12
ENDBRANCH   1   9
TORSDOF 4
