REMARK  Name = 4472713
REMARK  6 active torsions:
REMARK  status: ('A' for Active; 'I' for Inactive)
REMARK    1  A    between atoms: N_6  and  C_12
REMARK    2  A    between atoms: C_7  and  C_17
REMARK    3  A    between atoms: C_17  and  N_18
REMARK    4  A    between atoms: N_18  and  C_20
REMARK    5  A    between atoms: C_23  and  C_27
REMARK    6  A    between atoms: C_27  and  O_28
REMARK                            x       y       z     vdW  Elec       q    Type
REMARK                         _______ _______ _______ _____ _____    ______ ____
ROOT
ATOM      1  O   UNL     1      -3.584  -2.650  -0.472  0.00  0.00    -0.267 OA
ATOM      2  N   UNL     1      -5.134   1.062   0.379  0.00  0.00    -0.290 N 
ATOM      3  N   UNL     1      -1.914  -0.502  -0.544  0.00  0.00    -0.399 NA
ATOM      4  N   UNL     1      -5.414  -1.317   0.113  0.00  0.00    -0.272 N 
ATOM      5  N   UNL     1      -2.990   2.025   0.041  0.00  0.00    -0.247 NA
ATOM      6  C   UNL     1      -1.161   0.614  -0.556  0.00  0.00    +0.131 C 
ATOM      7  C   UNL     1      -3.215  -0.327  -0.234  0.00  0.00    +0.215 C 
ATOM      8  C   UNL     1      -3.755   0.914   0.056  0.00  0.00    +0.161 C 
ATOM      9  C   UNL     1      -1.688   1.853  -0.268  0.00  0.00    +0.183 C 
ATOM     10  C   UNL     1      -4.039  -1.544  -0.221  0.00  0.00    +0.280 C 
ATOM     11  C   UNL     1      -5.952  -0.063   0.404  0.00  0.00    +0.208 C 
ATOM     12  H   UNL     1      -5.504   1.951   0.583  0.00  0.00    +0.151 HD
ATOM     13  H   UNL     1      -6.017  -2.095   0.138  0.00  0.00    +0.153 HD
ENDROOT
BRANCH  11  14
ATOM     14  N   UNL     1      -7.298   0.061   0.716  0.00  0.00    -0.290 NA
ATOM     15  H   UNL     1      -7.675   0.947   0.921  0.00  0.00    +0.122 HD
ATOM     16  H   UNL     1      -7.875  -0.736   0.733  0.00  0.00    +0.122 HD
ENDBRANCH  11  14
BRANCH   6  17
ATOM     17  C   UNL     1       0.282   0.467  -0.894  0.00  0.00    +0.145 C 
BRANCH  17  18
ATOM     18  N   UNL     1       1.100   0.235   0.271  0.00  0.00    -0.327 N 
ATOM     19  H   UNL     1       0.652   0.155   1.144  0.00  0.00    +0.147 HD
BRANCH  18  20
ATOM     20  C   UNL     1       2.481   0.117   0.232  0.00  0.00    +0.045 C 
ATOM     21  C   UNL     1       3.219  -0.109   1.408  0.00  0.00    +0.015 C 
ATOM     22  C   UNL     1       3.180   0.221  -0.985  0.00  0.00    +0.015 C 
ATOM     23  C   UNL     1       5.283  -0.122   0.153  0.00  0.00    +0.076 C 
ATOM     24  C   UNL     1       4.608  -0.228   1.369  0.00  0.00    +0.008 C 
ATOM     25  C   UNL     1       4.569   0.103  -1.024  0.00  0.00    +0.008 C 
BRANCH  23  27
ATOM     26  O   UNL     1       7.461  -0.445   1.090  0.00  0.00    -0.245 OA
ATOM     27  C   UNL     1       6.731  -0.246   0.113  0.00  0.00    +0.338 C 
BRANCH  27  28
ATOM     28  O   UNL     1       7.230  -0.119  -1.148  0.00  0.00    -0.477 OA
ATOM     29  H   UNL     1       6.649   0.031  -1.868  0.00  0.00    +0.295 HD
ENDBRANCH  27  28
ENDBRANCH  23  27
ENDBRANCH  18  20
ENDBRANCH  17  18
ENDBRANCH   6  17
TORSDOF 6
