REMARK  Name = 5288799
REMARK  9 active torsions:
REMARK  status: ('A' for Active; 'I' for Inactive)
REMARK    1  A    between atoms: C_1  and  C_2
REMARK    2  A    between atoms: C_1  and  C_12
REMARK    3  A    between atoms: C_2  and  N_4
REMARK    4  A    between atoms: C_12  and  C_13
REMARK    5  A    between atoms: C_13  and  C_14
REMARK    6  A    between atoms: C_14  and  C_15
REMARK    7  A    between atoms: C_15  and  C_16
REMARK    8  A    between atoms: C_16  and  C_17
REMARK    9  A    between atoms: C_17  and  N_19
REMARK                            x       y       z     vdW  Elec       q    Type
REMARK                         _______ _______ _______ _____ _____    ______ ____
ROOT
ATOM      1  C   UNL     1      -1.115   1.726   1.261  0.00  0.00    -0.023 C 
ENDROOT
BRANCH   1   2
ATOM      2  C   UNL     1      -2.552   1.871   0.755  0.00  0.00    -0.077 C 
BRANCH   2   4
ATOM      3  O   UNL     1      -5.030  -1.348  -0.304  0.00  0.00    -0.363 OA
ATOM      4  N   UNL     1      -3.042   0.638   0.142  0.00  0.00    +0.390 N 
ATOM      5  C   UNL     1      -3.376  -0.359   1.170  0.00  0.00    -0.047 C 
ATOM      6  C   UNL     1      -4.218   0.905  -0.698  0.00  0.00    -0.047 C 
ATOM      7  C   UNL     1      -3.885  -1.641   0.503  0.00  0.00    +0.095 C 
ATOM      8  C   UNL     1      -4.712  -0.401  -1.330  0.00  0.00    +0.095 C 
ATOM      9  C   UNL     1      -4.302  -2.672   1.543  0.00  0.00    +0.030 C 
ATOM     10  C   UNL     1      -5.971  -0.170  -2.155  0.00  0.00    +0.030 C 
ATOM     11  H   UNL     1      -2.297   0.264  -0.447  0.00  0.00    -0.080 HD
ENDBRANCH   2   4
ENDBRANCH   1   2
BRANCH   1  12
ATOM     12  C   UNL     1      -0.113   1.413   0.145  0.00  0.00    -0.002 C 
BRANCH  12  13
ATOM     13  C   UNL     1       1.316   1.349   0.688  0.00  0.00    -0.000 C 
BRANCH  13  14
ATOM     14  C   UNL     1       2.316   1.008  -0.419  0.00  0.00    +0.000 C 
BRANCH  14  15
ATOM     15  C   UNL     1       3.749   0.977   0.117  0.00  0.00    +0.002 C 
BRANCH  15  16
ATOM     16  C   UNL     1       4.746   0.605  -0.985  0.00  0.00    +0.021 C 
BRANCH  16  17
ATOM     17  C   UNL     1       6.184   0.552  -0.481  0.00  0.00    +0.090 C 
BRANCH  17  19
ATOM     18  O   UNL     1       6.920  -2.271  -0.793  0.00  0.00    -0.265 OA
ATOM     19  N   UNL     1       6.368  -0.434   0.548  0.00  0.00    -0.297 N 
ATOM     20  C   UNL     1       6.717  -1.747   0.295  0.00  0.00    +0.300 C 
ATOM     21  H   UNL     1       6.238  -0.160   1.484  0.00  0.00    +0.150 HD
ENDBRANCH  17  19
ENDBRANCH  16  17
ENDBRANCH  15  16
ENDBRANCH  14  15
ENDBRANCH  13  14
ENDBRANCH  12  13
ENDBRANCH   1  12
TORSDOF 9
