REMARK  Name = 444397
REMARK  8 active torsions:
REMARK  status: ('A' for Active; 'I' for Inactive)
REMARK    1  A    between atoms: C_1  and  O_2
REMARK    2  A    between atoms: C_1  and  C_4
REMARK    3  A    between atoms: C_1  and  C_8
REMARK    4  A    between atoms: C_4  and  C_5
REMARK    5  A    between atoms: C_5  and  C_6
REMARK    6  A    between atoms: C_8  and  O_9
REMARK    7  A    between atoms: C_8  and  C_11
REMARK    8  A    between atoms: C_11  and  O_12
REMARK                            x       y       z     vdW  Elec       q    Type
REMARK                         _______ _______ _______ _____ _____    ______ ____
ROOT
ATOM      1  C   UNL     1      -0.477   0.931   0.436  0.00  0.00    +0.140 C 
ENDROOT
BRANCH   1   2
ATOM      2  O   UNL     1      -1.160   2.092  -0.043  0.00  0.00    -0.382 OA
ATOM      3  H   UNL     1      -0.663   2.887   0.209  0.00  0.00    +0.210 HD
ENDBRANCH   1   2
BRANCH   1   4
ATOM      4  C   UNL     1       0.950   0.996  -0.129  0.00  0.00    +0.032 C 
BRANCH   4   5
ATOM      5  C   UNL     1       1.862  -0.121   0.377  0.00  0.00    +0.003 C 
BRANCH   5   6
ATOM      6  C   UNL     1       3.236  -0.060  -0.294  0.00  0.00    +0.000 C 
ATOM      7  C   UNL     1       4.159  -1.149   0.228  0.00  0.00    +0.000 C 
ENDBRANCH   5   6
ENDBRANCH   4   5
ENDBRANCH   1   4
BRANCH   1   8
ATOM      8  C   UNL     1      -1.258  -0.333   0.041  0.00  0.00    +0.166 C 
BRANCH   8   9
ATOM      9  O   UNL     1      -1.310  -0.443  -1.383  0.00  0.00    -0.379 OA
ATOM     10  H   UNL     1      -0.408  -0.435  -1.741  0.00  0.00    +0.211 HD
ENDBRANCH   8   9
BRANCH   8  11
ATOM     11  C   UNL     1      -2.689  -0.347   0.578  0.00  0.00    +0.169 C 
BRANCH  11  12
ATOM     12  O   UNL     1      -3.314  -1.567   0.189  0.00  0.00    -0.379 OA
ATOM     13  H   UNL     1      -4.223  -1.585   0.525  0.00  0.00    +0.211 HD
ENDBRANCH  11  12
ENDBRANCH   8  11
ENDBRANCH   1   8
TORSDOF 8
