REMARK  Name = 5289149
REMARK  6 active torsions:
REMARK  status: ('A' for Active; 'I' for Inactive)
REMARK    1  A    between atoms: C_1  and  N_2
REMARK    2  A    between atoms: C_1  and  C_6
REMARK    3  A    between atoms: C_1  and  C_13
REMARK    4  A    between atoms: C_6  and  C_7
REMARK    5  A    between atoms: C_13  and  C_15
REMARK    6  A    between atoms: C_13  and  O_16
REMARK                            x       y       z     vdW  Elec       q    Type
REMARK                         _______ _______ _______ _____ _____    ______ ____
ROOT
ATOM      1  C   UNL     1      -1.213  -1.182   0.277  0.00  0.00    -0.033 C 
ENDROOT
BRANCH   1   2
ATOM      2  N   UNL     1      -2.221  -2.196  -0.062  0.00  0.00    +0.384 N 
ATOM      3  H   UNL     1      -1.832  -3.126   0.091  0.00  0.00    -0.089 HD
ATOM      4  H   UNL     1      -2.489  -2.095  -1.041  0.00  0.00    -0.089 HD
ATOM      5  H   UNL     1      -3.042  -2.069   0.530  0.00  0.00    -0.089 HD
ENDBRANCH   1   2
BRANCH   1   6
ATOM      6  C   UNL     1       0.044  -1.490  -0.566  0.00  0.00    +0.007 C 
BRANCH   6   7
ATOM      7  C   UNL     1       1.218  -0.591  -0.259  0.00  0.00    -0.024 C 
ATOM      8  C   UNL     1       1.370   0.591  -0.967  0.00  0.00    -0.004 C 
ATOM      9  C   UNL     1       2.120  -0.963   0.724  0.00  0.00    -0.004 C 
ATOM     10  C   UNL     1       2.454   1.422  -0.684  0.00  0.00    -0.000 C 
ATOM     11  C   UNL     1       3.204  -0.132   1.007  0.00  0.00    -0.000 C 
ATOM     12  C   UNL     1       3.371   1.060   0.303  0.00  0.00    -0.000 C 
ENDBRANCH   6   7
ENDBRANCH   1   6
BRANCH   1  13
ATOM     13  C   UNL     1      -1.752   0.254   0.063  0.00  0.00    +0.107 C 
BRANCH  13  15
ATOM     14 CL   UNL     1      -3.558   2.226   0.608  0.00  0.00    -0.111 Cl
ATOM     15  C   UNL     1      -3.012   0.547   0.879  0.00  0.00    +0.122 C 
ENDBRANCH  13  15
BRANCH  13  16
ATOM     16  O   UNL     1      -2.026   0.454  -1.324  0.00  0.00    -0.385 OA
ATOM     17  H   UNL     1      -1.227   0.269  -1.841  0.00  0.00    +0.210 HD
ENDBRANCH  13  16
ENDBRANCH   1  13
TORSDOF 6
