REMARK  Name = 5289111
REMARK  6 active torsions:
REMARK  status: ('A' for Active; 'I' for Inactive)
REMARK    1  A    between atoms: C_3  and  C_9
REMARK    2  A    between atoms: C_4  and  C_20
REMARK    3  A    between atoms: N_8  and  C_11
REMARK    4  A    between atoms: C_11  and  C_13
REMARK    5  A    between atoms: N_19  and  C_22
REMARK    6  A    between atoms: C_22  and  C_24
REMARK                            x       y       z     vdW  Elec       q    Type
REMARK                         _______ _______ _______ _____ _____    ______ ____
ROOT
ATOM      1  N   UNL     1       1.132   1.726   0.422  0.00  0.00    -0.244 NA
ATOM      2  N   UNL     1      -1.115   1.721  -0.448  0.00  0.00    -0.244 NA
ATOM      3  C   UNL     1       1.069   0.392   0.409  0.00  0.00    +0.115 C 
ATOM      4  C   UNL     1      -1.082   0.372  -0.423  0.00  0.00    +0.115 C 
ATOM      5  C   UNL     1       0.007  -0.360   0.004  0.00  0.00    +0.100 C 
ATOM      6  C   UNL     1       0.009   2.325  -0.018  0.00  0.00    +0.250 C 
ENDROOT
BRANCH   3   9
ATOM      7  O   UNL     1       2.343  -1.516   0.894  0.00  0.00    -0.269 OA
ATOM      8  N   UNL     1       3.337   0.542   1.285  0.00  0.00    -0.296 N 
ATOM      9  C   UNL     1       2.299  -0.288   0.890  0.00  0.00    +0.260 C 
ATOM     10  H   UNL     1       3.205   1.517   1.245  0.00  0.00    +0.150 HD
BRANCH   8  11
ATOM     11  C   UNL     1       4.603   0.032   1.752  0.00  0.00    +0.118 C 
BRANCH  11  13
ATOM     12  N   UNL     1       7.354   0.757  -0.720  0.00  0.00    -0.243 NA
ATOM     13  C   UNL     1       5.583  -0.157   0.648  0.00  0.00    +0.017 C 
ATOM     14  C   UNL     1       5.663  -1.362  -0.040  0.00  0.00    +0.001 C 
ATOM     15  C   UNL     1       6.442   0.863   0.273  0.00  0.00    +0.096 C 
ATOM     16  C   UNL     1       6.588  -1.509  -1.068  0.00  0.00    +0.020 C 
ATOM     17  C   UNL     1       7.403  -0.429  -1.367  0.00  0.00    +0.099 C 
ENDBRANCH  11  13
ENDBRANCH   8  11
ENDBRANCH   3   9
BRANCH   4  20
ATOM     18  O   UNL     1      -2.359  -1.541  -0.879  0.00  0.00    -0.269 OA
ATOM     19  N   UNL     1      -3.347   0.514  -1.301  0.00  0.00    -0.296 N 
ATOM     20  C   UNL     1      -2.285  -0.298  -0.883  0.00  0.00    +0.260 C 
ATOM     21  H   UNL     1      -3.223   1.490  -1.279  0.00  0.00    +0.150 HD
BRANCH  19  22
ATOM     22  C   UNL     1      -4.616  -0.003  -1.763  0.00  0.00    +0.118 C 
BRANCH  22  24
ATOM     23  N   UNL     1      -7.346   0.776   0.716  0.00  0.00    -0.243 NA
ATOM     24  C   UNL     1      -5.597  -0.170  -0.639  0.00  0.00    +0.017 C 
ATOM     25  C   UNL     1      -5.666  -1.361   0.061  0.00  0.00    +0.001 C 
ATOM     26  C   UNL     1      -6.442   0.861  -0.286  0.00  0.00    +0.096 C 
ATOM     27  C   UNL     1      -6.584  -1.487   1.099  0.00  0.00    +0.020 C 
ATOM     28  C   UNL     1      -7.394  -0.399   1.383  0.00  0.00    +0.099 C 
ENDBRANCH  22  24
ENDBRANCH  19  22
ENDBRANCH   4  20
TORSDOF 6
