REMARK  Name = 4488
REMARK  4 active torsions:
REMARK  status: ('A' for Active; 'I' for Inactive)
REMARK    1  A    between atoms: N_1  and  C_13
REMARK    2  A    between atoms: C_5  and  C_10
REMARK    3  A    between atoms: C_10  and  O_11
REMARK    4  A    between atoms: C_14  and  C_22
REMARK                            x       y       z     vdW  Elec       q    Type
REMARK                         _______ _______ _______ _____ _____    ______ ____
ROOT
ATOM      1  N   UNL     1       0.853  -0.919  -0.456  0.00  0.00    -0.298 N 
ATOM      2  H   UNL     1       1.319  -1.786  -0.429  0.00  0.00    +0.154 HD
ATOM      3  N   UNL     1       1.314   1.321  -1.079  0.00  0.00    -0.229 NA
ATOM      4  C   UNL     1       1.720   0.190  -0.450  0.00  0.00    +0.138 C 
ATOM      5  C   UNL     1       2.945   0.072   0.195  0.00  0.00    +0.107 C 
ATOM      6  C   UNL     1       3.798   1.170   0.195  0.00  0.00    +0.011 C 
ATOM      7  C   UNL     1       3.410   2.344  -0.442  0.00  0.00    +0.021 C 
ATOM      8  C   UNL     1       2.170   2.368  -1.059  0.00  0.00    +0.100 C 
ENDROOT
BRANCH   1   9
ATOM      9  C   UNL     1      -0.553  -1.033  -0.492  0.00  0.00    +0.049 C 
ATOM     10  C   UNL     1      -2.738  -0.148   0.035  0.00  0.00    +0.073 C 
ATOM     11  C   UNL     1      -1.348  -0.036   0.073  0.00  0.00    +0.018 C 
ATOM     12  C   UNL     1      -1.147  -2.141  -1.096  0.00  0.00    +0.015 C 
ATOM     13  C   UNL     1      -3.333  -1.256  -0.568  0.00  0.00    +0.004 C 
ATOM     14  C   UNL     1      -2.537  -2.253  -1.134  0.00  0.00    +0.001 C 
BRANCH  10  18
ATOM     15  F   UNL     1      -4.913   0.649   0.515  0.00  0.00    -0.166 F 
ATOM     16  F   UNL     1      -3.353   1.081   1.965  0.00  0.00    -0.166 F 
ATOM     17  F   UNL     1      -3.370   2.116   0.047  0.00  0.00    -0.166 F 
ATOM     18  C   UNL     1      -3.589   0.917   0.640  0.00  0.00    +0.419 C 
ENDBRANCH  10  18
ENDBRANCH   1   9
BRANCH   5  20
ATOM     19  O   UNL     1       2.602  -1.969   1.396  0.00  0.00    -0.245 OA
ATOM     20  C   UNL     1       3.361  -1.153   0.865  0.00  0.00    +0.341 C 
BRANCH  20  21
ATOM     21  O   UNL     1       4.711  -1.320   0.849  0.00  0.00    -0.477 OA
ATOM     22  H   UNL     1       5.257  -0.681   0.437  0.00  0.00    +0.295 HD
ENDBRANCH  20  21
ENDBRANCH   5  20
TORSDOF 4
