REMARK  Name = 5288172
REMARK  0 active torsions:
REMARK  status: ('A' for Active; 'I' for Inactive)
REMARK                            x       y       z     vdW  Elec       q    Type
REMARK                         _______ _______ _______ _____ _____    ______ ____
ROOT
ATOM      1  O   UNL     1       4.925  -1.156   0.529  0.00  0.00    -0.296 OA
ATOM      2  O   UNL     1      -5.751  -0.086   0.510  0.00  0.00    -0.296 OA
ATOM      3  C   UNL     1       0.549   0.779  -0.232  0.00  0.00    +0.000 C 
ATOM      4  C   UNL     1      -0.247  -0.452   0.296  0.00  0.00    +0.000 C 
ATOM      5  C   UNL     1       1.985   0.679   0.282  0.00  0.00    +0.007 C 
ATOM      6  C   UNL     1       2.687  -0.592  -0.239  0.00  0.00    +0.052 C 
ATOM      7  C   UNL     1      -1.708  -0.409  -0.234  0.00  0.00    +0.001 C 
ATOM      8  C   UNL     1      -2.384   0.927   0.170  0.00  0.00    +0.007 C 
ATOM      9  C   UNL     1       0.472  -1.790  -0.014  0.00  0.00    +0.000 C 
ATOM     10  C   UNL     1      -0.130   2.084   0.196  0.00  0.00    +0.000 C 
ATOM     11  C   UNL     1       1.967  -1.798   0.354  0.00  0.00    +0.007 C 
ATOM     12  C   UNL     1       2.979   1.799  -0.006  0.00  0.00    +0.008 C 
ATOM     13  C   UNL     1      -1.571   2.139  -0.300  0.00  0.00    +0.000 C 
ATOM     14  C   UNL     1      -2.559  -1.589   0.277  0.00  0.00    +0.008 C 
ATOM     15  C   UNL     1       4.081  -0.304   0.286  0.00  0.00    +0.150 C 
ATOM     16  C   UNL     1       4.315   1.189   0.444  0.00  0.00    +0.064 C 
ATOM     17  C   UNL     1      -3.814   1.018  -0.369  0.00  0.00    +0.064 C 
ATOM     18  C   UNL     1       2.811  -0.715  -1.769  0.00  0.00    +0.007 C 
ATOM     19  C   UNL     1      -3.994  -1.534  -0.234  0.00  0.00    +0.065 C 
ATOM     20  C   UNL     1      -4.614  -0.190   0.053  0.00  0.00    +0.151 C 
ENDROOT
TORSDOF 0
