REMARK  Name = 167842
REMARK  5 active torsions:
REMARK  status: ('A' for Active; 'I' for Inactive)
REMARK    1  A    between atoms: N_4  and  C_11
REMARK    2  A    between atoms: C_11  and  CA_12
REMARK    3  A    between atoms: CA_12  and  N_13
REMARK    4  A    between atoms: CA_12  and  C_18
REMARK    5  A    between atoms: C_18  and  O_19
REMARK                            x       y       z     vdW  Elec       q    Type
REMARK                         _______ _______ _______ _____ _____    ______ ____
ROOT
ATOM      1 BR   UNL     1       3.573  -2.049   0.589  0.00  0.00    -0.043 Br
ATOM      2  O   UNL     1      -0.593   1.889  -1.015  0.00  0.00    -0.252 OA
ATOM      3  O   UNL     1       3.672   1.041   0.476  0.00  0.00    -0.269 OA
ATOM      4  N   UNL     1       0.047  -0.331  -0.690  0.00  0.00    -0.243 N 
ATOM      5  N   UNL     1       1.531   1.447  -0.271  0.00  0.00    -0.235 N 
ATOM      6  C   UNL     1       0.254   1.055  -0.686  0.00  0.00    +0.314 C 
ATOM      7  C   UNL     1       1.037  -1.214  -0.312  0.00  0.00    +0.080 C 
ATOM      8  C   UNL     1       2.256  -0.832   0.084  0.00  0.00    +0.103 C 
ATOM      9  C   UNL     1       2.574   0.620   0.123  0.00  0.00    +0.260 C 
ATOM     10  H   UNL     1       1.710   2.415  -0.256  0.00  0.00    +0.159 HD
ENDROOT
BRANCH   4  11
ATOM     11  C   UNL     1      -1.238  -0.886  -1.101  0.00  0.00    +0.089 C 
BRANCH  11  12
ATOM     12  CA  UNL     1      -2.195  -1.039   0.083  0.00  0.00    +0.056 C 
BRANCH  12  13
ATOM     13  N   UNL     1      -3.486  -1.542  -0.381  0.00  0.00    +0.390 N 
ATOM     14  H1  UNL     1      -3.351  -2.431  -0.863  0.00  0.00    -0.088 HD
ATOM     15  H2  UNL     1      -3.905  -0.868  -1.021  0.00  0.00    -0.088 HD
ATOM     16  H3  UNL     1      -4.104  -1.681   0.419  0.00  0.00    -0.088 HD
ENDBRANCH  12  13
BRANCH  12  18
ATOM     17  OXT UNL     1      -3.363   1.063   0.498  0.00  0.00    -0.253 OA
ATOM     18  C   UNL     1      -2.469   0.279   0.788  0.00  0.00    +0.295 C 
BRANCH  18  19
ATOM     19  O   UNL     1      -1.601   0.499   1.813  0.00  0.00    -0.482 OA
ATOM     20  H   UNL     1      -0.931  -0.127   2.002  0.00  0.00    +0.295 HD
ENDBRANCH  18  19
ENDBRANCH  12  18
ENDBRANCH  11  12
ENDBRANCH   4  11
TORSDOF 5
