REMARK  Name = 30668
REMARK  3 active torsions:
REMARK  status: ('A' for Active; 'I' for Inactive)
REMARK    1  A    between atoms: O_1  and  C_4
REMARK    2  A    between atoms: O_1  and  C_10
REMARK    3  A    between atoms: C_10  and  C_14
REMARK                            x       y       z     vdW  Elec       q    Type
REMARK                         _______ _______ _______ _____ _____    ______ ____
ROOT
ATOM      1  O   UNL     1       0.087  -0.690  -0.682  0.00  0.00    -0.470 OA
ENDROOT
BRANCH   1   4
ATOM      2 CL   UNL     1       2.343  -2.566  -0.136  0.00  0.00    -0.079 Cl
ATOM      3 CL   UNL     1      -0.063   2.289  -0.598  0.00  0.00    -0.079 Cl
ATOM      4  C   UNL     1       1.260  -0.076  -0.330  0.00  0.00    +0.160 C 
ATOM      5  C   UNL     1       2.387  -0.844  -0.050  0.00  0.00    +0.092 C 
ATOM      6  C   UNL     1       1.319   1.314  -0.255  0.00  0.00    +0.092 C 
ATOM      7  C   UNL     1       3.581  -0.218   0.308  0.00  0.00    +0.015 C 
ATOM      8  C   UNL     1       2.513   1.939   0.103  0.00  0.00    +0.015 C 
ATOM      9  C   UNL     1       3.644   1.173   0.385  0.00  0.00    +0.002 C 
ENDBRANCH   1   4
BRANCH   1  10
ATOM     10  C   UNL     1      -0.801  -1.030   0.376  0.00  0.00    +0.219 C 
ATOM     11  C   UNL     1      -0.990  -2.538   0.374  0.00  0.00    +0.055 C 
BRANCH  10  14
ATOM     12  N   UNL     1      -2.537   0.571   1.120  0.00  0.00    -0.296 N 
ATOM     13  N   UNL     1      -2.837  -0.516  -0.869  0.00  0.00    -0.228 NA
ATOM     14  C   UNL     1      -2.100  -0.311   0.187  0.00  0.00    +0.149 C 
ATOM     15  C   UNL     1      -3.795   1.115   0.704  0.00  0.00    +0.084 C 
ATOM     16  C   UNL     1      -4.011   0.387  -0.637  0.00  0.00    +0.116 C 
ATOM     17  H   UNL     1      -2.063   0.802   1.952  0.00  0.00    +0.153 HD
ENDBRANCH  10  14
ENDBRANCH   1  10
TORSDOF 3
