REMARK  Name = 6018
REMARK  4 active torsions:
REMARK  status: ('A' for Active; 'I' for Inactive)
REMARK    1  A    between atoms: C_4  and  C_21
REMARK    2  A    between atoms: C_14  and  O_17
REMARK    3  A    between atoms: C_15  and  O_19
REMARK    4  A    between atoms: C_21  and  C_22
REMARK                            x       y       z     vdW  Elec       q    Type
REMARK                         _______ _______ _______ _____ _____    ______ ____
ROOT
ATOM      1  O   UNL     1       2.152  -2.047   0.263  0.00  0.00    -0.296 OA
ATOM      2  N   UNL     1       1.215   1.827  -0.515  0.00  0.00    +0.392 N 
ATOM      3  C   UNL     1       0.482   0.735  -1.205  0.00  0.00    -0.027 C 
ATOM      4  C   UNL     1       2.719   0.245   0.714  0.00  0.00    +0.037 C 
ATOM      5  C   UNL     1       1.745   1.425   0.799  0.00  0.00    -0.069 C 
ATOM      6  C   UNL     1       1.427  -0.466  -1.389  0.00  0.00    +0.048 C 
ATOM      7  C   UNL     1       0.367   3.022  -0.431  0.00  0.00    -0.072 C 
ATOM      8  C   UNL     1      -0.891   0.445  -0.600  0.00  0.00    -0.042 C 
ATOM      9  C   UNL     1       2.076  -0.870  -0.085  0.00  0.00    +0.146 C 
ATOM     10  C   UNL     1      -0.919   2.802   0.366  0.00  0.00    +0.003 C 
ATOM     11  C   UNL     1      -1.570   1.466   0.103  0.00  0.00    -0.027 C 
ATOM     12  C   UNL     1      -1.553  -0.776  -0.801  0.00  0.00    +0.033 C 
ATOM     13  C   UNL     1      -2.853   1.230   0.623  0.00  0.00    +0.035 C 
ATOM     14  C   UNL     1      -2.832  -0.997  -0.284  0.00  0.00    +0.172 C 
ATOM     15  C   UNL     1      -3.480   0.003   0.431  0.00  0.00    +0.172 C 
ATOM     16  H   UNL     1       2.037   2.050  -1.076  0.00  0.00    -0.079 HD
ENDROOT
BRANCH  14  17
ATOM     17  O   UNL     1      -3.437  -2.201  -0.492  0.00  0.00    -0.468 OA
ATOM     18  C   UNL     1      -3.216  -3.215   0.487  0.00  0.00    +0.253 C 
ENDBRANCH  14  17
BRANCH  15  19
ATOM     19  O   UNL     1      -4.728  -0.200   0.936  0.00  0.00    -0.468 OA
ATOM     20  C   UNL     1      -5.831   0.144   0.099  0.00  0.00    +0.253 C 
ENDBRANCH  15  19
BRANCH   4  21
ATOM     21  C   UNL     1       4.060   0.628   0.094  0.00  0.00    +0.005 C 
BRANCH  21  22
ATOM     22  C   UNL     1       5.093  -0.511   0.118  0.00  0.00    +0.000 C 
ATOM     23  C   UNL     1       5.366  -1.021   1.534  0.00  0.00    +0.000 C 
ATOM     24  C   UNL     1       4.610  -1.665  -0.763  0.00  0.00    +0.000 C 
ENDBRANCH  21  22
ENDBRANCH   4  21
TORSDOF 4
