REMARK  Name = 5288593
REMARK  12 active torsions:
REMARK  status: ('A' for Active; 'I' for Inactive)
REMARK    1  A    between atoms: N_2  and  C_22
REMARK    2  A    between atoms: C_3  and  C_5
REMARK    3  A    between atoms: C_5  and  C_6
REMARK    4  A    between atoms: C_5  and  C_18
REMARK    5  A    between atoms: C_9  and  C_12
REMARK    6  A    between atoms: C_18  and  C_19
REMARK    7  A    between atoms: C_22  and  C_23
REMARK    8  A    between atoms: C_23  and  O_24
REMARK    9  A    between atoms: C_23  and  C_26
REMARK   10  A    between atoms: C_26  and  N_27
REMARK   11  A    between atoms: N_27  and  S_29
REMARK   12  A    between atoms: S_29  and  C_33
REMARK                            x       y       z     vdW  Elec       q    Type
REMARK                         _______ _______ _______ _____ _____    ______ ____
ROOT
ATOM      1  O   UNL     1       2.496  -3.803  -0.721  0.00  0.00    -0.275 OA
ATOM      2  N   UNL     1       1.058  -2.270  -1.700  0.00  0.00    -0.302 N 
ATOM      3  C   UNL     1       2.199  -2.645  -1.004  0.00  0.00    +0.226 C 
ATOM      4  H   UNL     1       0.905  -1.314  -1.880  0.00  0.00    +0.150 HD
ENDROOT
BRANCH   3   5
ATOM      5  C   UNL     1       3.061  -1.442  -0.603  0.00  0.00    +0.099 C 
BRANCH   5   6
ATOM      6  C   UNL     1       2.249  -0.475   0.242  0.00  0.00    -0.014 C 
ATOM      7  C   UNL     1       2.002   0.795  -0.242  0.00  0.00    -0.004 C 
ATOM      8  C   UNL     1       1.780  -0.893   1.472  0.00  0.00    -0.004 C 
ATOM      9  C   UNL     1       1.256   1.681   0.534  0.00  0.00    -0.000 C 
ATOM     10  C   UNL     1       1.034  -0.006   2.248  0.00  0.00    -0.000 C 
ATOM     11  C   UNL     1       0.772   1.281   1.779  0.00  0.00    -0.000 C 
BRANCH   9  12
ATOM     12  C   UNL     1       0.984   3.017   0.047  0.00  0.00    -0.000 C 
ATOM     13  C   UNL     1      -0.162   3.262  -0.710  0.00  0.00    -0.000 C 
ATOM     14  C   UNL     1       1.866   4.058   0.334  0.00  0.00    -0.000 C 
ATOM     15  C   UNL     1      -0.426   4.549  -1.179  0.00  0.00    -0.000 C 
ATOM     16  C   UNL     1       1.603   5.345  -0.135  0.00  0.00    -0.000 C 
ATOM     17  C   UNL     1       0.457   5.590  -0.891  0.00  0.00    +0.000 C 
ENDBRANCH   9  12
ENDBRANCH   5   6
BRANCH   5  18
ATOM     18  C   UNL     1       4.353  -1.914   0.103  0.00  0.00    +0.013 C 
BRANCH  18  19
ATOM     19  C   UNL     1       5.382  -0.806   0.411  0.00  0.00    +0.001 C 
ATOM     20  C   UNL     1       5.756  -0.078  -0.883  0.00  0.00    +0.000 C 
ATOM     21  C   UNL     1       4.866   0.204   1.437  0.00  0.00    +0.000 C 
ENDBRANCH  18  19
ENDBRANCH   5  18
ENDBRANCH   3   5
BRANCH   2  22
ATOM     22  C   UNL     1       0.087  -3.229  -2.172  0.00  0.00    +0.120 C 
BRANCH  22  23
ATOM     23  C   UNL     1      -1.017  -3.509  -1.153  0.00  0.00    +0.147 C 
BRANCH  23  24
ATOM     24  O   UNL     1      -0.441  -4.064   0.029  0.00  0.00    -0.381 OA
ATOM     25  H   UNL     1       0.062  -4.862  -0.200  0.00  0.00    +0.210 HD
ENDBRANCH  23  24
BRANCH  23  26
ATOM     26  C   UNL     1      -1.803  -2.256  -0.771  0.00  0.00    +0.122 C 
BRANCH  26  27
ATOM     27  N   UNL     1      -2.862  -2.617   0.201  0.00  0.00    -0.175 NA
ATOM     28  H   UNL     1      -3.693  -2.852  -0.342  0.00  0.00    +0.149 HD
BRANCH  27  29
ATOM     29  S   UNL     1      -3.346  -1.494   1.380  0.00  0.00    +0.077 S 
ATOM     30  O   UNL     1      -2.184  -1.040   2.120  0.00  0.00    -0.152 OA
ATOM     31  O   UNL     1      -4.500  -2.022   2.083  0.00  0.00    -0.152 OA
BRANCH  29  33
ATOM     32  N   UNL     1      -5.061  -0.448  -0.248  0.00  0.00    -0.224 NA
ATOM     33  C   UNL     1      -3.919  -0.148   0.387  0.00  0.00    +0.203 C 
ATOM     34  C   UNL     1      -3.236   1.036   0.314  0.00  0.00    +0.040 C 
ATOM     35  C   UNL     1      -3.781   2.025  -0.498  0.00  0.00    +0.005 C 
ATOM     36  C   UNL     1      -5.559   0.537  -1.028  0.00  0.00    +0.100 C 
ATOM     37  C   UNL     1      -4.964   1.779  -1.185  0.00  0.00    +0.021 C 
ENDBRANCH  29  33
ENDBRANCH  27  29
ENDBRANCH  26  27
ENDBRANCH  23  26
ENDBRANCH  22  23
ENDBRANCH   2  22
TORSDOF 12
