REMARK  Name = 1023
REMARK  6 active torsions:
REMARK  status: ('A' for Active; 'I' for Inactive)
REMARK    1  A    between atoms: O_1  and  P_2
REMARK    2  A    between atoms: O_1  and  P_8
REMARK    3  A    between atoms: P_2  and  O_4
REMARK    4  A    between atoms: P_2  and  O_6
REMARK    5  A    between atoms: P_8  and  O_10
REMARK    6  A    between atoms: P_8  and  O_12
REMARK                            x       y       z     vdW  Elec       q    Type
REMARK                         _______ _______ _______ _____ _____    ______ ____
ROOT
ATOM      1  O   UNL     1       0.000   0.000  -0.669  0.00  0.00    -0.186 OA
ENDROOT
BRANCH   1   2
ATOM      2  P   UNL     1       1.469   0.081   0.000  0.00  0.00    +0.481 P 
ATOM      3  O   UNL     1       1.689   1.276   0.879  0.00  0.00    -0.227 OA
BRANCH   2   4
ATOM      4  O   UNL     1       2.459  -0.030  -1.273  0.00  0.00    -0.302 OA
ATOM      5  H   UNL     1       2.244  -0.828  -1.781  0.00  0.00    +0.222 HD
ENDBRANCH   2   4
BRANCH   2   6
ATOM      6  O   UNL     1       1.627  -1.353   0.729  0.00  0.00    -0.302 OA
ATOM      7  H   UNL     1       1.467  -2.061   0.086  0.00  0.00    +0.222 HD
ENDBRANCH   2   6
ENDBRANCH   1   2
BRANCH   1   8
ATOM      8  P   UNL     1      -1.469  -0.081   0.000  0.00  0.00    +0.481 P 
ATOM      9  O   UNL     1      -1.689  -1.277   0.879  0.00  0.00    -0.227 OA
BRANCH   8  10
ATOM     10  O   UNL     1      -2.458   0.031  -1.273  0.00  0.00    -0.302 OA
ATOM     11  H   UNL     1      -2.244   0.829  -1.781  0.00  0.00    +0.222 HD
ENDBRANCH   8  10
BRANCH   8  12
ATOM     12  O   UNL     1      -1.627   1.353   0.729  0.00  0.00    -0.302 OA
ATOM     13  H   UNL     1      -1.467   2.062   0.087  0.00  0.00    +0.222 HD
ENDBRANCH   8  12
ENDBRANCH   1   8
TORSDOF 6
