REMARK  Name = 7510
REMARK  2 active torsions:
REMARK  status: ('A' for Active; 'I' for Inactive)
REMARK    1  A    between atoms: C_2  and  C_7
REMARK    2  A    between atoms: C_7  and  O_8
REMARK                            x       y       z     vdW  Elec       q    Type
REMARK                         _______ _______ _______ _____ _____    ______ ____
ROOT
ATOM      1  N   UNL     1      -1.482   1.211  -0.087  0.00  0.00    -0.243 NA
ATOM      2  C   UNL     1       0.571  -0.013   0.273  0.00  0.00    +0.026 C 
ATOM      3  C   UNL     1      -0.114  -1.216   0.142  0.00  0.00    +0.001 C 
ATOM      4  C   UNL     1      -0.153   1.162   0.151  0.00  0.00    +0.097 C 
ATOM      5  C   UNL     1      -1.483  -1.206  -0.103  0.00  0.00    +0.020 C 
ATOM      6  C   UNL     1      -2.115   0.022  -0.208  0.00  0.00    +0.099 C 
ENDROOT
BRANCH   2   7
ATOM      7  C   UNL     1       2.035   0.011   0.534  0.00  0.00    +0.165 C 
BRANCH   7   8
ATOM      8  O   UNL     1       2.740   0.028  -0.703  0.00  0.00    -0.377 OA
ATOM      9  H   UNL     1       3.694   0.044  -0.531  0.00  0.00    +0.211 HD
ENDBRANCH   7   8
ENDBRANCH   2   7
TORSDOF 2
