REMARK  Name = 347402
REMARK  6 active torsions:
REMARK  status: ('A' for Active; 'I' for Inactive)
REMARK    1  A    between atoms: C_1  and  C_2
REMARK    2  A    between atoms: C_1  and  C_7
REMARK    3  A    between atoms: C_2  and  C_3
REMARK    4  A    between atoms: C_3  and  C_4
REMARK    5  A    between atoms: C_4  and  C_5
REMARK    6  A    between atoms: C_7  and  N_9
REMARK                            x       y       z     vdW  Elec       q    Type
REMARK                         _______ _______ _______ _____ _____    ______ ____
ROOT
ATOM      1  C   UNL     1      -0.984  -0.993  -0.529  0.00  0.00    +0.021 C 
ENDROOT
BRANCH   1   2
ATOM      2  C   UNL     1       0.204  -0.514   0.312  0.00  0.00    +0.002 C 
BRANCH   2   3
ATOM      3  C   UNL     1       1.513  -0.430  -0.478  0.00  0.00    +0.000 C 
BRANCH   3   4
ATOM      4  C   UNL     1       2.686   0.116   0.341  0.00  0.00    +0.000 C 
BRANCH   4   5
ATOM      5  C   UNL     1       3.967   0.166  -0.493  0.00  0.00    +0.000 C 
ATOM      6  C   UNL     1       5.127   0.743   0.302  0.00  0.00    +0.000 C 
ENDBRANCH   4   5
ENDBRANCH   3   4
ENDBRANCH   2   3
ENDBRANCH   1   2
BRANCH   1   7
ATOM      7  C   UNL     1      -2.263  -1.125   0.292  0.00  0.00    +0.090 C 
BRANCH   7   9
ATOM      8  O   UNL     1      -4.043   0.901  -0.862  0.00  0.00    -0.265 OA
ATOM      9  N   UNL     1      -2.679   0.123   0.872  0.00  0.00    -0.297 N 
ATOM     10  C   UNL     1      -3.526   1.013   0.242  0.00  0.00    +0.300 C 
ATOM     11  H   UNL     1      -2.342   0.355   1.767  0.00  0.00    +0.150 HD
ENDBRANCH   7   9
ENDBRANCH   1   7
TORSDOF 6
