REMARK  Name = 1694
REMARK  0 active torsions:
REMARK  status: ('A' for Active; 'I' for Inactive)
REMARK                            x       y       z     vdW  Elec       q    Type
REMARK                         _______ _______ _______ _____ _____    ______ ____
ROOT
ATOM      1 BR   UNL     1      -0.115  -3.375   0.001  0.00  0.00    -0.047 Br
ATOM      2 BR   UNL     1      -0.113   3.375   0.000  0.00  0.00    -0.047 Br
ATOM      3 BR   UNL     1      -3.052  -1.665  -0.001  0.00  0.00    -0.048 Br
ATOM      4 BR   UNL     1      -3.051   1.666   0.001  0.00  0.00    -0.048 Br
ATOM      5  N   UNL     1       2.269  -1.153   0.000  0.00  0.00    -0.154 NA
ATOM      6  N   UNL     1       2.270   1.152   0.000  0.00  0.00    -0.154 NA
ATOM      7  N   UNL     1       2.944  -0.001   0.000  0.00  0.00    -0.196 N 
ATOM      8  C   UNL     1       0.993  -0.735   0.000  0.00  0.00    +0.129 A 
ATOM      9  C   UNL     1       0.994   0.735   0.000  0.00  0.00    +0.129 A 
ATOM     10  C   UNL     1      -0.198  -1.485   0.000  0.00  0.00    +0.062 A 
ATOM     11  C   UNL     1      -0.197   1.485   0.000  0.00  0.00    +0.062 A 
ATOM     12  C   UNL     1      -1.372  -0.710   0.000  0.00  0.00    +0.049 A 
ATOM     13  C   UNL     1      -1.372   0.711   0.000  0.00  0.00    +0.049 A 
ATOM     14  H   UNL     1       3.928  -0.001   0.000  0.00  0.00    +0.213 HD
ENDROOT
TORSDOF 0
