REMARK  Name = 760
REMARK  2 active torsions:
REMARK  status: ('A' for Active; 'I' for Inactive)
REMARK    1  A    between atoms: C_2  and  O_3
REMARK    2  A    between atoms: C_2  and  C_6
REMARK                            x       y       z     vdW  Elec       q    Type
REMARK                         _______ _______ _______ _____ _____    ______ ____
ROOT
ATOM      1  O   UNL     1      -1.606  -0.632  -0.002  0.00  0.00    -0.241 OA
ATOM      2  C   UNL     1      -0.564  -0.011   0.003  0.00  0.00    +0.381 C 
ENDROOT
BRANCH   2   3
ATOM      3  O   UNL     1      -0.385   1.316   0.000  0.00  0.00    -0.475 OA
ATOM      4  H   UNL     1       0.482   1.672   0.004  0.00  0.00    +0.296 HD
ENDBRANCH   2   3
BRANCH   2   6
ATOM      5  O   UNL     1       1.781   0.006  -0.002  0.00  0.00    -0.276 OA
ATOM      6  C   UNL     1       0.773  -0.679   0.002  0.00  0.00    +0.315 C 
ENDBRANCH   2   6
TORSDOF 2
