REMARK  Name = 5280343
REMARK  6 active torsions:
REMARK  status: ('A' for Active; 'I' for Inactive)
REMARK    1  A    between atoms: C_5  and  C_12
REMARK    2  A    between atoms: C_6  and  O_22
REMARK    3  A    between atoms: C_8  and  O_24
REMARK    4  A    between atoms: C_10  and  O_26
REMARK    5  A    between atoms: C_15  and  O_18
REMARK    6  A    between atoms: C_17  and  O_20
REMARK                            x       y       z     vdW  Elec       q    Type
REMARK                         _______ _______ _______ _____ _____    ______ ____
ROOT
ATOM      1  O   UNL     1      -0.326  -0.866  -0.125  0.00  0.00    -0.450 OA
ATOM      2  O   UNL     1      -2.041   2.825   0.085  0.00  0.00    -0.283 OA
ATOM      3  C   UNL     1      -2.336   0.486   0.023  0.00  0.00    +0.110 A 
ATOM      4  C   UNL     1      -1.689  -0.746  -0.052  0.00  0.00    +0.155 A 
ATOM      5  C   UNL     1       0.442   0.288  -0.110  0.00  0.00    +0.182 A 
ATOM      6  C   UNL     1      -0.058   1.536  -0.049  0.00  0.00    +0.208 A 
ATOM      7  C   UNL     1      -1.528   1.715   0.026  0.00  0.00    +0.238 A 
ATOM      8  C   UNL     1      -3.730   0.547   0.094  0.00  0.00    +0.143 C 
ATOM      9  C   UNL     1      -2.433  -1.926  -0.059  0.00  0.00    +0.074 C 
ATOM     10  C   UNL     1      -3.826  -1.869   0.012  0.00  0.00    +0.140 C 
ATOM     11  C   UNL     1      -4.472  -0.634   0.088  0.00  0.00    +0.073 C 
ENDROOT
BRANCH   5  12
ATOM     12  C   UNL     1       1.888   0.018  -0.193  0.00  0.00    +0.041 C 
ATOM     13  C   UNL     1       2.636  -0.143   0.973  0.00  0.00    +0.043 C 
ATOM     14  C   UNL     1       2.509  -0.077  -1.439  0.00  0.00    +0.006 C 
ATOM     15  C   UNL     1       4.005  -0.400   0.894  0.00  0.00    +0.168 C 
ATOM     16  C   UNL     1       3.878  -0.333  -1.518  0.00  0.00    +0.040 C 
ATOM     17  C   UNL     1       4.626  -0.494  -0.352  0.00  0.00    +0.167 C 
BRANCH  15  18
ATOM     18  O   UNL     1       4.726  -0.554   2.039  0.00  0.00    -0.503 OA
ATOM     19  H   UNL     1       4.302  -0.489   2.872  0.00  0.00    +0.292 HD
ENDBRANCH  15  18
BRANCH  17  20
ATOM     20  O   UNL     1       5.962  -0.746  -0.442  0.00  0.00    -0.503 OA
ATOM     21  H   UNL     1       6.472  -0.855   0.336  0.00  0.00    +0.292 HD
ENDBRANCH  17  20
ENDBRANCH   5  12
BRANCH   6  22
ATOM     22  O   UNL     1       0.732   2.665  -0.069  0.00  0.00    -0.501 OA
ATOM     23  H   UNL     1       1.664   2.584  -0.116  0.00  0.00    +0.292 HD
ENDBRANCH   6  22
BRANCH   8  24
ATOM     24  O   UNL     1      -4.411   1.725   0.169  0.00  0.00    -0.505 OA
ATOM     25  H   UNL     1      -3.944   2.537   0.175  0.00  0.00    +0.292 HD
ENDBRANCH   8  24
BRANCH  10  26
ATOM     26  O   UNL     1      -4.554  -3.018   0.006  0.00  0.00    -0.505 OA
ATOM     27  H   UNL     1      -4.120  -3.848  -0.045  0.00  0.00    +0.292 HD
ENDBRANCH  10  26
TORSDOF 6
