REMARK  Name = 444792
REMARK  4 active torsions:
REMARK  status: ('A' for Active; 'I' for Inactive)
REMARK    1  A    between atoms: C_2  and  O_10
REMARK    2  A    between atoms: C_3  and  O_12
REMARK    3  A    between atoms: C_4  and  O_8
REMARK    4  A    between atoms: C_6  and  O_14
REMARK                            x       y       z     vdW  Elec       q    Type
REMARK                         _______ _______ _______ _____ _____    ______ ____
ROOT
ATOM      1  O   UNL     1      -0.838   1.347  -0.560  0.00  0.00    -0.329 OA
ATOM      2  C   UNL     1       0.147  -1.086   0.619  0.00  0.00    +0.172 C 
ATOM      3  C   UNL     1      -1.341  -0.876   0.318  0.00  0.00    +0.167 C 
ATOM      4  C   UNL     1       1.011  -0.216  -0.295  0.00  0.00    +0.200 C 
ATOM      5  C   UNL     1      -1.687   0.619   0.341  0.00  0.00    +0.147 C 
ATOM      6  C   UNL     1       0.553   1.245  -0.244  0.00  0.00    +0.263 C 
ATOM      7  C   UNL     1      -3.128   0.889  -0.077  0.00  0.00    +0.035 C 
ENDROOT
BRANCH   4   8
ATOM      8  O   UNL     1       2.374  -0.318   0.106  0.00  0.00    -0.346 OA
ATOM      9  C   UNL     1       3.217   0.475  -0.716  0.00  0.00    +0.174 C 
ENDBRANCH   4   8
BRANCH   2  10
ATOM     10  O   UNL     1       0.495  -2.455   0.434  0.00  0.00    -0.379 OA
ATOM     11  H   UNL     1      -0.052  -3.009   1.013  0.00  0.00    +0.211 HD
ENDBRANCH   2  10
BRANCH   3  12
ATOM     12  O   UNL     1      -1.657  -1.430  -0.961  0.00  0.00    -0.379 OA
ATOM     13  H   UNL     1      -1.436  -2.375  -0.968  0.00  0.00    +0.211 HD
ENDBRANCH   3  12
BRANCH   6  14
ATOM     14  O   UNL     1       0.852   1.808   1.033  0.00  0.00    -0.358 OA
ATOM     15  H   UNL     1       0.559   2.732   1.055  0.00  0.00    +0.213 HD
ENDBRANCH   6  14
TORSDOF 4
