REMARK  Name = 8975
REMARK  5 active torsions:
REMARK  status: ('A' for Active; 'I' for Inactive)
REMARK    1  A    between atoms: N_2  and  C1*_13
REMARK    2  A    between atoms: C2*_12  and  O2*_16
REMARK    3  A    between atoms: C3*_14  and  O3*_18
REMARK    4  A    between atoms: C4*_15  and  C5*_20
REMARK    5  A    between atoms: C5*_20  and  O5*_21
REMARK                            x       y       z     vdW  Elec       q    Type
REMARK                         _______ _______ _______ _____ _____    ______ ____
ROOT
ATOM      1  F   UNL     1      -3.632   2.529  -0.587  0.00  0.00    -0.098 F 
ATOM      2  N   UNL     1      -0.001  -0.403  -0.119  0.00  0.00    -0.236 N 
ATOM      3  N   UNL     1      -1.269  -2.181   0.339  0.00  0.00    -0.240 NA
ATOM      4  N   UNL     1      -1.733   1.278  -0.405  0.00  0.00    -0.300 NA
ATOM      5  N   UNL     1      -3.956   0.325  -0.082  0.00  0.00    -0.301 NA
ATOM      6  C   UNL     1      -1.296   0.035  -0.151  0.00  0.00    +0.222 C 
ATOM      7  C   UNL     1      -0.038  -1.740   0.179  0.00  0.00    +0.224 C 
ATOM      8  C   UNL     1      -2.065  -1.082   0.136  0.00  0.00    +0.167 C 
ATOM      9  C   UNL     1      -3.445  -0.905   0.166  0.00  0.00    +0.213 C 
ATOM     10  C   UNL     1      -3.082   1.325  -0.348  0.00  0.00    +0.300 C 
ATOM     11  N   UNL     1      -4.301  -1.983   0.446  0.00  0.00    -0.331 N 
ATOM     12  H   UNL     1      -5.276  -1.846   0.465  0.00  0.00    +0.145 HD
ATOM     13  H   UNL     1      -3.927  -2.876   0.624  0.00  0.00    +0.145 HD
ENDROOT
BRANCH   2  16
ATOM     14  O4* UNL     1       2.210  -0.421  -0.979  0.00  0.00    -0.333 OA
ATOM     15  C2* UNL     1       1.831   0.954   0.911  0.00  0.00    +0.187 C 
ATOM     16  C1* UNL     1       1.200   0.395  -0.355  0.00  0.00    +0.226 C 
ATOM     17  C3* UNL     1       3.272   1.135   0.475  0.00  0.00    +0.171 C 
ATOM     18  C4* UNL     1       3.498  -0.082  -0.415  0.00  0.00    +0.175 C 
BRANCH  15  19
ATOM     19  O2* UNL     1       1.219   2.162   1.316  0.00  0.00    -0.378 OA
ATOM     20  H2* UNL     1       0.303   1.986   1.583  0.00  0.00    +0.211 HD
ENDBRANCH  15  19
BRANCH  17  21
ATOM     21  O3* UNL     1       3.383   2.315  -0.321  0.00  0.00    -0.379 OA
ATOM     22  H3* UNL     1       3.241   3.096   0.236  0.00  0.00    +0.211 HD
ENDBRANCH  17  21
BRANCH  18  23
ATOM     23  C5* UNL     1       4.019  -1.290   0.351  0.00  0.00    +0.169 C 
BRANCH  23  24
ATOM     24  O5* UNL     1       4.186  -2.365  -0.556  0.00  0.00    -0.379 OA
ATOM     25  H5* UNL     1       4.518  -3.142  -0.079  0.00  0.00    +0.211 HD
ENDBRANCH  23  24
ENDBRANCH  18  23
ENDBRANCH   2  16
TORSDOF 5
