REMARK  Name = 5289109
REMARK  6 active torsions:
REMARK  status: ('A' for Active; 'I' for Inactive)
REMARK    1  A    between atoms: C_3  and  C_9
REMARK    2  A    between atoms: C_4  and  C_21
REMARK    3  A    between atoms: N_8  and  C_11
REMARK    4  A    between atoms: C_11  and  C_12
REMARK    5  A    between atoms: N_20  and  C_23
REMARK    6  A    between atoms: C_23  and  C_24
REMARK                            x       y       z     vdW  Elec       q    Type
REMARK                         _______ _______ _______ _____ _____    ______ ____
ROOT
ATOM      1  N   UNL     1       1.096   1.937   0.482  0.00  0.00    -0.244 NA
ATOM      2  N   UNL     1      -1.116   1.937  -0.473  0.00  0.00    -0.244 NA
ATOM      3  C   UNL     1       1.064   0.588   0.462  0.00  0.00    +0.115 C 
ATOM      4  C   UNL     1      -1.054   0.604  -0.452  0.00  0.00    +0.115 C 
ATOM      5  C   UNL     1      -0.008  -0.147  -0.003  0.00  0.00    +0.100 C 
ATOM      6  C   UNL     1      -0.011   2.538   0.006  0.00  0.00    +0.250 C 
ENDROOT
BRANCH   3   9
ATOM      7  O   UNL     1       2.322  -1.323   0.976  0.00  0.00    -0.269 OA
ATOM      8  N   UNL     1       3.294   0.734   1.425  0.00  0.00    -0.296 N 
ATOM      9  C   UNL     1       2.249  -0.081   0.971  0.00  0.00    +0.260 C 
ATOM     10  H   UNL     1       3.171   1.710   1.394  0.00  0.00    +0.150 HD
BRANCH   8  11
ATOM     11  C   UNL     1       4.544   0.220   1.937  0.00  0.00    +0.117 C 
BRANCH  11  12
ATOM     12  C   UNL     1       5.567   0.047   0.852  0.00  0.00    -0.003 C 
ATOM     13  C   UNL     1       5.647  -1.160   0.169  0.00  0.00    -0.007 C 
ATOM     14  C   UNL     1       6.596  -1.320  -0.841  0.00  0.00    -0.022 C 
ATOM     15  C   UNL     1       6.424   1.097   0.541  0.00  0.00    -0.003 C 
ATOM     16  C   UNL     1       7.460  -0.272  -1.159  0.00  0.00    -0.004 C 
ATOM     17  C   UNL     1       7.373   0.937  -0.468  0.00  0.00    -0.001 C 
ATOM     18  C   UNL     1       6.690  -2.613  -1.579  0.00  0.00    +0.031 C 
ENDBRANCH  11  12
ENDBRANCH   8  11
ENDBRANCH   3   9
BRANCH   4  21
ATOM     19  O   UNL     1      -2.308  -1.307  -0.976  0.00  0.00    -0.269 OA
ATOM     20  N   UNL     1      -3.288   0.749  -1.415  0.00  0.00    -0.296 N 
ATOM     21  C   UNL     1      -2.264  -0.079  -0.976  0.00  0.00    +0.260 C 
ATOM     22  H   UNL     1      -3.158   1.724  -1.375  0.00  0.00    +0.150 HD
BRANCH  20  23
ATOM     23  C   UNL     1      -4.534   0.237  -1.927  0.00  0.00    +0.117 C 
BRANCH  23  24
ATOM     24  C   UNL     1      -5.555   0.055  -0.855  0.00  0.00    -0.003 C 
ATOM     25  C   UNL     1      -5.641  -1.159  -0.174  0.00  0.00    -0.007 C 
ATOM     26  C   UNL     1      -6.596  -1.330   0.830  0.00  0.00    -0.022 C 
ATOM     27  C   UNL     1      -6.423   1.098  -0.533  0.00  0.00    -0.003 C 
ATOM     28  C   UNL     1      -7.463  -0.286   1.151  0.00  0.00    -0.004 C 
ATOM     29  C   UNL     1      -7.377   0.928   0.470  0.00  0.00    -0.001 C 
ATOM     30  C   UNL     1      -6.689  -2.628   1.558  0.00  0.00    +0.031 C 
ENDBRANCH  23  24
ENDBRANCH  20  23
ENDBRANCH   4  21
TORSDOF 6
