REMARK  Name = 23190
REMARK  5 active torsions:
REMARK  status: ('A' for Active; 'I' for Inactive)
REMARK    1  A    between atoms: N_1  and  C1*_14
REMARK    2  A    between atoms: C2*_15  and  O2*_18
REMARK    3  A    between atoms: C3*_16  and  O3*_20
REMARK    4  A    between atoms: C4*_17  and  C5*_22
REMARK    5  A    between atoms: C5*_22  and  O5*_23
REMARK                            x       y       z     vdW  Elec       q    Type
REMARK                         _______ _______ _______ _____ _____    ______ ____
ROOT
ATOM      1  N   UNL     1      -0.197  -0.246  -0.143  0.00  0.00    -0.220 NA
ATOM      2  N   UNL     1      -1.617  -1.878   0.383  0.00  0.00    -0.252 NA
ATOM      3  N   UNL     1      -4.153   0.758  -0.201  0.00  0.00    -0.229 NA
ATOM      4  N   UNL     1      -4.594  -1.500   0.442  0.00  0.00    -0.342 N 
ATOM      5  C   UNL     1      -1.449   0.311  -0.227  0.00  0.00    +0.128 C 
ATOM      6  C   UNL     1      -0.352  -1.556   0.225  0.00  0.00    +0.203 C 
ATOM      7  C   UNL     1      -2.315  -0.726   0.105  0.00  0.00    +0.105 C 
ATOM      8  C   UNL     1      -1.886   1.588  -0.552  0.00  0.00    +0.016 C 
ATOM      9  C   UNL     1      -3.688  -0.476   0.112  0.00  0.00    +0.140 C 
ATOM     10  C   UNL     1      -3.265   1.734  -0.517  0.00  0.00    +0.097 C 
ATOM     11  H   UNL     1      -5.562  -1.318   0.445  0.00  0.00    +0.144 HD
ATOM     12  H   UNL     1      -4.261  -2.398   0.670  0.00  0.00    +0.144 HD
ENDROOT
BRANCH   1  14
ATOM     13  O4* UNL     1       2.016  -0.514  -0.956  0.00  0.00    -0.336 OA
ATOM     14  C1* UNL     1       1.076   0.424  -0.396  0.00  0.00    +0.208 C 
ATOM     15  C2* UNL     1       1.737   0.993   0.850  0.00  0.00    +0.183 C 
ATOM     16  C3* UNL     1       3.195   1.017   0.435  0.00  0.00    +0.171 C 
ATOM     17  C4* UNL     1       3.321  -0.263  -0.385  0.00  0.00    +0.175 C 
BRANCH  15  18
ATOM     18  O2* UNL     1       1.233   2.272   1.177  0.00  0.00    -0.378 OA
ATOM     19  H2* UNL     1       0.300   2.196   1.434  0.00  0.00    +0.211 HD
ENDBRANCH  15  18
BRANCH  16  20
ATOM     20  O3* UNL     1       3.426   2.136  -0.421  0.00  0.00    -0.379 OA
ATOM     21  H3* UNL     1       3.348   2.956   0.090  0.00  0.00    +0.211 HD
ENDBRANCH  16  20
BRANCH  17  22
ATOM     22  C5* UNL     1       3.717  -1.469   0.456  0.00  0.00    +0.169 C 
BRANCH  22  23
ATOM     23  O5* UNL     1       3.797  -2.604  -0.388  0.00  0.00    -0.379 OA
ATOM     24  H5* UNL     1       4.049  -3.380   0.137  0.00  0.00    +0.211 HD
ENDBRANCH  22  23
ENDBRANCH  17  22
ENDBRANCH   1  14
TORSDOF 5
