REMARK  Name = 42627264
REMARK  11 active torsions:
REMARK  status: ('A' for Active; 'I' for Inactive)
REMARK    1  A    between atoms: C_3  and  C_21
REMARK    2  A    between atoms: C_4  and  C_30
REMARK    3  A    between atoms: C_6  and  O_17
REMARK    4  A    between atoms: C_13  and  O_19
REMARK    5  A    between atoms: C_21  and  O_22
REMARK    6  A    between atoms: C_21  and  C_24
REMARK    7  A    between atoms: C_24  and  C_25
REMARK    8  A    between atoms: C_25  and  O_26
REMARK    9  A    between atoms: C_25  and  C_28
REMARK   10  A    between atoms: C_30  and  C_32
REMARK   11  A    between atoms: C_32  and  O_33
REMARK                            x       y       z     vdW  Elec       q    Type
REMARK                         _______ _______ _______ _____ _____    ______ ____
ROOT
ATOM      1  O   UNL     1      -2.415   2.368  -0.186  0.00  0.00    -0.286 OA
ATOM      2  O   UNL     1      -2.746  -2.937   0.365  0.00  0.00    -0.287 OA
ATOM      3  C   UNL     1       1.112   0.236   0.574  0.00  0.00    +0.035 C 
ATOM      4  C   UNL     1       1.025  -1.147   0.717  0.00  0.00    -0.010 C 
ATOM      5  C   UNL     1      -1.278   0.350   0.210  0.00  0.00    +0.076 C 
ATOM      6  C   UNL     1      -0.037   0.987   0.321  0.00  0.00    +0.135 C 
ATOM      7  C   UNL     1      -1.365  -1.037   0.353  0.00  0.00    +0.045 C 
ATOM      8  C   UNL     1      -0.210  -1.786   0.607  0.00  0.00    -0.000 C 
ATOM      9  C   UNL     1      -2.489   1.153  -0.058  0.00  0.00    +0.202 C 
ATOM     10  C   UNL     1      -2.669  -1.722   0.239  0.00  0.00    +0.196 C 
ATOM     11  C   UNL     1      -3.793   0.468  -0.172  0.00  0.00    +0.076 C 
ATOM     12  C   UNL     1      -3.880  -0.919  -0.029  0.00  0.00    +0.045 C 
ATOM     13  C   UNL     1      -4.948   1.217  -0.426  0.00  0.00    +0.137 C 
ATOM     14  C   UNL     1      -5.122  -1.555  -0.139  0.00  0.00    +0.003 C 
ATOM     15  C   UNL     1      -6.184   0.579  -0.535  0.00  0.00    +0.037 C 
ATOM     16  C   UNL     1      -6.270  -0.805  -0.392  0.00  0.00    +0.003 C 
ENDROOT
BRANCH   6  17
ATOM     17  O   UNL     1       0.102   2.338   0.189  0.00  0.00    -0.506 OA
ATOM     18  H   UNL     1       0.948   2.733   0.269  0.00  0.00    +0.292 HD
ENDBRANCH   6  17
BRANCH  13  19
ATOM     19  O   UNL     1      -4.937   2.572  -0.577  0.00  0.00    -0.505 OA
ATOM     20  H   UNL     1      -4.130   3.044  -0.512  0.00  0.00    +0.292 HD
ENDBRANCH  13  19
BRANCH   3  21
ATOM     21  C   UNL     1       2.439   0.917   0.693  0.00  0.00    +0.138 C 
BRANCH  21  22
ATOM     22  O   UNL     1       2.409   1.772   1.844  0.00  0.00    -0.380 OA
ATOM     23  H   UNL     1       2.166   1.252   2.627  0.00  0.00    +0.211 HD
ENDBRANCH  21  22
BRANCH  21  24
ATOM     24  C   UNL     1       2.826   1.769  -0.532  0.00  0.00    +0.063 C 
BRANCH  24  25
ATOM     25  C   UNL     1       4.310   2.155  -0.625  0.00  0.00    +0.113 C 
BRANCH  25  26
ATOM     26  O   UNL     1       4.665   2.829   0.585  0.00  0.00    -0.384 OA
ATOM     27  H   UNL     1       4.089   3.599   0.708  0.00  0.00    +0.210 HD
ENDBRANCH  25  26
BRANCH  25  28
ATOM     28  C   UNL     1       5.236   0.946  -0.793  0.00  0.00    +0.029 C 
ATOM     29  C   UNL     1       6.708   1.340  -0.789  0.00  0.00    +0.003 C 
ENDBRANCH  25  28
ENDBRANCH  24  25
ENDBRANCH  21  24
ENDBRANCH   3  21
BRANCH   4  30
ATOM     30  C   UNL     1       2.242  -1.971   0.989  0.00  0.00    +0.136 C 
BRANCH  30  32
ATOM     31  O   UNL     1       2.900  -1.697  -1.337  0.00  0.00    -0.250 OA
ATOM     32  C   UNL     1       3.114  -2.177  -0.232  0.00  0.00    +0.322 C 
BRANCH  32  33
ATOM     33  O   UNL     1       4.170  -2.979   0.099  0.00  0.00    -0.444 OA
ATOM     34  C   UNL     1       5.087  -3.262  -0.963  0.00  0.00    +0.256 C 
ENDBRANCH  32  33
ENDBRANCH  30  32
ENDBRANCH   4  30
TORSDOF 11
