5288172
  -OEChem-10051720403D

 46 49  0     1  0  0  0  0  0999 V2000
    4.9248   -1.1563    0.5288 O   0  0  0  0  0  0  0  0  0  0  0  0
   -5.7508   -0.0860    0.5102 O   0  0  0  0  0  0  0  0  0  0  0  0
    0.5493    0.7795   -0.2324 C   0  0  2  0  0  0  0  0  0  0  0  0
   -0.2475   -0.4523    0.2964 C   0  0  1  0  0  0  0  0  0  0  0  0
    1.9853    0.6793    0.2824 C   0  0  1  0  0  0  0  0  0  0  0  0
    2.6865   -0.5920   -0.2395 C   0  0  2  0  0  0  0  0  0  0  0  0
   -1.7078   -0.4090   -0.2335 C   0  0  2  0  0  0  0  0  0  0  0  0
   -2.3841    0.9270    0.1701 C   0  0  1  0  0  0  0  0  0  0  0  0
    0.4721   -1.7901   -0.0144 C   0  0  0  0  0  0  0  0  0  0  0  0
   -0.1301    2.0839    0.1957 C   0  0  0  0  0  0  0  0  0  0  0  0
    1.9671   -1.7979    0.3545 C   0  0  0  0  0  0  0  0  0  0  0  0
    2.9792    1.7988   -0.0056 C   0  0  0  0  0  0  0  0  0  0  0  0
   -1.5713    2.1389   -0.2998 C   0  0  0  0  0  0  0  0  0  0  0  0
   -2.5592   -1.5887    0.2768 C   0  0  0  0  0  0  0  0  0  0  0  0
    4.0811   -0.3037    0.2864 C   0  0  0  0  0  0  0  0  0  0  0  0
    4.3154    1.1892    0.4439 C   0  0  0  0  0  0  0  0  0  0  0  0
   -3.8139    1.0181   -0.3693 C   0  0  0  0  0  0  0  0  0  0  0  0
    2.8113   -0.7149   -1.7694 C   0  0  0  0  0  0  0  0  0  0  0  0
   -3.9936   -1.5341   -0.2339 C   0  0  0  0  0  0  0  0  0  0  0  0
   -4.6140   -0.1898    0.0528 C   0  0  0  0  0  0  0  0  0  0  0  0
    0.5507    0.7593   -1.3294 H   0  0  0  0  0  0  0  0  0  0  0  0
   -0.2920   -0.3733    1.3934 H   0  0  0  0  0  0  0  0  0  0  0  0
    1.9218    0.6193    1.3830 H   0  0  0  0  0  0  0  0  0  0  0  0
   -1.6742   -0.4670   -1.3310 H   0  0  0  0  0  0  0  0  0  0  0  0
   -2.4361    0.9602    1.2684 H   0  0  0  0  0  0  0  0  0  0  0  0
    0.3559   -2.0280   -1.0785 H   0  0  0  0  0  0  0  0  0  0  0  0
   -0.0054   -2.6067    0.5389 H   0  0  0  0  0  0  0  0  0  0  0  0
    0.4135    2.9456   -0.2082 H   0  0  0  0  0  0  0  0  0  0  0  0
   -0.1136    2.1786    1.2886 H   0  0  0  0  0  0  0  0  0  0  0  0
    2.0686   -1.7978    1.4477 H   0  0  0  0  0  0  0  0  0  0  0  0
    2.4267   -2.7327    0.0109 H   0  0  0  0  0  0  0  0  0  0  0  0
    2.7578    2.7129    0.5539 H   0  0  0  0  0  0  0  0  0  0  0  0
    3.0017    2.0567   -1.0700 H   0  0  0  0  0  0  0  0  0  0  0  0
   -2.0389    3.0636    0.0592 H   0  0  0  0  0  0  0  0  0  0  0  0
   -1.5746    2.1880   -1.3963 H   0  0  0  0  0  0  0  0  0  0  0  0
   -2.5632   -1.5869    1.3744 H   0  0  0  0  0  0  0  0  0  0  0  0
   -2.1284   -2.5433   -0.0423 H   0  0  0  0  0  0  0  0  0  0  0  0
    4.5124    1.4065    1.4976 H   0  0  0  0  0  0  0  0  0  0  0  0
    5.1427    1.5253   -0.1848 H   0  0  0  0  0  0  0  0  0  0  0  0
   -3.8274    1.0676   -1.4640 H   0  0  0  0  0  0  0  0  0  0  0  0
   -4.3066    1.9176    0.0166 H   0  0  0  0  0  0  0  0  0  0  0  0
    3.3693    0.1174   -2.2117 H   0  0  0  0  0  0  0  0  0  0  0  0
    3.3602   -1.6276   -2.0318 H   0  0  0  0  0  0  0  0  0  0  0  0
    1.8419   -0.7638   -2.2723 H   0  0  0  0  0  0  0  0  0  0  0  0
   -4.5900   -2.3150    0.2496 H   0  0  0  0  0  0  0  0  0  0  0  0
   -4.0287   -1.7008   -1.3160 H   0  0  0  0  0  0  0  0  0  0  0  0
  1 15  2  0  0  0  0
  2 20  2  0  0  0  0
  3  4  1  0  0  0  0
  3  5  1  0  0  0  0
  3 10  1  0  0  0  0
  3 21  1  0  0  0  0
  4  7  1  0  0  0  0
  4  9  1  0  0  0  0
  4 22  1  0  0  0  0
  5  6  1  0  0  0  0
  5 12  1  0  0  0  0
  5 23  1  0  0  0  0
  6 11  1  0  0  0  0
  6 15  1  0  0  0  0
  6 18  1  0  0  0  0
  7  8  1  0  0  0  0
  7 14  1  0  0  0  0
  7 24  1  0  0  0  0
  8 13  1  0  0  0  0
  8 17  1  0  0  0  0
  8 25  1  0  0  0  0
  9 11  1  0  0  0  0
  9 26  1  0  0  0  0
  9 27  1  0  0  0  0
 10 13  1  0  0  0  0
 10 28  1  0  0  0  0
 10 29  1  0  0  0  0
 11 30  1  0  0  0  0
 11 31  1  0  0  0  0
 12 16  1  0  0  0  0
 12 32  1  0  0  0  0
 12 33  1  0  0  0  0
 13 34  1  0  0  0  0
 13 35  1  0  0  0  0
 14 19  1  0  0  0  0
 14 36  1  0  0  0  0
 14 37  1  0  0  0  0
 15 16  1  0  0  0  0
 16 38  1  0  0  0  0
 16 39  1  0  0  0  0
 17 20  1  0  0  0  0
 17 40  1  0  0  0  0
 17 41  1  0  0  0  0
 18 42  1  0  0  0  0
 18 43  1  0  0  0  0
 18 44  1  0  0  0  0
 19 20  1  0  0  0  0
 19 45  1  0  0  0  0
 19 46  1  0  0  0  0
M  END
> <DATABASE_ID>
DB04693

> <DATABASE_NAME>
drugbank

> <ORIGINAL_SOURCE>
PUBCHEM

> <ORIGINAL_SOURCE_URL>
https://pubchem.ncbi.nlm.nih.gov/rest/pug/compound/inchikey/CRDKSBHJIGNEOH-IMRIKWHGSA-N/SDF?record_type=3d

> <SMILES>
C[C@]12CC[C@H]3[C@@H](CC[C@H]4CC(=O)CC[C@H]34)[C@@H]1CCC2=O

> <INCHI_IDENTIFIER>
InChI=1S/C18H26O2/c1-18-9-8-14-13-5-3-12(19)10-11(13)2-4-15(14)16(18)6-7-17(18)20/h11,13-16H,2-10H2,1H3/t11-,13-,14+,15+,16-,18-/m0/s1

> <INCHI_KEY>
CRDKSBHJIGNEOH-IMRIKWHGSA-N

> <FORMULA>
C18H26O2

> <MOLECULAR_WEIGHT>
274.3978

> <EXACT_MASS>
274.193280076

> <JCHEM_ACCEPTOR_COUNT>
2

> <JCHEM_AVERAGE_POLARIZABILITY>
32.21117178224004

> <JCHEM_BIOAVAILABILITY>
1

> <JCHEM_DONOR_COUNT>
0

> <JCHEM_FORMAL_CHARGE>
0

> <JCHEM_GHOSE_FILTER>
1

> <JCHEM_IUPAC>
(1R,2S,7S,10R,11S,15S)-15-methyltetracyclo[8.7.0.0²,⁷.0¹¹,¹⁵]heptadecane-5,14-dione

> <ALOGPS_LOGP>
3.20

> <JCHEM_LOGP>
3.6747382183333337

> <ALOGPS_LOGS>
-4.49

> <JCHEM_MDDR_LIKE_RULE>
0

> <JCHEM_NUMBER_OF_RINGS>
4

> <JCHEM_PHYSIOLOGICAL_CHARGE>
0

> <JCHEM_PKA_STRONGEST_ACIDIC>
19.961848341007048

> <JCHEM_PKA_STRONGEST_BASIC>
-7.108662534270049

> <JCHEM_POLAR_SURFACE_AREA>
34.14

> <JCHEM_REFRACTIVITY>
78.3057

> <JCHEM_ROTATABLE_BOND_COUNT>
0

> <JCHEM_RULE_OF_FIVE>
1

> <ALOGPS_SOLUBILITY>
8.79e-03 g/l

> <JCHEM_TRADITIONAL_IUPAC>
(1R,2S,7S,10R,11S,15S)-15-methyltetracyclo[8.7.0.0²,⁷.0¹¹,¹⁵]heptadecane-5,14-dione

> <JCHEM_VEBER_RULE>
1

> <DRUGBANK_ID>
DB04693

> <DRUG_GROUPS>
experimental

> <GENERIC_NAME>
(13S)-13-METHYLDODECAHYDRO-1H-CYCLOPENTA[A]PHENANTHRENE-3,17(2H,4H)-DIONE

$$$$
