REMARK  Name = 2993
REMARK  13 active torsions:
REMARK  status: ('A' for Active; 'I' for Inactive)
REMARK    1  A    between atoms: C_1  and  C_2
REMARK    2  A    between atoms: C_1  and  C_21
REMARK    3  A    between atoms: C_2  and  C_3
REMARK    4  A    between atoms: C_3  and  C_4
REMARK    5  A    between atoms: C_4  and  C_5
REMARK    6  A    between atoms: C_5  and  C_6
REMARK    7  A    between atoms: C_6  and  N_7
REMARK    8  A    between atoms: C_12  and  N_18
REMARK    9  A    between atoms: C_21  and  C_22
REMARK   10  A    between atoms: C_22  and  C_23
REMARK   11  A    between atoms: C_23  and  C_24
REMARK   12  A    between atoms: C_24  and  N_25
REMARK   13  A    between atoms: C_30  and  N_36
REMARK                            x       y       z     vdW  Elec       q    Type
REMARK                         _______ _______ _______ _____ _____    ______ ____
ROOT
ATOM      1  C   UNL     1       0.566  -0.732   0.507  0.00  0.00    +0.000 C 
ENDROOT
BRANCH   1   2
ATOM      2  C   UNL     1      -0.543  -0.661  -0.545  0.00  0.00    +0.000 C 
BRANCH   2   3
ATOM      3  C   UNL     1      -1.928  -0.708   0.106  0.00  0.00    +0.000 C 
BRANCH   3   4
ATOM      4  C   UNL     1      -3.036  -0.591  -0.943  0.00  0.00    +0.002 C 
BRANCH   4   5
ATOM      5  C   UNL     1      -4.443  -0.536  -0.339  0.00  0.00    +0.021 C 
BRANCH   5   6
ATOM      6  C   UNL     1      -5.587  -0.485  -1.350  0.00  0.00    +0.091 C 
BRANCH   6   7
ATOM      7  N   UNL     1      -6.899  -0.489  -0.665  0.00  0.00    -0.305 N 
ATOM      8  C   UNL     1      -7.481   0.673  -0.314  0.00  0.00    +0.119 C 
ATOM      9  C   UNL     1      -7.454  -1.685  -0.425  0.00  0.00    +0.027 C 
ATOM     10  C   UNL     1      -8.733   0.643   0.338  0.00  0.00    +0.013 C 
ATOM     11  C   UNL     1      -8.681  -1.773   0.212  0.00  0.00    +0.024 C 
ATOM     12  C   UNL     1      -9.324  -0.602   0.596  0.00  0.00    +0.040 C 
ATOM     13  C   UNL     1      -6.856   1.893  -0.591  0.00  0.00    -0.002 C 
ATOM     14  C   UNL     1      -6.748  -2.931  -0.845  0.00  0.00    +0.047 C 
ATOM     15  C   UNL     1      -9.336   1.857   0.703  0.00  0.00    -0.001 C 
ATOM     16  C   UNL     1      -7.470   3.089  -0.221  0.00  0.00    -0.003 C 
ATOM     17  C   UNL     1      -8.706   3.071   0.424  0.00  0.00    -0.000 C 
BRANCH  12  18
ATOM     18  N   UNL     1     -10.576  -0.708   1.246  0.00  0.00    -0.357 N 
ATOM     19  H   UNL     1     -11.054   0.105   1.529  0.00  0.00    +0.142 HD
ATOM     20  H   UNL     1     -10.969  -1.594   1.416  0.00  0.00    +0.142 HD
ENDBRANCH  12  18
ENDBRANCH   6   7
ENDBRANCH   5   6
ENDBRANCH   4   5
ENDBRANCH   3   4
ENDBRANCH   2   3
ENDBRANCH   1   2
BRANCH   1  21
ATOM     21  C   UNL     1       1.975  -0.722  -0.093  0.00  0.00    +0.000 C 
BRANCH  21  22
ATOM     22  C   UNL     1       3.083  -0.719   0.963  0.00  0.00    +0.002 C 
BRANCH  22  23
ATOM     23  C   UNL     1       4.469  -0.684   0.312  0.00  0.00    +0.022 C 
BRANCH  23  24
ATOM     24  C   UNL     1       5.605  -0.600   1.328  0.00  0.00    +0.095 C 
BRANCH  24  25
ATOM     25  N   UNL     1       6.919  -0.531   0.650  0.00  0.00    -0.290 N 
ATOM     26  C   UNL     1       7.447   0.663   0.323  0.00  0.00    +0.049 C 
ATOM     27  C   UNL     1       7.529  -1.695   0.389  0.00  0.00    +0.030 C 
ATOM     28  C   UNL     1       8.702   0.703  -0.324  0.00  0.00    +0.009 C 
ATOM     29  C   UNL     1       8.761  -1.715  -0.243  0.00  0.00    +0.024 C 
ATOM     30  C   UNL     1       9.351  -0.508  -0.602  0.00  0.00    +0.040 C 
ATOM     31  C   UNL     1       6.766   1.848   0.620  0.00  0.00    +0.014 C 
ATOM     32  C   UNL     1       6.880  -2.981   0.782  0.00  0.00    +0.047 C 
ATOM     33  C   UNL     1       9.250   1.950  -0.663  0.00  0.00    +0.055 C 
ATOM     34  C   UNL     1       7.326   3.077   0.276  0.00  0.00    -0.003 C 
ATOM     35  C   UNL     1       8.564   3.129  -0.364  0.00  0.00    -0.021 C 
BRANCH  30  36
ATOM     36  N   UNL     1      10.609  -0.544  -1.248  0.00  0.00    -0.357 N 
ATOM     37  H   UNL     1      11.050   0.296  -1.514  0.00  0.00    +0.142 HD
ATOM     38  H   UNL     1      11.043  -1.408  -1.433  0.00  0.00    +0.142 HD
ENDBRANCH  30  36
ENDBRANCH  24  25
ENDBRANCH  23  24
ENDBRANCH  22  23
ENDBRANCH  21  22
ENDBRANCH   1  21
TORSDOF 13
