REMARK  Name = 60939
REMARK  9 active torsions:
REMARK  status: ('A' for Active; 'I' for Inactive)
REMARK    1  A    between atoms: N_3  and  C_22
REMARK    2  A    between atoms: N_4  and  N_8
REMARK    3  A    between atoms: N_8  and  C_9
REMARK    4  A    between atoms: C_9  and  C_11
REMARK    5  A    between atoms: C_12  and  C_16
REMARK    6  A    between atoms: C_22  and  C_23
REMARK    7  A    between atoms: C_23  and  C_24
REMARK    8  A    between atoms: C_24  and  C_25
REMARK    9  A    between atoms: C_25  and  N_26
REMARK                            x       y       z     vdW  Elec       q    Type
REMARK                         _______ _______ _______ _____ _____    ______ ____
ROOT
ATOM      1  O   UNL     1      -1.394  -2.911   1.106  0.00  0.00    -0.273 OA
ATOM      2  O   UNL     1      -1.244   1.694   1.185  0.00  0.00    -0.251 OA
ATOM      3  N   UNL     1      -1.726  -0.598   1.224  0.00  0.00    -0.212 N 
ATOM      4  N   UNL     1       0.378   0.036   0.854  0.00  0.00    -0.181 N 
ATOM      5  C   UNL     1      -0.984  -1.759   1.059  0.00  0.00    +0.254 C 
ATOM      6  C   UNL     1      -0.907   0.521   1.097  0.00  0.00    +0.328 C 
ATOM      7  C   UNL     1       0.466  -1.394   0.806  0.00  0.00    +0.200 C 
ENDROOT
BRANCH   4   8
ATOM      8  N   UNL     1       1.440   0.835   0.679  0.00  0.00    -0.118 NA
BRANCH   8   9
ATOM      9  C   UNL     1       2.543   0.192   0.465  0.00  0.00    +0.176 C 
BRANCH   9  11
ATOM     10  O   UNL     1       4.913   0.122   0.036  0.00  0.00    -0.456 OA
ATOM     11  C   UNL     1       3.806   0.879   0.252  0.00  0.00    +0.142 C 
ATOM     12  C   UNL     1       5.948   0.987  -0.133  0.00  0.00    +0.145 C 
ATOM     13  C   UNL     1       4.122   2.218   0.223  0.00  0.00    +0.038 C 
ATOM     14  C   UNL     1       5.514   2.287  -0.026  0.00  0.00    +0.040 C 
BRANCH  12  16
ATOM     15 CL   UNL     1      11.238  -1.534  -1.143  0.00  0.00    -0.082 Cl
ATOM     16  C   UNL     1       7.225   0.378  -0.378  0.00  0.00    +0.035 C 
ATOM     17  C   UNL     1       8.354   1.176  -0.565  0.00  0.00    +0.004 C 
ATOM     18  C   UNL     1       7.338  -1.012  -0.427  0.00  0.00    +0.004 C 
ATOM     19  C   UNL     1       9.595   0.585  -0.802  0.00  0.00    +0.011 C 
ATOM     20  C   UNL     1       8.578  -1.603  -0.664  0.00  0.00    +0.011 C 
ATOM     21  C   UNL     1       9.707  -0.805  -0.851  0.00  0.00    +0.058 C 
ENDBRANCH  12  16
ENDBRANCH   9  11
ENDBRANCH   8   9
ENDBRANCH   4   8
BRANCH   3  22
ATOM     22  C   UNL     1      -3.138  -0.558   1.488  0.00  0.00    +0.102 C 
BRANCH  22  23
ATOM     23  C   UNL     1      -3.969  -0.530   0.210  0.00  0.00    +0.020 C 
BRANCH  23  24
ATOM     24  C   UNL     1      -5.474  -0.464   0.486  0.00  0.00    -0.021 C 
BRANCH  24  25
ATOM     25  C   UNL     1      -6.271  -0.405  -0.817  0.00  0.00    -0.077 C 
BRANCH  25  26
ATOM     26  N   UNL     1      -7.703  -0.334  -0.532  0.00  0.00    +0.384 N 
ATOM     27  N   UNL     1     -10.379   0.648  -1.013  0.00  0.00    +0.383 N 
ATOM     28  C   UNL     1      -8.487  -0.790  -1.687  0.00  0.00    -0.101 C 
ATOM     29  C   UNL     1      -8.093   1.030  -0.156  0.00  0.00    -0.101 C 
ATOM     30  C   UNL     1      -9.989  -0.715  -1.390  0.00  0.00    -0.101 C 
ATOM     31  C   UNL     1      -9.595   1.106   0.141  0.00  0.00    -0.101 C 
ATOM     32  C   UNL     1     -11.811   0.718  -0.727  0.00  0.00    -0.101 C 
ATOM     33  H   UNL     1      -7.899  -0.953   0.254  0.00  0.00    -0.080 HD
ATOM     34  H   UNL     1     -10.185   1.268  -1.800  0.00  0.00    -0.080 HD
ENDBRANCH  25  26
ENDBRANCH  24  25
ENDBRANCH  23  24
ENDBRANCH  22  23
ENDBRANCH   3  22
TORSDOF 9
