REMARK  Name = 5288103
REMARK  5 active torsions:
REMARK  status: ('A' for Active; 'I' for Inactive)
REMARK    1  A    between atoms: C_1  and  N_3
REMARK    2  A    between atoms: C_1  and  C_9
REMARK    3  A    between atoms: N_3  and  C_6
REMARK    4  A    between atoms: C_6  and  C_7
REMARK    5  A    between atoms: C_9  and  C_10
REMARK                            x       y       z     vdW  Elec       q    Type
REMARK                         _______ _______ _______ _____ _____    ______ ____
ROOT
ATOM      1  C   UNL     1       0.708  -0.688   0.311  0.00  0.00    -0.053 C 
ATOM      2  C   UNL     1       0.239  -2.143   0.330  0.00  0.00    -0.023 C 
ENDROOT
BRANCH   1   3
ATOM      3  N   UNL     1       2.121  -0.663  -0.075  0.00  0.00    +0.390 N 
ATOM      4  C   UNL     1       2.922  -1.424   0.881  0.00  0.00    -0.100 C 
ATOM      5  H   UNL     1       2.217  -1.098  -0.993  0.00  0.00    -0.079 HD
BRANCH   3   6
ATOM      6  C   UNL     1       2.599   0.715  -0.165  0.00  0.00    -0.050 C 
BRANCH   6   7
ATOM      7  C   UNL     1       4.027   0.775  -0.614  0.00  0.00    -0.049 C 
ATOM      8  C   UNL     1       5.012   1.332   0.100  0.00  0.00    -0.007 C 
ENDBRANCH   6   7
ENDBRANCH   3   6
ENDBRANCH   1   3
BRANCH   1   9
ATOM      9  C   UNL     1      -0.108   0.181  -0.664  0.00  0.00    +0.006 C 
BRANCH   9  10
ATOM     10  C   UNL     1      -1.577   0.253  -0.326  0.00  0.00    -0.024 C 
ATOM     11  C   UNL     1      -2.445  -0.683  -0.865  0.00  0.00    -0.004 C 
ATOM     12  C   UNL     1      -2.032   1.255   0.517  0.00  0.00    -0.004 C 
ATOM     13  C   UNL     1      -3.803  -0.616  -0.553  0.00  0.00    -0.000 C 
ATOM     14  C   UNL     1      -3.390   1.322   0.829  0.00  0.00    -0.000 C 
ATOM     15  C   UNL     1      -4.275   0.386   0.294  0.00  0.00    -0.000 C 
ENDBRANCH   9  10
ENDBRANCH   1   9
TORSDOF 5
