REMARK  Name = 6323452
REMARK  4 active torsions:
REMARK  status: ('A' for Active; 'I' for Inactive)
REMARK    1  A    between atoms: N_3  and  C_25
REMARK    2  A    between atoms: C_5  and  O_21
REMARK    3  A    between atoms: C_19  and  O_23
REMARK    4  A    between atoms: C_25  and  C_26
REMARK                            x       y       z     vdW  Elec       q    Type
REMARK                         _______ _______ _______ _____ _____    ______ ____
ROOT
ATOM      1  O   UNL     1      -2.549   0.644  -1.293  0.00  0.00    -0.469 OA
ATOM      2  O   UNL     1      -2.987   2.800   0.285  0.00  0.00    -0.292 OA
ATOM      3  N   UNL     1       2.379  -0.873  -0.426  0.00  0.00    +0.394 N 
ATOM      4  C   UNL     1      -0.228   0.545  -0.619  0.00  0.00    +0.084 C 
ATOM      5  C   UNL     1       0.799   1.018   0.417  0.00  0.00    +0.080 C 
ATOM      6  C   UNL     1       1.627  -0.248   0.840  0.00  0.00    -0.024 C 
ATOM      7  C   UNL     1       0.488   0.024  -1.886  0.00  0.00    -0.012 C 
ATOM      8  C   UNL     1      -1.395   1.486  -0.969  0.00  0.00    +0.228 C 
ATOM      9  C   UNL     1       1.441  -1.140  -1.609  0.00  0.00    -0.072 C 
ATOM     10  C   UNL     1      -1.057  -0.550  -0.040  0.00  0.00    +0.016 C 
ATOM     11  C   UNL     1       0.114   1.732   1.605  0.00  0.00    +0.033 C 
ATOM     12  C   UNL     1       0.708  -1.315   1.535  0.00  0.00    +0.008 C 
ATOM     13  C   UNL     1      -0.648  -1.480   0.898  0.00  0.00    -0.025 C 
ATOM     14  C   UNL     1      -0.752   2.896   1.122  0.00  0.00    +0.071 C 
ATOM     15  C   UNL     1      -1.824   2.408   0.175  0.00  0.00    +0.191 C 
ATOM     16  C   UNL     1      -2.348  -0.478  -0.522  0.00  0.00    +0.168 C 
ATOM     17  C   UNL     1       3.061  -2.205  -0.044  0.00  0.00    -0.095 C 
ATOM     18  C   UNL     1      -1.585  -2.441   1.279  0.00  0.00    -0.001 C 
ATOM     19  C   UNL     1      -3.283  -1.425  -0.172  0.00  0.00    +0.167 C 
ATOM     20  C   UNL     1      -2.886  -2.423   0.730  0.00  0.00    +0.039 C 
ENDROOT
BRANCH   5  21
ATOM     21  O   UNL     1       1.644   2.014  -0.163  0.00  0.00    -0.388 OA
ATOM     22  H   UNL     1       2.113   1.637  -0.923  0.00  0.00    +0.210 HD
ENDBRANCH   5  21
BRANCH  19  23
ATOM     23  O   UNL     1      -4.552  -1.382  -0.646  0.00  0.00    -0.503 OA
ATOM     24  H   UNL     1      -4.805  -0.710  -1.248  0.00  0.00    +0.292 HD
ENDBRANCH  19  23
BRANCH   3  25
ATOM     25  C   UNL     1       3.537   0.036  -0.887  0.00  0.00    -0.046 C 
BRANCH  25  26
ATOM     26  C   UNL     1       4.502   0.347   0.209  0.00  0.00    -0.049 C 
ATOM     27  C   UNL     1       5.796   0.011   0.182  0.00  0.00    -0.007 C 
ENDBRANCH  25  26
ENDBRANCH   3  25
TORSDOF 4
