REMARK  Name = 640993
REMARK  4 active torsions:
REMARK  status: ('A' for Active; 'I' for Inactive)
REMARK    1  A    between atoms: CA_1  and  N_2
REMARK    2  A    between atoms: CA_1  and  CB_6
REMARK    3  A    between atoms: CA_1  and  C_9
REMARK    4  A    between atoms: C_9  and  O_10
REMARK                            x       y       z     vdW  Elec       q    Type
REMARK                         _______ _______ _______ _____ _____    ______ ____
ROOT
ATOM      1  CA  VAL A   1      -0.270   0.609  -0.307  0.00  0.00    -0.036 C 
ENDROOT
BRANCH   1   2
ATOM      2  N   VAL A   1       0.178   1.816   0.391  0.00  0.00    +0.383 N 
ATOM      3  H1  VAL A   1       1.093   2.094   0.037  0.00  0.00    -0.089 HD
ATOM      4  H2  VAL A   1       0.244   1.626   1.391  0.00  0.00    -0.089 HD
ATOM      5  H3  VAL A   1      -0.492   2.569   0.231  0.00  0.00    -0.089 HD
ENDBRANCH   1   2
BRANCH   1   6
ATOM      6  CB  VAL A   1       0.782  -0.534  -0.233  0.00  0.00    -0.018 C 
ATOM      7  CG1 VAL A   1       2.146  -0.155  -0.819  0.00  0.00    -0.002 C 
ATOM      8  CG2 VAL A   1       0.965  -1.044   1.202  0.00  0.00    -0.002 C 
ENDBRANCH   1   6
BRANCH   1   9
ATOM      9  C   VAL A   1      -1.646   0.212   0.243  0.00  0.00    +0.115 C 
BRANCH   9  10
ATOM     10  O   VAL A   1      -2.155  -0.904  -0.476  0.00  0.00    -0.384 OA
ATOM     11  H   VAL A   1      -3.024  -1.148  -0.122  0.00  0.00    +0.210 HD
ENDBRANCH   9  10
ENDBRANCH   1   9
TORSDOF 4
