REMARK  Name = 27901
REMARK  4 active torsions:
REMARK  status: ('A' for Active; 'I' for Inactive)
REMARK    1  A    between atoms: N_1  and  C_3
REMARK    2  A    between atoms: N_1  and  C_10
REMARK    3  A    between atoms: N_1  and  C_16
REMARK    4  A    between atoms: C_16  and  C_18
REMARK                            x       y       z     vdW  Elec       q    Type
REMARK                         _______ _______ _______ _____ _____    ______ ____
ROOT
ATOM      1  N   UNL     1      -0.133  -0.087   0.613  0.00  0.00    -0.305 N 
ENDROOT
BRANCH   1   3
ATOM      2  N   UNL     1       3.929  -0.830  -0.254  0.00  0.00    +0.386 N 
ATOM      3  C   UNL     1       1.052  -0.844   0.274  0.00  0.00    +0.069 C 
ATOM      4  C   UNL     1       1.637  -0.327  -1.040  0.00  0.00    -0.003 C 
ATOM      5  C   UNL     1       2.086  -0.728   1.394  0.00  0.00    -0.003 C 
ATOM      6  C   UNL     1       2.972  -1.004  -1.355  0.00  0.00    -0.076 C 
ATOM      7  C   UNL     1       3.405  -1.394   0.999  0.00  0.00    -0.076 C 
ATOM      8  C   UNL     1       5.214  -1.440  -0.591  0.00  0.00    -0.101 C 
ATOM      9  H   UNL     1       4.068   0.170  -0.114  0.00  0.00    -0.080 HD
ENDBRANCH   1   3
BRANCH   1  10
ATOM     10  C   UNL     1      -0.267   1.256   0.242  0.00  0.00    +0.048 C 
ATOM     11  C   UNL     1      -0.849   1.596  -0.986  0.00  0.00    +0.015 C 
ATOM     12  C   UNL     1       0.178   2.275   1.093  0.00  0.00    +0.015 C 
ATOM     13  C   UNL     1      -0.985   2.934  -1.356  0.00  0.00    +0.001 C 
ATOM     14  C   UNL     1       0.042   3.613   0.723  0.00  0.00    +0.001 C 
ATOM     15  C   UNL     1      -0.539   3.942  -0.501  0.00  0.00    +0.000 C 
ENDBRANCH   1  10
BRANCH   1  16
ATOM     16  C   UNL     1      -1.190  -0.753   1.370  0.00  0.00    +0.124 C 
BRANCH  16  18
ATOM     17  S   UNL     1      -3.899  -0.716   0.847  0.00  0.00    -0.089 S 
ATOM     18  C   UNL     1      -2.324  -1.267   0.524  0.00  0.00    +0.027 C 
ATOM     19  C   UNL     1      -2.256  -2.152  -0.509  0.00  0.00    +0.004 C 
ATOM     20  C   UNL     1      -3.545  -2.395  -1.065  0.00  0.00    +0.007 C 
ATOM     21  C   UNL     1      -4.529  -1.677  -0.422  0.00  0.00    +0.035 C 
ENDBRANCH  16  18
ENDBRANCH   1  16
TORSDOF 4
