REMARK  Name = 439750
REMARK  6 active torsions:
REMARK  status: ('A' for Active; 'I' for Inactive)
REMARK    1  A    between atoms: CA_1  and  N_3
REMARK    2  A    between atoms: CA_1  and  C_7
REMARK    3  A    between atoms: CA_1  and  CB_10
REMARK    4  A    between atoms: C_7  and  O_8
REMARK    5  A    between atoms: CB_10  and  CG_11
REMARK    6  A    between atoms: CG_11  and  SD_12
REMARK                            x       y       z     vdW  Elec       q    Type
REMARK                         _______ _______ _______ _____ _____    ______ ____
ROOT
ATOM      1  CA  UNL     1      -0.873   0.184   0.398  0.00  0.00    +0.172 C 
ENDROOT
BRANCH   1   3
ATOM      2  O   UNL     1      -2.596  -2.189   0.492  0.00  0.00    -0.265 OA
ATOM      3  N   UNL     1      -1.399  -0.576  -0.707  0.00  0.00    -0.289 N 
ATOM      4  C   ACE A   0      -2.206  -1.684  -0.553  0.00  0.00    +0.300 C 
ATOM      5  H   UNL     1      -1.170  -0.289  -1.620  0.00  0.00    +0.150 HD
ENDBRANCH   1   3
BRANCH   1   7
ATOM      6  OXT UNL     1      -0.461   2.512   0.921  0.00  0.00    -0.248 OA
ATOM      7  C   UNL     1      -0.788   1.671   0.090  0.00  0.00    +0.332 C 
BRANCH   7   8
ATOM      8  O   UNL     1      -1.158   2.005  -1.170  0.00  0.00    -0.479 OA
ATOM      9  H   UNL     1      -1.402   1.337  -1.779  0.00  0.00    +0.295 HD
ENDBRANCH   7   8
ENDBRANCH   1   7
BRANCH   1  10
ATOM     10  CB  UNL     1       0.467  -0.383   0.888  0.00  0.00    +0.043 C 
BRANCH  10  11
ATOM     11  CG  UNL     1       1.614  -0.189  -0.107  0.00  0.00    +0.060 C 
BRANCH  11  12
ATOM     12  SD  UNL     1       3.151  -0.896   0.556  0.00  0.00    -0.139 S 
ATOM     13  CE  UNL     1       4.251  -0.455  -0.809  0.00  0.00    +0.069 C 
ENDBRANCH  11  12
ENDBRANCH  10  11
ENDBRANCH   1  10
TORSDOF 6
