REMARK  Name = 208951
REMARK  4 active torsions:
REMARK  status: ('A' for Active; 'I' for Inactive)
REMARK    1  A    between atoms: N_1  and  C_19
REMARK    2  A    between atoms: N_2  and  C_11
REMARK    3  A    between atoms: C_19  and  C_20
REMARK    4  A    between atoms: C_23  and  C_26
REMARK                            x       y       z     vdW  Elec       q    Type
REMARK                         _______ _______ _______ _____ _____    ______ ____
ROOT
ATOM      1  N   UNL     1      -0.275  -1.372   0.615  0.00  0.00    +0.392 N 
ATOM      2  N   UNL     1       2.129   0.051   0.019  0.00  0.00    -0.309 N 
ATOM      3  C   UNL     1      -0.005  -0.908  -0.751  0.00  0.00    -0.055 C 
ATOM      4  C   UNL     1       0.984  -1.732   1.278  0.00  0.00    -0.055 C 
ATOM      5  C   UNL     1       0.907   0.321  -0.745  0.00  0.00    +0.068 C 
ATOM      6  C   UNL     1       1.929  -0.530   1.353  0.00  0.00    +0.068 C 
ATOM      7  H   UNL     1      -0.718  -0.616   1.138  0.00  0.00    -0.079 HD
ENDROOT
BRANCH   2  11
ATOM      8  O   UNL     1       4.879  -0.946   0.359  0.00  0.00    -0.406 OA
ATOM      9  O   UNL     1       6.966  -1.894   0.672  0.00  0.00    -0.223 OA
ATOM     10  N   UNL     1       6.758   0.333   0.016  0.00  0.00    -0.287 N 
ATOM     11  C   UNL     1       3.268   0.837  -0.191  0.00  0.00    +0.084 C 
ATOM     12  C   UNL     1       4.557   0.346  -0.025  0.00  0.00    +0.179 A 
ATOM     13  C   UNL     1       3.172   2.186  -0.589  0.00  0.00    +0.018 C 
ATOM     14  C   UNL     1       5.671   1.129  -0.236  0.00  0.00    +0.098 A 
ATOM     15  C   UNL     1       4.319   2.978  -0.801  0.00  0.00    +0.003 C 
ATOM     16  C   UNL     1       5.598   2.447  -0.624  0.00  0.00    +0.020 C 
ATOM     17  C   UNL     1       6.286  -0.919   0.375  0.00  0.00    +0.419 A 
ATOM     18  H   UNL     1       7.702   0.602  -0.047  0.00  0.00    +0.172 HD
ENDBRANCH   2  11
BRANCH   1  19
ATOM     19  C   UNL     1      -1.190  -2.512   0.598  0.00  0.00    -0.050 C 
BRANCH  19  20
ATOM     20  C   UNL     1      -2.503  -2.144  -0.038  0.00  0.00    -0.043 C 
ATOM     21  C   UNL     1      -3.119  -0.948   0.307  0.00  0.00    -0.006 C 
ATOM     22  C   UNL     1      -3.081  -3.004  -0.962  0.00  0.00    -0.006 C 
ATOM     23  C   UNL     1      -4.336  -0.607  -0.284  0.00  0.00    -0.000 C 
ATOM     24  C   UNL     1      -4.297  -2.663  -1.552  0.00  0.00    -0.000 C 
ATOM     25  C   UNL     1      -4.925  -1.465  -1.213  0.00  0.00    -0.000 C 
BRANCH  23  26
ATOM     26  C   UNL     1      -4.987   0.637   0.066  0.00  0.00    -0.000 C 
ATOM     27  C   UNL     1      -4.710   1.797  -0.657  0.00  0.00    -0.000 C 
ATOM     28  C   UNL     1      -5.893   0.676   1.127  0.00  0.00    -0.000 C 
ATOM     29  C   UNL     1      -5.338   2.996  -0.320  0.00  0.00    -0.000 C 
ATOM     30  C   UNL     1      -6.520   1.875   1.464  0.00  0.00    -0.000 C 
ATOM     31  C   UNL     1      -6.243   3.035   0.740  0.00  0.00    +0.000 C 
ENDBRANCH  23  26
ENDBRANCH  19  20
ENDBRANCH   1  19
TORSDOF 4
