REMARK  Name = 6440180
REMARK  5 active torsions:
REMARK  status: ('A' for Active; 'I' for Inactive)
REMARK    1  A    between atoms: N_1  and  C_21
REMARK    2  A    between atoms: C_4  and  C_18
REMARK    3  A    between atoms: C_5  and  C_11
REMARK    4  A    between atoms: C_18  and  O_19
REMARK    5  A    between atoms: C_21  and  C_23
REMARK                            x       y       z     vdW  Elec       q    Type
REMARK                         _______ _______ _______ _____ _____    ______ ____
ROOT
ATOM      1  N   UNL     1      -2.005   0.685  -0.671  0.00  0.00    +0.393 N 
ATOM      2  C   UNL     1      -1.694   0.593   0.769  0.00  0.00    -0.047 C 
ATOM      3  C   UNL     1      -1.319   1.925  -1.074  0.00  0.00    -0.057 C 
ATOM      4  C   UNL     1      -0.221   0.126   0.906  0.00  0.00    +0.084 C 
ATOM      5  C   UNL     1       0.769   1.075   0.174  0.00  0.00    +0.029 C 
ATOM      6  C   UNL     1       0.182   1.572  -1.173  0.00  0.00    -0.016 C 
ATOM      7  C   UNL     1      -1.878   2.027   1.282  0.00  0.00    -0.022 C 
ATOM      8  C   UNL     1      -1.617   2.912   0.060  0.00  0.00    -0.023 C 
ATOM      9  H   UNL     1      -1.693  -0.131  -1.197  0.00  0.00    -0.079 HD
ENDROOT
BRANCH   5  11
ATOM     10  F   UNL     1       6.057  -0.900   0.031  0.00  0.00    -0.204 F 
ATOM     11  C   UNL     1       2.194   0.544   0.135  0.00  0.00    -0.022 C 
ATOM     12  C   UNL     1       3.010   0.663   1.258  0.00  0.00    -0.002 C 
ATOM     13  C   UNL     1       2.678  -0.061  -1.023  0.00  0.00    -0.002 C 
ATOM     14  C   UNL     1       4.316   0.175   1.223  0.00  0.00    +0.029 C 
ATOM     15  C   UNL     1       3.984  -0.549  -1.058  0.00  0.00    +0.029 C 
ATOM     16  C   UNL     1       4.803  -0.431   0.065  0.00  0.00    +0.140 C 
ENDBRANCH   5  11
BRANCH   4  18
ATOM     17  O   UNL     1       0.210  -2.239   1.125  0.00  0.00    -0.250 OA
ATOM     18  C   UNL     1      -0.115  -1.295   0.418  0.00  0.00    +0.315 C 
BRANCH  18  19
ATOM     19  O   UNL     1      -0.433  -1.347  -0.906  0.00  0.00    -0.444 OA
ATOM     20  C   UNL     1      -0.373  -2.647  -1.502  0.00  0.00    +0.256 C 
ENDBRANCH  18  19
ENDBRANCH   4  18
BRANCH   1  21
ATOM     21  C   UNL     1      -3.440   0.714  -0.943  0.00  0.00    -0.050 C 
BRANCH  21  23
ATOM     22  I   UNL     1      -5.949  -2.362   1.001  0.00  0.00    -0.043 I 
ATOM     23  C   UNL     1      -4.106  -0.561  -0.522  0.00  0.00    -0.043 C 
ATOM     24  C   UNL     1      -5.052  -0.620   0.425  0.00  0.00    +0.029 C 
ENDBRANCH  21  23
ENDBRANCH   1  21
TORSDOF 5
