REMARK  Name = 215436
REMARK  3 active torsions:
REMARK  status: ('A' for Active; 'I' for Inactive)
REMARK    1  A    between atoms: C_3  and  C_10
REMARK    2  A    between atoms: C_10  and  O_11
REMARK    3  A    between atoms: O_11  and  C_12
REMARK                            x       y       z     vdW  Elec       q    Type
REMARK                         _______ _______ _______ _____ _____    ______ ____
ROOT
ATOM      1  N   UNL     1       2.746  -0.285   0.001  0.00  0.00    -0.280 N 
ATOM      2  N   UNL     1       2.208  -1.517   0.001  0.00  0.00    -0.177 NA
ATOM      3  C   UNL     1       0.596   0.101  -0.001  0.00  0.00    +0.104 A 
ATOM      4  C   UNL     1       1.823   0.719   0.000  0.00  0.00    +0.059 A 
ATOM      5  C   UNL     1       0.895  -1.274  -0.001  0.00  0.00    +0.086 A 
ATOM      6  C   UNL     1       2.218   2.138   0.001  0.00  0.00    +0.052 C 
ATOM      7  C   UNL     1      -0.051  -2.405  -0.001  0.00  0.00    +0.054 C 
ATOM      8  H   UNL     1       3.717  -0.122   0.001  0.00  0.00    +0.189 HD
ENDROOT
BRANCH   3  10
ATOM      9  O   UNL     1      -0.829   1.993  -0.001  0.00  0.00    -0.245 OA
ATOM     10  C   UNL     1      -0.677   0.757  -0.001  0.00  0.00    +0.344 C 
BRANCH  10  11
ATOM     11  O   UNL     1      -1.760  -0.102   0.000  0.00  0.00    -0.445 OA
BRANCH  11  12
ATOM     12  C   UNL     1      -3.064   0.488   0.000  0.00  0.00    +0.209 C 
ATOM     13  C   UNL     1      -4.104  -0.613   0.001  0.00  0.00    +0.051 C 
ENDBRANCH  11  12
ENDBRANCH  10  11
ENDBRANCH   3  10
TORSDOF 3
