REMARK  Name = 4369413
REMARK  8 active torsions:
REMARK  status: ('A' for Active; 'I' for Inactive)
REMARK    1  A    between atoms: N_1  and  C_2
REMARK    2  A    between atoms: N_1  and  N_10
REMARK    3  A    between atoms: N_1  and  C_15
REMARK    4  A    between atoms: C_7  and  C_9
REMARK    5  A    between atoms: C_15  and  C_16
REMARK    6  A    between atoms: C_21  and  O_22
REMARK    7  A    between atoms: O_22  and  S_23
REMARK    8  A    between atoms: S_23  and  N_26
REMARK                            x       y       z     vdW  Elec       q    Type
REMARK                         _______ _______ _______ _____ _____    ______ ____
ROOT
ATOM      1  N   UNL     1      -1.712   1.081   0.613  0.00  0.00    -0.227 N 
ENDROOT
BRANCH   1   2
ATOM      2  C   UNL     1      -2.155  -0.233   0.359  0.00  0.00    +0.066 C 
ATOM      3  C   UNL     1      -2.140  -1.184   1.379  0.00  0.00    +0.017 C 
ATOM      4  C   UNL     1      -2.608  -0.583  -0.913  0.00  0.00    +0.017 C 
ATOM      5  C   UNL     1      -2.577  -2.485   1.127  0.00  0.00    +0.012 C 
ATOM      6  C   UNL     1      -3.045  -1.883  -1.165  0.00  0.00    +0.012 C 
ATOM      7  C   UNL     1      -3.030  -2.834  -0.145  0.00  0.00    +0.069 C 
BRANCH   7   9
ATOM      8  N   UNL     1      -3.843  -5.249  -0.613  0.00  0.00    -0.191 NA
ATOM      9  C   UNL     1      -3.478  -4.166  -0.403  0.00  0.00    +0.100 C 
ENDBRANCH   7   9
ENDBRANCH   1   2
BRANCH   1  10
ATOM     10  N   UNL     1      -2.190   2.214  -0.040  0.00  0.00    -0.174 N 
ATOM     11  N   UNL     1      -3.383   3.957  -0.522  0.00  0.00    -0.127 NA
ATOM     12  N   UNL     1      -2.405   3.814  -1.486  0.00  0.00    -0.127 NA
ATOM     13  C   UNL     1      -3.233   2.978   0.342  0.00  0.00    +0.210 C 
ATOM     14  C   UNL     1      -1.696   2.753  -1.173  0.00  0.00    +0.210 C 
ENDBRANCH   1  10
BRANCH   1  15
ATOM     15  C   UNL     1      -0.684   1.346   1.615  0.00  0.00    +0.139 C 
BRANCH  15  16
ATOM     16  C   UNL     1       0.691   1.095   1.059  0.00  0.00    -0.000 C 
ATOM     17  C   UNL     1       1.378   2.131   0.440  0.00  0.00    +0.001 C 
ATOM     18  C   UNL     1       1.255  -0.168   1.171  0.00  0.00    +0.001 C 
ATOM     19  C   UNL     1       2.652   1.898  -0.077  0.00  0.00    +0.040 C 
ATOM     20  C   UNL     1       2.530  -0.401   0.655  0.00  0.00    +0.040 C 
ATOM     21  C   UNL     1       3.228   0.632   0.031  0.00  0.00    +0.173 C 
BRANCH  21  22
ATOM     22  O   UNL     1       4.473   0.407  -0.473  0.00  0.00    -0.349 OA
BRANCH  22  23
ATOM     23  S   UNL     1       5.231  -1.046  -0.394  0.00  0.00    +0.086 S 
ATOM     24  O   UNL     1       4.497  -1.989  -1.218  0.00  0.00    -0.046 OA
ATOM     25  O   UNL     1       5.512  -1.339   1.000  0.00  0.00    -0.046 OA
BRANCH  23  26
ATOM     26  N   UNL     1       6.732  -0.747  -1.169  0.00  0.00    -0.194 NA
ATOM     27  H   UNL     1       6.571  -0.537  -2.154  0.00  0.00    +0.145 HD
ATOM     28  H   UNL     1       7.326  -1.573  -1.090  0.00  0.00    +0.145 HD
ENDBRANCH  23  26
ENDBRANCH  22  23
ENDBRANCH  21  22
ENDBRANCH  15  16
ENDBRANCH   1  15
TORSDOF 8
