REMARK  Name = 446896
REMARK  8 active torsions:
REMARK  status: ('A' for Active; 'I' for Inactive)
REMARK    1  A    between atoms: P_1  and  O_3
REMARK    2  A    between atoms: P_1  and  O_5
REMARK    3  A    between atoms: P_1  and  C_8
REMARK    4  A    between atoms: O_5  and  C_6
REMARK    5  A    between atoms: C_8  and  C_9
REMARK    6  A    between atoms: C_9  and  C_10
REMARK    7  A    between atoms: C_10  and  C_11
REMARK    8  A    between atoms: C_11  and  C_12
REMARK                            x       y       z     vdW  Elec       q    Type
REMARK                         _______ _______ _______ _____ _____    ______ ____
ROOT
ATOM      1  P   UNL     1       2.099  -0.958   0.160  0.00  0.00    +0.340 P 
ATOM      2  O   UNL     1       2.087  -1.923   1.296  0.00  0.00    -0.258 OA
ENDROOT
BRANCH   1   3
ATOM      3  O   UNL     1       3.136  -1.313  -1.022  0.00  0.00    -0.323 OA
ATOM      4  H   UNL     1       4.032  -1.381  -0.656  0.00  0.00    +0.220 HD
ENDBRANCH   1   3
BRANCH   1   5
ATOM      5  O   UNL     1       2.430   0.567   0.557  0.00  0.00    -0.294 OA
BRANCH   5   6
ATOM      6  C   UNL     1       2.572   1.575  -0.429  0.00  0.00    +0.151 C 
ATOM      7  C   UNL     1       2.879   2.891   0.252  0.00  0.00    +0.035 C 
ENDBRANCH   5   6
ENDBRANCH   1   5
BRANCH   1   8
ATOM      8  C   UNL     1       0.516  -0.875  -0.707  0.00  0.00    +0.116 C 
BRANCH   8   9
ATOM      9  C   UNL     1      -0.644  -0.443   0.179  0.00  0.00    +0.013 C 
BRANCH   9  10
ATOM     10  C   UNL     1      -1.955  -0.327  -0.600  0.00  0.00    +0.001 C 
BRANCH  10  11
ATOM     11  C   UNL     1      -3.110   0.086   0.315  0.00  0.00    +0.000 C 
BRANCH  11  12
ATOM     12  C   UNL     1      -4.427   0.171  -0.456  0.00  0.00    +0.000 C 
ATOM     13  C   UNL     1      -5.583   0.548   0.456  0.00  0.00    +0.000 C 
ENDBRANCH  11  12
ENDBRANCH  10  11
ENDBRANCH   9  10
ENDBRANCH   8   9
ENDBRANCH   1   8
TORSDOF 8
