REMARK  Name = 448820
REMARK  6 active torsions:
REMARK  status: ('A' for Active; 'I' for Inactive)
REMARK    1  A    between atoms: C2*_2  and  O2*_14
REMARK    2  A    between atoms: C3*_3  and  O3*_16
REMARK    3  A    between atoms: C1*_4  and  N_6
REMARK    4  A    between atoms: C4*_5  and  C5*_18
REMARK    5  A    between atoms: C_8  and  N_11
REMARK    6  A    between atoms: C5*_18  and  O5*_19
REMARK                            x       y       z     vdW  Elec       q    Type
REMARK                         _______ _______ _______ _____ _____    ______ ____
ROOT
ATOM      1  O4* UNL     1       0.942  -0.571  -0.925  0.00  0.00    -0.333 OA
ATOM      2  C2* UNL     1       0.700   1.063   0.772  0.00  0.00    +0.187 C 
ATOM      3  C3* UNL     1       2.160   1.016   0.366  0.00  0.00    +0.171 C 
ATOM      4  C1* UNL     1       0.029   0.430  -0.437  0.00  0.00    +0.228 C 
ATOM      5  C4* UNL     1       2.252  -0.320  -0.363  0.00  0.00    +0.175 C 
ENDROOT
BRANCH   4   6
ATOM      6  N   UNL     1      -1.266  -0.182  -0.147  0.00  0.00    -0.233 N 
ATOM      7  N   UNL     1      -2.730  -1.735   0.480  0.00  0.00    -0.223 NA
ATOM      8  C   UNL     1      -2.502   0.391  -0.273  0.00  0.00    +0.120 C 
ATOM      9  C   UNL     1      -1.456  -1.460   0.308  0.00  0.00    +0.170 C 
ATOM     10  C   UNL     1      -3.387  -0.586   0.119  0.00  0.00    +0.130 C 
BRANCH   8  11
ATOM     11  N   UNL     1      -2.668   1.657  -0.703  0.00  0.00    -0.344 N 
ATOM     12  H   UNL     1      -1.884   2.204  -0.939  0.00  0.00    +0.144 HD
ATOM     13  H   UNL     1      -3.573   2.036  -0.781  0.00  0.00    +0.144 HD
ENDBRANCH   8  11
ENDBRANCH   4   6
BRANCH   2  14
ATOM     14  O2* UNL     1       0.233   2.376   1.008  0.00  0.00    -0.378 OA
ATOM     15  H2* UNL     1       0.683   2.745   1.784  0.00  0.00    +0.211 HD
ENDBRANCH   2  14
BRANCH   3  16
ATOM     16  O3* UNL     1       2.429   2.067  -0.563  0.00  0.00    -0.379 OA
ATOM     17  H3* UNL     1       2.373   2.922  -0.109  0.00  0.00    +0.211 HD
ENDBRANCH   3  16
BRANCH   5  18
ATOM     18  C5* UNL     1       2.607  -1.477   0.561  0.00  0.00    +0.169 C 
BRANCH  18  19
ATOM     19  O5* UNL     1       2.657  -2.669  -0.204  0.00  0.00    -0.379 OA
ATOM     20  H5* UNL     1       2.883  -3.414   0.374  0.00  0.00    +0.211 HD
ENDBRANCH  18  19
ENDBRANCH   5  18
TORSDOF 6
