REMARK  Name = 104904
REMARK  3 active torsions:
REMARK  status: ('A' for Active; 'I' for Inactive)
REMARK    1  A    between atoms: C_4  and  C_14
REMARK    2  A    between atoms: C_8  and  O_11
REMARK    3  A    between atoms: C_14  and  O_15
REMARK                            x       y       z     vdW  Elec       q    Type
REMARK                         _______ _______ _______ _____ _____    ______ ____
ROOT
ATOM      1  N   UNL     1       0.939   0.965  -0.702  0.00  0.00    +0.389 N 
ATOM      2  C   UNL     1       0.505   0.853   0.706  0.00  0.00    -0.045 C 
ATOM      3  C   UNL     1       1.929  -0.120  -0.828  0.00  0.00    -0.056 C 
ATOM      4  C   UNL     1      -0.438  -0.372   0.805  0.00  0.00    +0.107 C 
ATOM      5  C   UNL     1       1.810   0.619   1.479  0.00  0.00    -0.022 C 
ATOM      6  C   UNL     1       2.751  -0.034   0.463  0.00  0.00    -0.023 C 
ATOM      7  C   UNL     1       1.125  -1.433  -0.917  0.00  0.00    +0.009 C 
ATOM      8  C   UNL     1       0.243  -1.666   0.320  0.00  0.00    +0.117 C 
ATOM      9  C   UNL     1       1.491   2.278  -1.025  0.00  0.00    -0.100 C 
ATOM     10  H   UNL     1       0.167   0.875  -1.363  0.00  0.00    -0.080 HD
ENDROOT
BRANCH   8  11
ATOM     11  O   UNL     1      -0.715  -2.687   0.070  0.00  0.00    -0.384 OA
ATOM     12  H   UNL     1      -1.261  -2.819   0.861  0.00  0.00    +0.210 HD
ENDBRANCH   8  11
BRANCH   4  14
ATOM     13  O   UNL     1      -2.122  -0.775  -0.877  0.00  0.00    -0.250 OA
ATOM     14  C   UNL     1      -1.706  -0.087   0.046  0.00  0.00    +0.317 C 
BRANCH  14  15
ATOM     15  O   UNL     1      -2.295   1.036   0.547  0.00  0.00    -0.444 OA
ATOM     16  C   UNL     1      -3.518   1.425  -0.087  0.00  0.00    +0.256 C 
ENDBRANCH  14  15
ENDBRANCH   4  14
TORSDOF 3
