REMARK  Name = 5288588
REMARK  2 active torsions:
REMARK  status: ('A' for Active; 'I' for Inactive)
REMARK    1  A    between atoms: C_9  and  C_22
REMARK    2  A    between atoms: C_12  and  N_19
REMARK                            x       y       z     vdW  Elec       q    Type
REMARK                         _______ _______ _______ _____ _____    ______ ____
ROOT
ATOM      1 CL   UNL     1       5.779   0.366  -1.355  0.00  0.00    -0.082 Cl
ATOM      2  N   UNL     1       0.904   1.490  -0.516  0.00  0.00    -0.410 NA
ATOM      3  C   UNL     1      -1.904  -0.123   1.494  0.00  0.00    +0.030 C 
ATOM      4  C   UNL     1      -2.796   1.776   0.172  0.00  0.00    +0.029 C 
ATOM      5  C   UNL     1      -2.715   1.175   1.581  0.00  0.00    +0.010 C 
ATOM      6  C   UNL     1      -2.686  -1.150   0.642  0.00  0.00    +0.026 C 
ATOM      7  C   UNL     1      -1.392   2.245  -0.248  0.00  0.00    +0.063 C 
ATOM      8  C   UNL     1      -0.538   0.150   0.893  0.00  0.00    +0.013 C 
ATOM      9  C   UNL     1      -3.304  -0.560  -0.609  0.00  0.00    -0.048 C 
ATOM     10  C   UNL     1      -0.304   1.239   0.051  0.00  0.00    +0.106 C 
ATOM     11  C   UNL     1      -3.335   0.769  -0.820  0.00  0.00    -0.034 C 
ATOM     12  C   UNL     1       0.531  -0.713   1.136  0.00  0.00    +0.027 C 
ATOM     13  C   UNL     1       1.784  -0.477   0.557  0.00  0.00    +0.109 C 
ATOM     14  C   UNL     1       1.927   0.651  -0.273  0.00  0.00    +0.118 C 
ATOM     15  C   UNL     1       2.874  -1.333   0.788  0.00  0.00    -0.013 C 
ATOM     16  C   UNL     1       3.172   0.886  -0.849  0.00  0.00    +0.040 C 
ATOM     17  C   UNL     1       4.109  -1.075   0.199  0.00  0.00    +0.008 C 
ATOM     18  C   UNL     1       4.258   0.037  -0.621  0.00  0.00    +0.060 C 
ENDROOT
BRANCH  12  19
ATOM     19  N   UNL     1       0.339  -1.840   1.979  0.00  0.00    -0.360 N 
ATOM     20  H   UNL     1      -0.542  -2.006   2.386  0.00  0.00    +0.142 HD
ATOM     21  H   UNL     1       1.087  -2.455   2.157  0.00  0.00    +0.142 HD
ENDBRANCH  12  19
BRANCH   9  22
ATOM     22  C   UNL     1      -3.871  -1.537  -1.594  0.00  0.00    +0.022 C 
ATOM     23  C   UNL     1      -2.833  -1.977  -2.608  0.00  0.00    +0.005 C 
ENDBRANCH   9  22
TORSDOF 2
