REMARK  Name = 9958
REMARK  2 active torsions:
REMARK  status: ('A' for Active; 'I' for Inactive)
REMARK    1  A    between atoms: C_4  and  O_8
REMARK    2  A    between atoms: C_5  and  O_10
REMARK                            x       y       z     vdW  Elec       q    Type
REMARK                         _______ _______ _______ _____ _____    ______ ____
ROOT
ATOM      1  C   UNL     1       1.554   0.072   0.000  0.00  0.00    -0.019 C 
ATOM      2  C   UNL     1       0.612   1.101  -0.001  0.00  0.00    +0.036 C 
ATOM      3  C   UNL     1       1.133  -1.258   0.000  0.00  0.00    -0.001 C 
ATOM      4  C   UNL     1      -0.750   0.800  -0.001  0.00  0.00    +0.167 C 
ATOM      5  C   UNL     1      -1.171  -0.529   0.000  0.00  0.00    +0.167 C 
ATOM      6  C   UNL     1      -0.229  -1.559   0.000  0.00  0.00    +0.039 C 
ATOM      7  C   UNL     1       3.010   0.394   0.000  0.00  0.00    +0.031 C 
ENDROOT
BRANCH   4   8
ATOM      8  O   UNL     1      -1.661   1.814   0.001  0.00  0.00    -0.503 OA
ATOM      9  H   UNL     1      -1.370   2.705   0.000  0.00  0.00    +0.292 HD
ENDBRANCH   4   8
BRANCH   5  10
ATOM     10  O   UNL     1      -2.498  -0.836   0.000  0.00  0.00    -0.503 OA
ATOM     11  H   UNL     1      -3.137  -0.151   0.000  0.00  0.00    +0.292 HD
ENDBRANCH   5  10
TORSDOF 2
