REMARK  Name = 1662
REMARK  7 active torsions:
REMARK  status: ('A' for Active; 'I' for Inactive)
REMARK    1  A    between atoms: C_1  and  O_3
REMARK    2  A    between atoms: C_1  and  C_5
REMARK    3  A    between atoms: C_1  and  C_10
REMARK    4  A    between atoms: C_5  and  C_7
REMARK    5  A    between atoms: C_7  and  O_8
REMARK    6  A    between atoms: C_10  and  C_12
REMARK    7  A    between atoms: C_12  and  O_13
REMARK                            x       y       z     vdW  Elec       q    Type
REMARK                         _______ _______ _______ _____ _____    ______ ____
ROOT
ATOM      1  C   UNL     1       0.003   0.782   0.144  0.00  0.00    +0.110 C 
ATOM      2  C   UNL     1       0.681   1.935   0.901  0.00  0.00    +0.030 C 
ENDROOT
BRANCH   1   3
ATOM      3  O   UNL     1       0.059   1.081  -1.253  0.00  0.00    -0.386 OA
ATOM      4  H   UNL     1      -0.364   0.366  -1.753  0.00  0.00    +0.210 HD
ENDBRANCH   1   3
BRANCH   1   5
ATOM      5  C   UNL     1      -1.478   0.713   0.579  0.00  0.00    +0.137 C 
BRANCH   5   7
ATOM      6  O   UNL     1      -2.123  -0.815  -1.214  0.00  0.00    -0.250 OA
ATOM      7  C   UNL     1      -2.293  -0.382  -0.084  0.00  0.00    +0.316 C 
BRANCH   7   8
ATOM      8  O   UNL     1      -3.295  -0.816   0.727  0.00  0.00    -0.480 OA
ATOM      9  H   UNL     1      -3.390  -0.457   1.588  0.00  0.00    +0.295 HD
ENDBRANCH   7   8
ENDBRANCH   5   7
ENDBRANCH   1   5
BRANCH   1  10
ATOM     10  C   UNL     1       0.723  -0.555   0.406  0.00  0.00    +0.137 C 
BRANCH  10  12
ATOM     11  O   UNL     1       2.653   0.037  -0.964  0.00  0.00    -0.250 OA
ATOM     12  C   UNL     1       2.176  -0.573  -0.018  0.00  0.00    +0.316 C 
BRANCH  12  13
ATOM     13  O   UNL     1       2.893  -1.408   0.776  0.00  0.00    -0.480 OA
ATOM     14  H   UNL     1       2.475  -1.850   1.489  0.00  0.00    +0.295 HD
ENDBRANCH  12  13
ENDBRANCH  10  12
ENDBRANCH   1  10
TORSDOF 7
