REMARK  Name = 446054
REMARK  5 active torsions:
REMARK  status: ('A' for Active; 'I' for Inactive)
REMARK    1  A    between atoms: CA_1  and  N_3
REMARK    2  A    between atoms: CA_1  and  C_10
REMARK    3  A    between atoms: CA_1  and  CB_13
REMARK    4  A    between atoms: C_10  and  O_11
REMARK    5  A    between atoms: CB_13  and  CG_14
REMARK                            x       y       z     vdW  Elec       q    Type
REMARK                         _______ _______ _______ _____ _____    ______ ____
ROOT
ATOM      1  CA  UNL     1      -1.284   0.502   0.174  0.00  0.00    +0.177 C 
ENDROOT
BRANCH   1   3
ATOM      2  O   UNL     1      -0.869  -2.001   1.579  0.00  0.00    -0.253 OA
ATOM      3  N   UNL     1      -1.234  -0.822  -0.393  0.00  0.00    -0.281 N 
ATOM      4  N   UNL     1      -1.024  -3.113  -0.424  0.00  0.00    -0.313 N 
ATOM      5  C   ACE A   0      -1.029  -1.972   0.360  0.00  0.00    +0.298 C 
ATOM      6  H   UNL     1      -1.352  -0.917  -1.366  0.00  0.00    +0.151 HD
ATOM      7  H   UNL     1      -0.887  -3.995  -0.009  0.00  0.00    +0.146 HD
ATOM      8  H   UNL     1      -1.156  -3.042  -1.397  0.00  0.00    +0.146 HD
ENDBRANCH   1   3
BRANCH   1  10
ATOM      9  OXT UNL     1      -2.966   2.216   0.461  0.00  0.00    -0.248 OA
ATOM     10  C   UNL     1      -2.660   1.126  -0.011  0.00  0.00    +0.332 C 
BRANCH  10  11
ATOM     11  O   UNL     1      -3.525   0.388  -0.746  0.00  0.00    -0.479 OA
ATOM     12  H   UNL     1      -3.258  -0.441  -1.092  0.00  0.00    +0.295 HD
ENDBRANCH  10  11
ENDBRANCH   1  10
BRANCH   1  13
ATOM     13  CB  UNL     1      -0.210   1.408  -0.441  0.00  0.00    +0.057 C 
BRANCH  13  14
ATOM     14  CG  UNL     1       1.189   0.870  -0.259  0.00  0.00    -0.020 C 
ATOM     15  CD1 UNL     1       1.912   1.225   0.868  0.00  0.00    -0.004 C 
ATOM     16  CD2 UNL     1       1.724   0.030  -1.223  0.00  0.00    -0.004 C 
ATOM     17  CE1 UNL     1       3.204   0.728   1.036  0.00  0.00    -0.000 C 
ATOM     18  CE2 UNL     1       3.016  -0.467  -1.055  0.00  0.00    -0.000 C 
ATOM     19  CZ  UNL     1       3.757  -0.118   0.075  0.00  0.00    -0.000 C 
ENDBRANCH  13  14
ENDBRANCH   1  13
TORSDOF 5
