REMARK  Name = 153994
REMARK  10 active torsions:
REMARK  status: ('A' for Active; 'I' for Inactive)
REMARK    1  A    between atoms: C_2  and  C_12
REMARK    2  A    between atoms: C_3  and  C_19
REMARK    3  A    between atoms: C_4  and  C_29
REMARK    4  A    between atoms: C_19  and  O_20
REMARK    5  A    between atoms: O_20  and  C_21
REMARK    6  A    between atoms: C_21  and  O_22
REMARK    7  A    between atoms: O_22  and  C_24
REMARK    8  A    between atoms: C_24  and  C_25
REMARK    9  A    between atoms: C_25  and  C_26
REMARK   10  A    between atoms: C_29  and  O_30
REMARK                            x       y       z     vdW  Elec       q    Type
REMARK                         _______ _______ _______ _____ _____    ______ ____
ROOT
ATOM      1  N   UNL     1      -3.131   2.058  -0.684  0.00  0.00    -0.334 N 
ATOM      2  C   UNL     1      -1.389   0.126   0.437  0.00  0.00    +0.012 C 
ATOM      3  C   UNL     1      -1.034   1.612   0.319  0.00  0.00    +0.071 C 
ATOM      4  C   UNL     1      -2.837  -0.176   0.040  0.00  0.00    +0.085 C 
ATOM      5  C   UNL     1      -1.895   2.495  -0.238  0.00  0.00    +0.098 C 
ATOM      6  C   UNL     1      -3.623   0.773  -0.518  0.00  0.00    +0.028 C 
ATOM      7  C   UNL     1      -1.631   3.963  -0.436  0.00  0.00    +0.026 C 
ATOM      8  C   UNL     1      -5.037   0.568  -0.990  0.00  0.00    +0.047 C 
ATOM      9  H   UNL     1      -3.703   2.707  -1.154  0.00  0.00    +0.147 HD
ENDROOT
BRANCH   2  12
ATOM     10 CL   UNL     1       0.383  -1.886   1.881  0.00  0.00    -0.081 Cl
ATOM     11 CL   UNL     1       2.348  -3.571  -0.022  0.00  0.00    -0.081 Cl
ATOM     12  C   UNL     1      -0.447  -0.693  -0.399  0.00  0.00    +0.012 C 
ATOM     13  C   UNL     1       0.406  -1.642   0.164  0.00  0.00    +0.068 C 
ATOM     14  C   UNL     1      -0.444  -0.483  -1.778  0.00  0.00    +0.001 C 
ATOM     15  C   UNL     1       1.264  -2.380  -0.652  0.00  0.00    +0.068 C 
ATOM     16  C   UNL     1       0.414  -1.220  -2.594  0.00  0.00    +0.001 C 
ATOM     17  C   UNL     1       1.268  -2.169  -2.031  0.00  0.00    +0.012 C 
ENDBRANCH   2  12
BRANCH   3  19
ATOM     18  O   UNL     1       0.552   1.852   2.063  0.00  0.00    -0.245 OA
ATOM     19  C   UNL     1       0.253   2.031   0.897  0.00  0.00    +0.341 C 
BRANCH  19  20
ATOM     20  O   UNL     1       0.986   2.622  -0.077  0.00  0.00    -0.405 OA
BRANCH  20  21
ATOM     21  C   UNL     1       2.283   3.099   0.317  0.00  0.00    +0.433 C 
BRANCH  21  22
ATOM     22  O   UNL     1       3.136   2.069   0.843  0.00  0.00    -0.408 OA
BRANCH  22  24
ATOM     23  O   UNL     1       3.077   0.946  -1.171  0.00  0.00    -0.250 OA
ATOM     24  C   UNL     1       3.453   1.052  -0.011  0.00  0.00    +0.320 C 
BRANCH  24  25
ATOM     25  C   UNL     1       4.322   0.051   0.715  0.00  0.00    +0.110 C 
BRANCH  25  26
ATOM     26  C   UNL     1       5.238  -0.734  -0.222  0.00  0.00    +0.012 C 
ATOM     27  C   UNL     1       6.063  -1.784   0.510  0.00  0.00    +0.001 C 
ENDBRANCH  25  26
ENDBRANCH  24  25
ENDBRANCH  22  24
ENDBRANCH  21  22
ENDBRANCH  20  21
ENDBRANCH  19  20
ENDBRANCH   3  19
BRANCH   4  29
ATOM     28  O   UNL     1      -3.775  -2.284  -0.505  0.00  0.00    -0.245 OA
ATOM     29  C   UNL     1      -3.336  -1.528   0.342  0.00  0.00    +0.342 C 
BRANCH  29  30
ATOM     30  O   UNL     1      -3.210  -1.742   1.674  0.00  0.00    -0.441 OA
ATOM     31  C   UNL     1      -3.656  -3.025   2.127  0.00  0.00    +0.256 C 
ENDBRANCH  29  30
ENDBRANCH   4  29
TORSDOF 10
