REMARK  Name = 657095
REMARK  3 active torsions:
REMARK  status: ('A' for Active; 'I' for Inactive)
REMARK    1  A    between atoms: N_1  and  C_18
REMARK    2  A    between atoms: C_7  and  C_10
REMARK    3  A    between atoms: C_13  and  O_16
REMARK                            x       y       z     vdW  Elec       q    Type
REMARK                         _______ _______ _______ _____ _____    ______ ____
ROOT
ATOM      1  N   UNL     1      -1.716  -0.797  -0.007  0.00  0.00    -0.201 N 
ATOM      2  N   UNL     1      -0.503  -1.317  -0.121  0.00  0.00    -0.181 NA
ATOM      3  N   UNL     1      -2.895   1.302   0.158  0.00  0.00    -0.232 NA
ATOM      4  N   UNL     1      -1.332   3.174   0.101  0.00  0.00    -0.234 NA
ATOM      5  C   UNL     1      -1.798   0.536   0.045  0.00  0.00    +0.137 C 
ATOM      6  C   UNL     1      -0.486   0.967  -0.042  0.00  0.00    +0.150 C 
ATOM      7  C   UNL     1       0.262  -0.220  -0.142  0.00  0.00    +0.090 C 
ATOM      8  C   UNL     1      -0.269   2.341  -0.011  0.00  0.00    +0.112 C 
ATOM      9  C   UNL     1      -2.561   2.610   0.177  0.00  0.00    +0.252 C 
ATOM     10  N   UNL     1       1.028   2.877  -0.095  0.00  0.00    -0.346 N 
ATOM     11  H   UNL     1       1.160   3.853  -0.072  0.00  0.00    +0.143 HD
ATOM     12  H   UNL     1       1.805   2.277  -0.178  0.00  0.00    +0.143 HD
ENDROOT
BRANCH   7  13
ATOM     13  C   UNL     1       1.693  -0.347  -0.258  0.00  0.00    +0.019 C 
ATOM     14  C   UNL     1       2.475  -0.451   0.889  0.00  0.00    +0.038 C 
ATOM     15  C   UNL     1       2.286  -0.366  -1.518  0.00  0.00    +0.001 C 
ATOM     16  C   UNL     1       3.860  -0.575   0.776  0.00  0.00    +0.134 C 
ATOM     17  C   UNL     1       3.671  -0.490  -1.631  0.00  0.00    +0.003 C 
ATOM     18  C   UNL     1       4.458  -0.595  -0.484  0.00  0.00    +0.037 C 
BRANCH  16  19
ATOM     19  O   UNL     1       4.628  -0.678   1.895  0.00  0.00    -0.506 OA
ATOM     20  H   UNL     1       4.226  -0.665   2.742  0.00  0.00    +0.292 HD
ENDBRANCH  16  19
ENDBRANCH   7  13
BRANCH   1  21
ATOM     21  C   UNL     1      -2.871  -1.735   0.050  0.00  0.00    +0.081 C 
ATOM     22  C   UNL     1      -3.829  -1.455  -1.129  0.00  0.00    +0.022 C 
ATOM     23  C   UNL     1      -3.625  -1.552   1.386  0.00  0.00    +0.022 C 
ATOM     24  C   UNL     1      -2.474  -3.229  -0.040  0.00  0.00    +0.022 C 
ENDBRANCH   1  21
TORSDOF 3
