REMARK  Name = 6292
REMARK  1 active torsions:
REMARK  status: ('A' for Active; 'I' for Inactive)
REMARK    1  A    between atoms: N_2  and  C_13
REMARK                            x       y       z     vdW  Elec       q    Type
REMARK                         _______ _______ _______ _____ _____    ______ ____
ROOT
ATOM      1  O   UNL     1      -0.126  -2.064   0.208  0.00  0.00    -0.273 OA
ATOM      2  N   UNL     1       0.373   0.238   0.193  0.00  0.00    -0.215 N 
ATOM      3  N   UNL     1      -1.415   1.800   0.053  0.00  0.00    -0.394 NA
ATOM      4  C   UNL     1      -0.150   1.532   0.154  0.00  0.00    +0.170 C 
ATOM      5  C   UNL     1      -1.924  -0.590   0.111  0.00  0.00    +0.151 C 
ATOM      6  C   UNL     1      -0.478  -0.887   0.196  0.00  0.00    +0.245 C 
ATOM      7  C   UNL     1      -2.329   0.742   0.018  0.00  0.00    +0.123 C 
ATOM      8  C   UNL     1      -2.866  -1.626   0.098  0.00  0.00    -0.010 C 
ATOM      9  C   UNL     1       0.768   2.730   0.291  0.00  0.00    +0.084 C 
ATOM     10  C   UNL     1      -3.695   1.028  -0.087  0.00  0.00    +0.028 C 
ATOM     11  C   UNL     1      -4.223  -1.326  -0.007  0.00  0.00    -0.004 C 
ATOM     12  C   UNL     1      -4.638   0.000  -0.101  0.00  0.00    +0.002 C 
ENDROOT
BRANCH   2  13
ATOM     13  C   UNL     1       1.788  -0.015   0.186  0.00  0.00    +0.056 C 
ATOM     14  C   UNL     1       2.478  -0.139  -1.014  0.00  0.00    -0.008 C 
ATOM     15  C   UNL     1       2.453  -0.134   1.401  0.00  0.00    +0.015 C 
ATOM     16  C   UNL     1       3.851  -0.386  -1.000  0.00  0.00    -0.003 C 
ATOM     17  C   UNL     1       1.782  -0.015  -2.331  0.00  0.00    +0.032 C 
ATOM     18  C   UNL     1       3.826  -0.380   1.416  0.00  0.00    +0.001 C 
ATOM     19  C   UNL     1       4.525  -0.507   0.215  0.00  0.00    -0.000 C 
ENDBRANCH   2  13
TORSDOF 1
