REMARK  Name = 5288147
REMARK  12 active torsions:
REMARK  status: ('A' for Active; 'I' for Inactive)
REMARK    1  A    between atoms: C_1  and  C_4
REMARK    2  A    between atoms: C_1  and  N_12
REMARK    3  A    between atoms: C_1  and  C_23
REMARK    4  A    between atoms: N_3  and  C_6
REMARK    5  A    between atoms: C_6  and  C_7
REMARK    6  A    between atoms: C_7  and  C_8
REMARK    7  A    between atoms: C_13  and  C_15
REMARK    8  A    between atoms: C_15  and  O_16
REMARK    9  A    between atoms: C_15  and  C_18
REMARK   10  A    between atoms: C_18  and  C_20
REMARK   11  A    between atoms: C_20  and  O_21
REMARK   12  A    between atoms: C_23  and  C_24
REMARK                            x       y       z     vdW  Elec       q    Type
REMARK                         _______ _______ _______ _____ _____    ______ ____
ROOT
ATOM      1  C   UNL     1       0.226  -1.323   0.029  0.00  0.00    +0.149 C 
ENDROOT
BRANCH   1   4
ATOM      2  O   UNL     1       1.056   0.740  -0.938  0.00  0.00    -0.273 OA
ATOM      3  N   UNL     1       2.377  -0.385   0.606  0.00  0.00    -0.303 N 
ATOM      4  C   UNL     1       1.249  -0.212  -0.184  0.00  0.00    +0.240 C 
ATOM      5  H   UNL     1       2.431  -1.186   1.176  0.00  0.00    +0.149 HD
BRANCH   3   6
ATOM      6  C   UNL     1       3.477   0.553   0.633  0.00  0.00    +0.089 C 
BRANCH   6   7
ATOM      7  C   UNL     1       4.547   0.228  -0.406  0.00  0.00    +0.021 C 
BRANCH   7   8
ATOM      8  C   UNL     1       5.763   1.176  -0.408  0.00  0.00    +0.002 C 
ATOM      9  C   UNL     1       6.427   1.169   0.972  0.00  0.00    +0.000 C 
ATOM     10  C   UNL     1       5.386   2.608  -0.791  0.00  0.00    +0.000 C 
ENDBRANCH   7   8
ENDBRANCH   6   7
ENDBRANCH   3   6
ENDBRANCH   1   4
BRANCH   1  12
ATOM     11  O   UNL     1      -1.228  -0.084   2.185  0.00  0.00    -0.272 OA
ATOM     12  N   UNL     1      -1.079  -0.718  -0.044  0.00  0.00    -0.296 N 
ATOM     13  C   UNL     1      -1.705  -0.142   1.054  0.00  0.00    +0.250 C 
ATOM     14  H   UNL     1      -1.547  -0.713  -0.910  0.00  0.00    +0.150 HD
BRANCH  13  15
ATOM     15  C   UNL     1      -3.084   0.412   0.719  0.00  0.00    +0.198 C 
BRANCH  15  16
ATOM     16  O   UNL     1      -3.687   0.883   1.915  0.00  0.00    -0.375 OA
ATOM     17  H   UNL     1      -3.739   0.159   2.558  0.00  0.00    +0.211 HD
ENDBRANCH  15  16
BRANCH  15  18
ATOM     18  C   UNL     1      -2.996   1.549  -0.303  0.00  0.00    +0.148 C 
BRANCH  18  20
ATOM     19  O   UNL     1      -5.423   1.747  -0.170  0.00  0.00    -0.250 OA
ATOM     20  C   UNL     1      -4.358   2.112  -0.650  0.00  0.00    +0.317 C 
BRANCH  20  21
ATOM     21  O   UNL     1      -4.264   3.102  -1.575  0.00  0.00    -0.480 OA
ATOM     22  H   UNL     1      -3.426   3.348  -1.915  0.00  0.00    +0.295 HD
ENDBRANCH  20  21
ENDBRANCH  18  20
ENDBRANCH  15  18
ENDBRANCH  13  15
ENDBRANCH   1  12
BRANCH   1  23
ATOM     23  C   UNL     1       0.414  -2.426  -1.020  0.00  0.00    +0.029 C 
BRANCH  23  24
ATOM     24  C   UNL     1      -0.600  -3.584  -0.931  0.00  0.00    +0.002 C 
ATOM     25  C   UNL     1      -0.473  -4.372   0.373  0.00  0.00    +0.000 C 
ATOM     26  C   UNL     1      -2.023  -3.035  -1.065  0.00  0.00    +0.000 C 
ENDBRANCH  23  24
ENDBRANCH   1  23
TORSDOF 12
