REMARK  Name = 445226
REMARK  5 active torsions:
REMARK  status: ('A' for Active; 'I' for Inactive)
REMARK    1  A    between atoms: C_3  and  O_8
REMARK    2  A    between atoms: C_4  and  O_10
REMARK    3  A    between atoms: C_5  and  C_14
REMARK    4  A    between atoms: C_7  and  O_12
REMARK    5  A    between atoms: C_14  and  O_15
REMARK                            x       y       z     vdW  Elec       q    Type
REMARK                         _______ _______ _______ _____ _____    ______ ____
ROOT
ATOM      1  F   UNL     1       2.775   0.921   0.050  0.00  0.00    -0.229 F 
ATOM      2  O   UNL     1      -0.784   1.087   0.584  0.00  0.00    -0.326 OA
ATOM      3  C   UNL     1      -0.211  -1.244   0.118  0.00  0.00    +0.170 C 
ATOM      4  C   UNL     1       1.233  -0.837  -0.187  0.00  0.00    +0.177 C 
ATOM      5  C   UNL     1      -1.180  -0.083  -0.139  0.00  0.00    +0.176 C 
ATOM      6  C   UNL     1       1.567   0.483   0.497  0.00  0.00    +0.246 C 
ATOM      7  C   UNL     1       0.518   1.556   0.227  0.00  0.00    +0.268 C 
ENDROOT
BRANCH   3   8
ATOM      8  O   UNL     1      -0.579  -2.345  -0.709  0.00  0.00    -0.379 OA
ATOM      9  H   UNL     1       0.029  -3.084  -0.553  0.00  0.00    +0.211 HD
ENDBRANCH   3   8
BRANCH   4  10
ATOM     10  O   UNL     1       2.124  -1.829   0.323  0.00  0.00    -0.379 OA
ATOM     11  H   UNL     1       1.932  -2.682  -0.097  0.00  0.00    +0.211 HD
ENDBRANCH   4  10
BRANCH   7  12
ATOM     12  O   UNL     1       0.572   2.037  -1.114  0.00  0.00    -0.358 OA
ATOM     13  H   UNL     1      -0.109   2.715  -1.242  0.00  0.00    +0.213 HD
ENDBRANCH   7  12
BRANCH   5  14
ATOM     14  C   UNL     1      -2.599  -0.430   0.302  0.00  0.00    +0.169 C 
BRANCH  14  15
ATOM     15  O   UNL     1      -3.435   0.684   0.047  0.00  0.00    -0.379 OA
ATOM     16  H   UNL     1      -4.342   0.478   0.323  0.00  0.00    +0.211 HD
ENDBRANCH  14  15
ENDBRANCH   5  14
TORSDOF 5
