REMARK  Name = 445694
REMARK  4 active torsions:
REMARK  status: ('A' for Active; 'I' for Inactive)
REMARK    1  A    between atoms: C_1  and  C_4
REMARK    2  A    between atoms: C_1  and  N_7
REMARK    3  A    between atoms: C_1  and  C_11
REMARK    4  A    between atoms: C_11  and  C_12
REMARK                            x       y       z     vdW  Elec       q    Type
REMARK                         _______ _______ _______ _____ _____    ______ ____
ROOT
ATOM      1  C   UNL     1      -1.656  -0.745   0.272  0.00  0.00    +0.017 C 
ENDROOT
BRANCH   1   4
ATOM      2  O   UNL     1      -2.749   1.135  -0.805  0.00  0.00    -0.278 OA
ATOM      3  N   UNL     1      -2.064   1.376   1.374  0.00  0.00    -0.330 N 
ATOM      4  C   UNL     1      -2.221   0.668   0.203  0.00  0.00    +0.199 C 
ATOM      5  H   UNL     1      -2.395   2.302   1.438  0.00  0.00    +0.145 HD
ATOM      6  H   UNL     1      -1.622   0.957   2.148  0.00  0.00    +0.145 HD
ENDBRANCH   1   4
BRANCH   1   7
ATOM      7  N   UNL     1      -2.784  -1.657   0.080  0.00  0.00    +0.388 N 
ATOM      8  H   UNL     1      -2.453  -2.621   0.119  0.00  0.00    -0.089 HD
ATOM      9  H   UNL     1      -3.213  -1.481  -0.829  0.00  0.00    -0.089 HD
ATOM     10  H   UNL     1      -3.474  -1.504   0.816  0.00  0.00    -0.089 HD
ENDBRANCH   1   7
BRANCH   1  11
ATOM     11  C   UNL     1      -0.592  -0.968  -0.812  0.00  0.00    +0.013 C 
BRANCH  11  12
ATOM     12  C   UNL     1       0.769  -0.445  -0.415  0.00  0.00    -0.024 C 
ATOM     13  C   UNL     1       1.110   0.862  -0.721  0.00  0.00    -0.004 C 
ATOM     14  C   UNL     1       1.650  -1.284   0.249  0.00  0.00    -0.004 C 
ATOM     15  C   UNL     1       2.366   1.345  -0.354  0.00  0.00    -0.000 C 
ATOM     16  C   UNL     1       2.907  -0.801   0.616  0.00  0.00    -0.000 C 
ATOM     17  C   UNL     1       3.264   0.513   0.314  0.00  0.00    -0.000 C 
ENDBRANCH  11  12
ENDBRANCH   1  11
TORSDOF 4
