REMARK  Name = 8582
REMARK  8 active torsions:
REMARK  status: ('A' for Active; 'I' for Inactive)
REMARK    1  A    between atoms: C_2  and  O_17
REMARK    2  A    between atoms: C_3  and  N_7
REMARK    3  A    between atoms: C_4  and  O_19
REMARK    4  A    between atoms: C_5  and  C_21
REMARK    5  A    between atoms: C_21  and  O_22
REMARK    6  A    between atoms: O_22  and  P_23
REMARK    7  A    between atoms: P_23  and  O_25
REMARK    8  A    between atoms: P_23  and  O_27
REMARK                            x       y       z     vdW  Elec       q    Type
REMARK                         _______ _______ _______ _____ _____    ______ ____
ROOT
ATOM      1  O   UNL     1       1.028  -0.754   1.057  0.00  0.00    -0.336 OA
ATOM      2  C   UNL     1       0.241  -1.950  -0.829  0.00  0.00    +0.183 C 
ATOM      3  C   UNL     1      -0.185  -1.216   0.433  0.00  0.00    +0.209 C 
ATOM      4  C   UNL     1       1.552  -2.572  -0.388  0.00  0.00    +0.171 C 
ATOM      5  C   UNL     1       2.146  -1.482   0.499  0.00  0.00    +0.176 C 
ENDROOT
BRANCH   3   7
ATOM      6  O   UNL     1      -4.599   2.700  -0.386  0.00  0.00    -0.221 OA
ATOM      7  N   UNL     1      -1.076  -0.083   0.190  0.00  0.00    -0.210 NA
ATOM      8  N   UNL     1      -1.731   2.013  -0.281  0.00  0.00    -0.242 NA
ATOM      9  N   UNL     1      -3.292  -1.056   0.456  0.00  0.00    -0.259 NA
ATOM     10  N   UNL     1      -5.105   0.496   0.132  0.00  0.00    -0.183 NA
ATOM     11  C   UNL     1      -2.429  -0.065   0.211  0.00  0.00    +0.173 C 
ATOM     12  C   UNL     1      -0.697   1.206  -0.114  0.00  0.00    +0.205 C 
ATOM     13  C   UNL     1      -2.820   1.213  -0.077  0.00  0.00    +0.167 C 
ATOM     14  C   UNL     1      -4.230   1.561  -0.131  0.00  0.00    +0.168 C 
ATOM     15  C   UNL     1      -4.623  -0.689   0.396  0.00  0.00    +0.211 C 
ATOM     16  H   UNL     1      -3.003  -1.974   0.663  0.00  0.00    +0.127 HD
ENDBRANCH   3   7
BRANCH   2  17
ATOM     17  O   UNL     1      -0.718  -2.907  -1.231  0.00  0.00    -0.378 OA
ATOM     18  H   UNL     1      -1.532  -2.455  -1.501  0.00  0.00    +0.211 HD
ENDBRANCH   2  17
BRANCH   4  19
ATOM     19  O   UNL     1       1.286  -3.723   0.413  0.00  0.00    -0.379 OA
ATOM     20  H   UNL     1       0.908  -4.423  -0.141  0.00  0.00    +0.211 HD
ENDBRANCH   4  19
BRANCH   5  21
ATOM     21  C   UNL     1       3.021  -0.502  -0.271  0.00  0.00    +0.186 C 
BRANCH  21  22
ATOM     22  O   UNL     1       3.514   0.471   0.632  0.00  0.00    -0.271 OA
BRANCH  22  23
ATOM     23  P   UNL     1       4.479   1.638   0.059  0.00  0.00    +0.473 P 
ATOM     24  O   UNL     1       4.955   2.627   1.082  0.00  0.00    -0.227 OA
BRANCH  23  25
ATOM     25  O   UNL     1       3.633   2.267  -1.168  0.00  0.00    -0.303 OA
ATOM     26  H   UNL     1       3.368   1.559  -1.775  0.00  0.00    +0.222 HD
ENDBRANCH  23  25
BRANCH  23  27
ATOM     27  O   UNL     1       5.649   0.807  -0.685  0.00  0.00    -0.303 OA
ATOM     28  H   UNL     1       5.255   0.195  -1.326  0.00  0.00    +0.222 HD
ENDBRANCH  23  27
ENDBRANCH  22  23
ENDBRANCH  21  22
ENDBRANCH   5  21
TORSDOF 8
