REMARK  Name = 17513
REMARK  7 active torsions:
REMARK  status: ('A' for Active; 'I' for Inactive)
REMARK    1  A    between atoms: N_1  and  C1*_8
REMARK    2  A    between atoms: C_3  and  N_23
REMARK    3  A    between atoms: C_5  and  C_20
REMARK    4  A    between atoms: C2*_7  and  O2*_11
REMARK    5  A    between atoms: C3*_9  and  O3*_13
REMARK    6  A    between atoms: C4*_10  and  C5*_15
REMARK    7  A    between atoms: C5*_15  and  O5*_16
REMARK                            x       y       z     vdW  Elec       q    Type
REMARK                         _______ _______ _______ _____ _____    ______ ____
ROOT
ATOM      1  N   UNL     1      -0.391  -0.066  -0.190  0.00  0.00    -0.211 NA
ATOM      2  N   UNL     1      -1.965  -1.539   0.358  0.00  0.00    -0.249 NA
ATOM      3  C   UNL     1      -1.584   0.591  -0.318  0.00  0.00    +0.161 C 
ATOM      4  C   UNL     1      -0.673  -1.342   0.219  0.00  0.00    +0.204 C 
ATOM      5  C   UNL     1      -2.539  -0.338   0.025  0.00  0.00    +0.138 C 
ENDROOT
BRANCH   1   8
ATOM      6  O4* UNL     1       1.802  -0.575  -0.940  0.00  0.00    -0.336 OA
ATOM      7  C2* UNL     1       1.633   1.016   0.806  0.00  0.00    +0.183 C 
ATOM      8  C1* UNL     1       0.947   0.469  -0.435  0.00  0.00    +0.209 C 
ATOM      9  C3* UNL     1       3.095   0.886   0.425  0.00  0.00    +0.171 C 
ATOM     10  C4* UNL     1       3.114  -0.430  -0.346  0.00  0.00    +0.175 C 
BRANCH   7  11
ATOM     11  O2* UNL     1       1.249   2.349   1.077  0.00  0.00    -0.378 OA
ATOM     12  H2* UNL     1       0.308   2.372   1.314  0.00  0.00    +0.211 HD
ENDBRANCH   7  11
BRANCH   9  13
ATOM     13  O3* UNL     1       3.451   1.945  -0.463  0.00  0.00    -0.379 OA
ATOM     14  H3* UNL     1       3.442   2.787   0.019  0.00  0.00    +0.211 HD
ENDBRANCH   9  13
BRANCH  10  15
ATOM     15  C5* UNL     1       3.373  -1.637   0.545  0.00  0.00    +0.169 C 
BRANCH  15  16
ATOM     16  O5* UNL     1       3.361  -2.804  -0.258  0.00  0.00    -0.379 OA
ATOM     17  H5* UNL     1       3.526  -3.581   0.299  0.00  0.00    +0.211 HD
ENDBRANCH  15  16
ENDBRANCH  10  15
ENDBRANCH   1   8
BRANCH   5  20
ATOM     18  O   UNL     1      -4.505   0.942  -0.271  0.00  0.00    -0.269 OA
ATOM     19  N   UNL     1      -4.761  -1.212   0.427  0.00  0.00    -0.324 N 
ATOM     20  C   UNL     1      -3.957  -0.135   0.048  0.00  0.00    +0.259 C 
ATOM     21  H   UNL     1      -5.740  -1.110   0.455  0.00  0.00    +0.145 HD
ATOM     22  H   UNL     1      -4.349  -2.074   0.667  0.00  0.00    +0.145 HD
ENDBRANCH   5  20
BRANCH   3  23
ATOM     23  N   UNL     1      -1.650   1.880  -0.710  0.00  0.00    -0.305 NA
ATOM     24  H   UNL     1      -0.824   2.376  -0.912  0.00  0.00    +0.120 HD
ATOM     25  H   UNL     1      -2.525   2.325  -0.794  0.00  0.00    +0.120 HD
ENDBRANCH   3  23
TORSDOF 7
