REMARK  Name = 15433
REMARK  10 active torsions:
REMARK  status: ('A' for Active; 'I' for Inactive)
REMARK    1  A    between atoms: C_1  and  C_2
REMARK    2  A    between atoms: C_1  and  C_9
REMARK    3  A    between atoms: C_3  and  C_4
REMARK    4  A    between atoms: C_4  and  N_6
REMARK    5  A    between atoms: C_9  and  C_10
REMARK    6  A    between atoms: C_10  and  C_11
REMARK    7  A    between atoms: C_11  and  C_12
REMARK    8  A    between atoms: C_12  and  C_13
REMARK    9  A    between atoms: C_13  and  C_14
REMARK   10  A    between atoms: C_14  and  C_15
REMARK                            x       y       z     vdW  Elec       q    Type
REMARK                         _______ _______ _______ _____ _____    ______ ____
ROOT
ATOM      1  C   UNL     1       1.023   0.214  -0.082  0.00  0.00    +0.026 C 
ENDROOT
BRANCH   1   2
ATOM      2  C   UNL     1       2.298  -0.633  -0.035  0.00  0.00    -0.033 C 
ATOM      3  C   UNL     1       3.620   0.142  -0.066  0.00  0.00    -0.048 C 
BRANCH   3   4
ATOM      4  C   UNL     1       4.876  -0.711   0.029  0.00  0.00    -0.001 C 
BRANCH   4   6
ATOM      5  O   UNL     1       6.066   0.948   1.179  0.00  0.00    -0.289 OA
ATOM      6  N   UNL     1       6.102   0.119   0.079  0.00  0.00    +0.430 N 
ATOM      7  C   UNL     1       6.209   0.973  -1.160  0.00  0.00    -0.045 C 
ATOM      8  C   UNL     1       7.327  -0.756   0.178  0.00  0.00    -0.045 C 
ENDBRANCH   4   6
ENDBRANCH   3   4
ENDBRANCH   1   2
BRANCH   1   9
ATOM      9  C   UNL     1      -0.261  -0.618  -0.128  0.00  0.00    +0.005 C 
BRANCH   9  10
ATOM     10  C   UNL     1      -1.501   0.278  -0.081  0.00  0.00    +0.000 C 
BRANCH  10  11
ATOM     11  C   UNL     1      -2.818  -0.504  -0.097  0.00  0.00    +0.000 C 
BRANCH  11  12
ATOM     12  C   UNL     1      -4.058   0.393  -0.075  0.00  0.00    +0.000 C 
BRANCH  12  13
ATOM     13  C   UNL     1      -5.341  -0.439  -0.017  0.00  0.00    +0.000 C 
BRANCH  13  14
ATOM     14  C   UNL     1      -6.581   0.456   0.044  0.00  0.00    +0.000 C 
BRANCH  14  15
ATOM     15  C   UNL     1      -7.864  -0.374   0.068  0.00  0.00    +0.000 C 
ATOM     16  C   UNL     1      -9.097   0.511   0.163  0.00  0.00    +0.000 C 
ENDBRANCH  14  15
ENDBRANCH  13  14
ENDBRANCH  12  13
ENDBRANCH  11  12
ENDBRANCH  10  11
ENDBRANCH   9  10
ENDBRANCH   1   9
TORSDOF 10
