REMARK  Name = 6578
REMARK  1 active torsions:
REMARK  status: ('A' for Active; 'I' for Inactive)
REMARK    1  A    between atoms: C_3  and  C_6
REMARK                            x       y       z     vdW  Elec       q    Type
REMARK                         _______ _______ _______ _____ _____    ______ ____
ROOT
ATOM      1  O   UNL     1       0.525   1.306  -0.004  0.00  0.00    -0.275 OA
ATOM      2  N   UNL     1       1.673  -0.687   0.009  0.00  0.00    -0.329 N 
ATOM      3  C   UNL     1       0.527   0.079  -0.003  0.00  0.00    +0.219 C 
ATOM      4  H   UNL     1       2.556  -0.251   0.016  0.00  0.00    +0.145 HD
ATOM      5  H   UNL     1       1.609  -1.669   0.009  0.00  0.00    +0.145 HD
ENDROOT
BRANCH   3   6
ATOM      6  C   UNL     1      -0.730  -0.768  -0.013  0.00  0.00    +0.085 C 
ATOM      7  C   UNL     1      -1.995   0.070   0.010  0.00  0.00    +0.010 C 
ENDBRANCH   3   6
TORSDOF 1
