REMARK  Name = 8391
REMARK  2 active torsions:
REMARK  status: ('A' for Active; 'I' for Inactive)
REMARK    1  A    between atoms: C_2  and  N_10
REMARK    2  A    between atoms: C_4  and  O_11
REMARK                            x       y       z     vdW  Elec       q    Type
REMARK                         _______ _______ _______ _____ _____    ______ ____
ROOT
ATOM      1  C   UNL     1      -1.915   0.462   0.000  0.00  0.00    -0.020 C 
ATOM      2  C   UNL     1       0.486   0.197   0.000  0.00  0.00    +0.176 C 
ATOM      3  C   UNL     1      -0.638   1.022   0.000  0.00  0.00    +0.023 C 
ATOM      4  C   UNL     1       0.333  -1.190   0.000  0.00  0.00    +0.156 C 
ATOM      5  C   UNL     1      -2.068  -0.924   0.000  0.00  0.00    -0.001 C 
ATOM      6  C   UNL     1      -0.944  -1.750   0.000  0.00  0.00    +0.038 C 
ATOM      7  C   UNL     1      -3.117   1.345   0.000  0.00  0.00    +0.031 C 
ENDROOT
BRANCH   2  10
ATOM      8  O   UNL     1       1.878   2.035  -0.001  0.00  0.00    -0.126 OA
ATOM      9  O   UNL     1       2.787   0.037   0.001  0.00  0.00    -0.126 OA
ATOM     10  N   UNL     1       1.781   0.785   0.000  0.00  0.00    +0.061 N 
ENDBRANCH   2  10
BRANCH   4  11
ATOM     11  O   UNL     1       1.416  -2.018  -0.001  0.00  0.00    -0.504 OA
ATOM     12  H   UNL     1       2.281  -1.658   0.000  0.00  0.00    +0.292 HD
ENDBRANCH   4  11
TORSDOF 2
