REMARK  Name = 102515267
REMARK  5 active torsions:
REMARK  status: ('A' for Active; 'I' for Inactive)
REMARK    1  A    between atoms: C_1  and  C_3
REMARK    2  A    between atoms: C_1  and  O_12
REMARK    3  A    between atoms: C_1  and  CA_14
REMARK    4  A    between atoms: CA_14  and  N_15
REMARK    5  A    between atoms: CA_14  and  C_21
REMARK                            x       y       z     vdW  Elec       q    Type
REMARK                         _______ _______ _______ _____ _____    ______ ____
ROOT
ATOM      1  C   UNL     1       1.185   0.587  -0.958  0.00  0.00    +0.125 C 
ENDROOT
BRANCH   1   3
ATOM      2  N   UNL     1      -1.310  -1.990  -0.275  0.00  0.00    -0.312 N 
ATOM      3  C   UNL     1       0.005  -0.236  -0.626  0.00  0.00    +0.019 C 
ATOM      4  C   UNL     1      -1.278   0.240  -0.235  0.00  0.00    +0.013 C 
ATOM      5  C   UNL     1      -2.083  -0.880  -0.021  0.00  0.00    +0.048 C 
ATOM      6  C   UNL     1      -0.046  -1.611  -0.641  0.00  0.00    +0.060 C 
ATOM      7  C   UNL     1      -1.832   1.522  -0.042  0.00  0.00    +0.001 C 
ATOM      8  C   UNL     1      -3.421  -0.783   0.378  0.00  0.00    +0.015 C 
ATOM      9  C   UNL     1      -3.169   1.634   0.356  0.00  0.00    +0.000 C 
ATOM     10  C   UNL     1      -3.949   0.498   0.563  0.00  0.00    +0.001 C 
ATOM     11  H   UNL     1      -1.620  -2.921  -0.203  0.00  0.00    +0.152 HD
ENDBRANCH   1   3
BRANCH   1  12
ATOM     12  O   UNL     1       1.973   0.002  -2.017  0.00  0.00    -0.382 OA
ATOM     13  H   UNL     1       1.400  -0.198  -2.774  0.00  0.00    +0.211 HD
ENDBRANCH   1  12
BRANCH   1  14
ATOM     14  CA  UNL     1       2.118   0.902   0.250  0.00  0.00    +0.072 C 
BRANCH  14  15
ATOM     15  N   UNL     1       3.163   1.868  -0.221  0.00  0.00    +0.391 N 
ATOM     16  H1  UNL     1       2.714   2.649  -0.699  0.00  0.00    -0.088 HD
ATOM     17  H2  UNL     1       3.798   1.394  -0.865  0.00  0.00    -0.088 HD
ATOM     18  H3  UNL     1       3.690   2.216   0.580  0.00  0.00    -0.088 HD
ENDBRANCH  14  15
BRANCH  14  21
ATOM     19  O   UNL     1       3.458  -1.077   0.293  0.00  0.00    -0.248 OA
ATOM     20  OXT UNL     1       2.448  -0.372   2.214  0.00  0.00    -0.248 OA
ATOM     21  C   UNL     1       2.737  -0.305   0.983  0.00  0.00    +0.347 C 
ENDBRANCH  14  21
ENDBRANCH   1  14
TORSDOF 5
