REMARK  Name = 4469987
REMARK  1 active torsions:
REMARK  status: ('A' for Active; 'I' for Inactive)
REMARK    1  A    between atoms: N_4  and  C_5
REMARK                            x       y       z     vdW  Elec       q    Type
REMARK                         _______ _______ _______ _____ _____    ______ ____
ROOT
ATOM      1  O   UNL     1      -2.308   0.779  -0.001  0.00  0.00    -0.252 OA
ATOM      2  N   UNL     1       0.037   0.776   0.000  0.00  0.00    -0.230 N 
ATOM      3  N   UNL     1      -1.225  -1.260   0.001  0.00  0.00    -0.284 N 
ATOM      4  C   UNL     1       1.201   0.097  -0.001  0.00  0.00    +0.098 C 
ATOM      5  C   UNL     1      -1.273   0.122   0.000  0.00  0.00    +0.309 C 
ATOM      6  C   UNL     1       1.122  -1.391   0.000  0.00  0.00    +0.025 C 
ATOM      7  C   UNL     1       0.090   2.254   0.001  0.00  0.00    +0.123 C 
ATOM      8  C   UNL     1      -0.070  -1.989   0.001  0.00  0.00    +0.120 C 
ATOM      9  H   UNL     1      -2.078  -1.750   0.001  0.00  0.00    +0.151 HD
ENDROOT
BRANCH   4  10
ATOM     10  N   UNL     1       2.426   0.612   0.000  0.00  0.00    -0.346 N 
ATOM     11  H   UNL     1       2.549   1.589   0.000  0.00  0.00    +0.143 HD
ATOM     12  H   UNL     1       3.211   0.017   0.000  0.00  0.00    +0.143 HD
ENDBRANCH   4  10
TORSDOF 1
