REMARK  Name = 5005498
REMARK  1 active torsions:
REMARK  status: ('A' for Active; 'I' for Inactive)
REMARK    1  A    between atoms: C_15  and  N_24
REMARK                            x       y       z     vdW  Elec       q    Type
REMARK                         _______ _______ _______ _____ _____    ______ ____
ROOT
ATOM      1  O   UNL     1      -1.163   3.487   0.662  0.00  0.00    -0.274 OA
ATOM      2  N   UNL     1      -0.195  -1.698   0.280  0.00  0.00    -0.353 N 
ATOM      3  N   UNL     1      -2.690   1.815   0.440  0.00  0.00    -0.284 N 
ATOM      4  C   UNL     1      -0.104   0.417  -0.378  0.00  0.00    +0.004 A 
ATOM      5  C   UNL     1      -0.969  -0.623  -0.094  0.00  0.00    +0.054 A 
ATOM      6  C   UNL     1       1.230  -0.046  -0.169  0.00  0.00    +0.015 A 
ATOM      7  C   UNL     1       1.141  -1.375   0.243  0.00  0.00    +0.056 A 
ATOM      8  C   UNL     1      -0.554   1.746  -0.836  0.00  0.00    +0.113 C 
ATOM      9  C   UNL     1      -2.432  -0.629  -0.130  0.00  0.00    +0.029 C 
ATOM     10  C   UNL     1      -3.198   0.523   0.148  0.00  0.00    +0.052 C 
ATOM     11  C   UNL     1       2.510   0.535  -0.291  0.00  0.00    +0.025 C 
ATOM     12  C   UNL     1      -1.471   2.397   0.170  0.00  0.00    +0.231 C 
ATOM     13  C   UNL     1       2.264  -2.154   0.543  0.00  0.00    +0.019 C 
ATOM     14  C   UNL     1      -3.102  -1.841  -0.391  0.00  0.00    +0.003 C 
ATOM     15  C   UNL     1       3.643  -0.231   0.004  0.00  0.00    +0.143 C 
ATOM     16  C   UNL     1       3.520  -1.555   0.415  0.00  0.00    +0.026 C 
ATOM     17  C   UNL     1      -4.600   0.407   0.222  0.00  0.00    +0.015 C 
ATOM     18  C   UNL     1      -4.493  -1.926  -0.349  0.00  0.00    +0.000 C 
ATOM     19  C   UNL     1      -5.243  -0.803  -0.032  0.00  0.00    +0.001 C 
ATOM     20  H   UNL     1      -0.551  -2.579   0.538  0.00  0.00    +0.166 HD
ATOM     21  H   UNL     1      -3.321   2.400   0.919  0.00  0.00    +0.155 HD
ENDROOT
BRANCH  15  24
ATOM     22  O   UNL     1       5.942  -0.345   0.150  0.00  0.00    -0.126 OA
ATOM     23  O   UNL     1       5.029   1.546  -0.490  0.00  0.00    -0.126 OA
ATOM     24  N   UNL     1       4.934   0.351  -0.118  0.00  0.00    +0.058 N 
ENDBRANCH  15  24
TORSDOF 1
