REMARK  Name = 134018
REMARK  7 active torsions:
REMARK  status: ('A' for Active; 'I' for Inactive)
REMARK    1  A    between atoms: C_1  and  O_19
REMARK    2  A    between atoms: C_2  and  C_9
REMARK    3  A    between atoms: C_3  and  C_18
REMARK    4  A    between atoms: C_11  and  C_14
REMARK    5  A    between atoms: C_14  and  O_15
REMARK    6  A    between atoms: O_19  and  C_20
REMARK    7  A    between atoms: C_20  and  C_21
REMARK                            x       y       z     vdW  Elec       q    Type
REMARK                         _______ _______ _______ _____ _____    ______ ____
ROOT
ATOM      1  C   UNL     1       2.325  -0.290   0.435  0.00  0.00    +0.148 C 
ATOM      2  C   UNL     1      -0.450  -0.387   0.242  0.00  0.00    +0.036 C 
ATOM      3  C   UNL     1       1.590   0.891   0.456  0.00  0.00    +0.102 C 
ATOM      4  C   UNL     1       1.683  -1.519   0.318  0.00  0.00    +0.038 C 
ATOM      5  C   UNL     1       0.199   0.843   0.360  0.00  0.00    +0.016 C 
ATOM      6  C   UNL     1       0.292  -1.567   0.221  0.00  0.00    +0.006 C 
ENDROOT
BRANCH   2   9
ATOM      7  S   UNL     1      -2.729   0.978  -0.346  0.00  0.00    -0.065 S 
ATOM      8  N   UNL     1      -2.625  -1.495   0.400  0.00  0.00    -0.403 NA
ATOM      9  C   UNL     1      -1.888  -0.437   0.143  0.00  0.00    +0.157 C 
ATOM     10  C   UNL     1      -3.954  -1.175   0.199  0.00  0.00    +0.109 C 
ATOM     11  C   UNL     1      -4.207   0.119  -0.207  0.00  0.00    +0.200 C 
ATOM     12  C   UNL     1      -4.964  -2.227   0.433  0.00  0.00    +0.063 C 
BRANCH  11  14
ATOM     13  O   UNL     1      -6.585   0.287  -0.445  0.00  0.00    -0.249 OA
ATOM     14  C   UNL     1      -5.439   0.772  -0.500  0.00  0.00    +0.330 C 
BRANCH  14  15
ATOM     15  O   UNL     1      -5.277   2.083  -0.878  0.00  0.00    -0.479 OA
ATOM     16  H   UNL     1      -4.419   2.455  -0.922  0.00  0.00    +0.295 HD
ENDBRANCH  14  15
ENDBRANCH  11  14
ENDBRANCH   2   9
BRANCH   3  18
ATOM     17  N   UNL     1       2.764   3.191   0.674  0.00  0.00    -0.191 NA
ATOM     18  C   UNL     1       2.238   2.161   0.577  0.00  0.00    +0.103 C 
ENDBRANCH   3  18
BRANCH   1  19
ATOM     19  O   UNL     1       3.692  -0.272   0.527  0.00  0.00    -0.475 OA
BRANCH  19  20
ATOM     20  C   UNL     1       4.416  -0.831  -0.561  0.00  0.00    +0.205 C 
BRANCH  20  21
ATOM     21  C   UNL     1       5.775  -0.138  -0.695  0.00  0.00    +0.044 C 
ATOM     22  C   UNL     1       6.621  -0.322   0.566  0.00  0.00    +0.004 C 
ATOM     23  C   UNL     1       6.523  -0.664  -1.918  0.00  0.00    +0.004 C 
ENDBRANCH  20  21
ENDBRANCH  19  20
ENDBRANCH   1  19
TORSDOF 7
