REMARK  Name = 64972
REMARK  3 active torsions:
REMARK  status: ('A' for Active; 'I' for Inactive)
REMARK    1  A    between atoms: C_6  and  O_24
REMARK    2  A    between atoms: C_17  and  C_26
REMARK    3  A    between atoms: C_26  and  C_27
REMARK                            x       y       z     vdW  Elec       q    Type
REMARK                         _______ _______ _______ _____ _____    ______ ____
ROOT
ATOM      1  O   UNL     1      -2.450  -1.901   0.185  0.00  0.00    -0.479 OA
ATOM      2  O   UNL     1       2.272  -1.144  -0.090  0.00  0.00    -0.478 OA
ATOM      3  O   UNL     1      -0.769   2.610  -0.060  0.00  0.00    -0.421 OA
ATOM      4  O   UNL     1      -0.017   4.766  -0.107  0.00  0.00    -0.244 OA
ATOM      5  C   UNL     1      -4.108  -0.157  -0.124  0.00  0.00    +0.071 C 
ATOM      6  C   UNL     1      -3.036   0.940   0.007  0.00  0.00    +0.142 C 
ATOM      7  C   UNL     1      -3.671  -1.363   0.716  0.00  0.00    +0.169 C 
ATOM      8  C   UNL     1      -1.631   0.375  -0.005  0.00  0.00    +0.073 A 
ATOM      9  C   UNL     1      -1.416  -1.003   0.076  0.00  0.00    +0.142 A 
ATOM     10  C   UNL     1      -0.113  -1.528   0.019  0.00  0.00    +0.068 A 
ATOM     11  C   UNL     1      -0.503   1.217  -0.060  0.00  0.00    +0.152 A 
ATOM     12  C   UNL     1       0.817   0.744  -0.099  0.00  0.00    +0.065 A 
ATOM     13  C   UNL     1       0.991  -0.656  -0.075  0.00  0.00    +0.144 A 
ATOM     14  C   UNL     1      -5.482   0.392   0.270  0.00  0.00    +0.007 C 
ATOM     15  C   UNL     1       2.511  -2.527  -0.411  0.00  0.00    +0.152 C 
ATOM     16  C   UNL     1      -4.680  -2.508   0.700  0.00  0.00    +0.047 C 
ATOM     17  C   UNL     1       1.904   1.751  -0.168  0.00  0.00    -0.010 C 
ATOM     18  C   UNL     1       0.120  -2.971   0.088  0.00  0.00    +0.005 C 
ATOM     19  C   UNL     1       1.350  -3.438  -0.127  0.00  0.00    +0.013 C 
ATOM     20  C   UNL     1       3.708  -2.949   0.449  0.00  0.00    +0.048 C 
ATOM     21  C   UNL     1       2.893  -2.603  -1.894  0.00  0.00    +0.048 C 
ATOM     22  C   UNL     1       1.599   3.058  -0.172  0.00  0.00    +0.078 C 
ATOM     23  C   UNL     1       0.225   3.565  -0.111  0.00  0.00    +0.346 C 
ENDROOT
BRANCH   6  24
ATOM     24  O   UNL     1      -3.235   1.870  -1.060  0.00  0.00    -0.380 OA
ATOM     25  H   UNL     1      -4.142   2.213  -1.024  0.00  0.00    +0.211 HD
ENDBRANCH   6  24
BRANCH  17  26
ATOM     26  C   UNL     1       3.352   1.352  -0.240  0.00  0.00    +0.027 C 
BRANCH  26  27
ATOM     27  C   UNL     1       3.943   1.226   1.155  0.00  0.00    +0.005 C 
ATOM     28  C   UNL     1       5.425   0.882   1.139  0.00  0.00    +0.000 C 
ENDBRANCH  26  27
ENDBRANCH  17  26
TORSDOF 3
