REMARK  Name = 1001
REMARK  3 active torsions:
REMARK  status: ('A' for Active; 'I' for Inactive)
REMARK    1  A    between atoms: C_1  and  C_2
REMARK    2  A    between atoms: C_1  and  C_8
REMARK    3  A    between atoms: C_8  and  N_9
REMARK                            x       y       z     vdW  Elec       q    Type
REMARK                         _______ _______ _______ _____ _____    ______ ____
ROOT
ATOM      1  C   UNL     1       1.518   0.009   0.682  0.00  0.00    +0.002 C 
ENDROOT
BRANCH   1   2
ATOM      2  C   UNL     1       0.066   0.004   0.339  0.00  0.00    -0.024 C 
ATOM      3  C   UNL     1      -0.617   1.209   0.176  0.00  0.00    -0.004 C 
ATOM      4  C   UNL     1      -0.609  -1.207   0.180  0.00  0.00    -0.004 C 
ATOM      5  C   UNL     1      -1.974   1.205  -0.144  0.00  0.00    -0.000 C 
ATOM      6  C   UNL     1      -1.966  -1.211  -0.141  0.00  0.00    -0.000 C 
ATOM      7  C   UNL     1      -2.649  -0.006  -0.303  0.00  0.00    -0.000 C 
ENDBRANCH   1   2
BRANCH   1   8
ATOM      8  C   UNL     1       2.407   0.009  -0.569  0.00  0.00    -0.081 C 
BRANCH   8   9
ATOM      9  N   UNL     1       3.824  -0.012  -0.219  0.00  0.00    +0.381 N 
ATOM     10  H   UNL     1       4.384  -0.011  -1.071  0.00  0.00    -0.089 HD
ATOM     11  H   UNL     1       4.028  -0.853   0.321  0.00  0.00    -0.089 HD
ATOM     12  H   UNL     1       4.049   0.813   0.337  0.00  0.00    -0.089 HD
ENDBRANCH   8   9
ENDBRANCH   1   8
TORSDOF 3
