REMARK  Name = 440005
REMARK  9 active torsions:
REMARK  status: ('A' for Active; 'I' for Inactive)
REMARK    1  A    between atoms: C_1  and  C_2
REMARK    2  A    between atoms: C_1  and  C_12
REMARK    3  A    between atoms: C_2  and  C_3
REMARK    4  A    between atoms: C_3  and  N_4
REMARK    5  A    between atoms: C_3  and  C_9
REMARK    6  A    between atoms: C_9  and  O_10
REMARK    7  A    between atoms: C_12  and  N_13
REMARK    8  A    between atoms: N_13  and  C_16
REMARK    9  A    between atoms: N_14  and  N_22
REMARK                            x       y       z     vdW  Elec       q    Type
REMARK                         _______ _______ _______ _____ _____    ______ ____
ROOT
ATOM      1  C   UNK     1      -1.093  -0.879  -0.573  0.00  0.00    +0.025 C 
ENDROOT
BRANCH   1   2
ATOM      2  C   UNK     1      -1.491   0.263   0.374  0.00  0.00    -0.009 C 
BRANCH   2   3
ATOM      3  C   UNK     1      -2.804   0.937  -0.050  0.00  0.00    +0.036 C 
BRANCH   3   4
ATOM      4  N   UNK     1      -3.170   1.966   0.920  0.00  0.00    +0.389 N 
ATOM      5  H   UNK     1      -2.420   2.654   0.986  0.00  0.00    -0.088 HD
ATOM      6  H   UNK     1      -3.318   1.536   1.833  0.00  0.00    -0.088 HD
ATOM      7  H   UNK     1      -4.029   2.428   0.619  0.00  0.00    -0.088 HD
ENDBRANCH   3   4
BRANCH   3   9
ATOM      8  O   UNK     1      -4.364  -0.694   0.869  0.00  0.00    -0.253 OA
ATOM      9  C   UNK     1      -3.968  -0.037  -0.085  0.00  0.00    +0.293 C 
BRANCH   9  10
ATOM     10  O   UNK     1      -4.556  -0.088  -1.309  0.00  0.00    -0.482 OA
ATOM     11  H   UNK     1      -4.220   0.432  -2.013  0.00  0.00    +0.295 HD
ENDBRANCH   9  10
ENDBRANCH   3   9
ENDBRANCH   2   3
ENDBRANCH   1   2
BRANCH   1  12
ATOM     12  C   UNK     1       0.200  -1.566  -0.145  0.00  0.00    +0.129 C 
BRANCH  12  13
ATOM     13  N   UNK     1       1.304  -0.605  -0.163  0.00  0.00    -0.239 NA
BRANCH  13  16
ATOM     14  N   UNK     1       3.643  -0.258   0.163  0.00  0.00    -0.197 N 
ATOM     15  N   UNK     1       2.804  -2.346   0.469  0.00  0.00    -0.368 N 
ATOM     16  C   UNK     1       2.487  -1.042   0.134  0.00  0.00    +0.215 C 
ATOM     17  H   UNK     1       4.495  -0.689   0.403  0.00  0.00    +0.197 HD
ATOM     18  H   UNK     1       2.099  -3.033   0.496  0.00  0.00    +0.159 HD
ATOM     19  H   UNK     1       3.735  -2.588   0.681  0.00  0.00    +0.159 HD
BRANCH  14  22
ATOM     20  O   UNK     1       4.764   1.613  -0.050  0.00  0.00    -0.108 OA
ATOM     21  O   UNK     1       2.596   1.651  -0.427  0.00  0.00    -0.108 OA
ATOM     22  N   UNK     1       3.650   1.083  -0.126  0.00  0.00    +0.133 N 
ENDBRANCH  14  22
ENDBRANCH  13  16
ENDBRANCH  12  13
ENDBRANCH   1  12
TORSDOF 9
