REMARK  Name = 688859
REMARK  2 active torsions:
REMARK  status: ('A' for Active; 'I' for Inactive)
REMARK    1  A    between atoms: C_3  and  C_12
REMARK    2  A    between atoms: C_17  and  O_18
REMARK                            x       y       z     vdW  Elec       q    Type
REMARK                         _______ _______ _______ _____ _____    ______ ____
ROOT
ATOM      1  O   UNL     1       0.482  -0.863  -0.156  0.00  0.00    -0.474 OA
ATOM      2  O   UNL     1       2.322   2.801  -0.019  0.00  0.00    -0.291 OA
ATOM      3  C   UNL     1      -0.192   0.276   0.402  0.00  0.00    +0.196 C 
ATOM      4  C   UNL     1       0.277   1.570  -0.261  0.00  0.00    +0.117 C 
ATOM      5  C   UNL     1       1.764   1.711  -0.066  0.00  0.00    +0.180 C 
ATOM      6  C   UNL     1       2.532   0.450  -0.006  0.00  0.00    +0.069 C 
ATOM      7  C   UNL     1       1.848  -0.767  -0.077  0.00  0.00    +0.142 C 
ATOM      8  C   UNL     1       3.926   0.472   0.077  0.00  0.00    +0.006 C 
ATOM      9  C   UNL     1       2.563  -1.965  -0.099  0.00  0.00    +0.037 C 
ATOM     10  C   UNL     1       4.635  -0.730   0.075  0.00  0.00    +0.000 C 
ATOM     11  C   UNL     1       3.956  -1.945  -0.018  0.00  0.00    +0.003 C 
ENDROOT
BRANCH   3  12
ATOM     12  C   UNL     1      -1.683   0.083   0.227  0.00  0.00    +0.018 C 
ATOM     13  C   UNL     1      -2.507  -0.026   1.347  0.00  0.00    +0.002 C 
ATOM     14  C   UNL     1      -2.232   0.015  -1.053  0.00  0.00    +0.002 C 
ATOM     15  C   UNL     1      -3.881  -0.203   1.186  0.00  0.00    +0.036 C 
ATOM     16  C   UNL     1      -3.606  -0.163  -1.214  0.00  0.00    +0.036 C 
ATOM     17  C   UNL     1      -4.431  -0.272  -0.094  0.00  0.00    +0.134 C 
BRANCH  17  18
ATOM     18  O   UNL     1      -5.772  -0.445  -0.250  0.00  0.00    -0.506 OA
ATOM     19  H   UNL     1      -6.326  -0.519   0.502  0.00  0.00    +0.292 HD
ENDBRANCH  17  18
ENDBRANCH   3  12
TORSDOF 2
