REMARK  Name = 657272
REMARK  10 active torsions:
REMARK  status: ('A' for Active; 'I' for Inactive)
REMARK    1  A    between atoms: P_1  and  O_4
REMARK    2  A    between atoms: P_1  and  O_11
REMARK    3  A    between atoms: O_4  and  C_5
REMARK    4  A    between atoms: C_5  and  C_6
REMARK    5  A    between atoms: C_6  and  N_7
REMARK    6  A    between atoms: O_11  and  C_12
REMARK    7  A    between atoms: C_12  and  C_13
REMARK    8  A    between atoms: C_13  and  O_14
REMARK    9  A    between atoms: C_13  and  C_16
REMARK   10  A    between atoms: C_16  and  O_17
REMARK                            x       y       z     vdW  Elec       q    Type
REMARK                         _______ _______ _______ _____ _____    ______ ____
ROOT
ATOM      1  P   UNL     1       0.553   2.401  -0.039  0.00  0.00    +0.506 P 
ATOM      2  O   UNL     1       0.027   3.119  -1.264  0.00  0.00    -0.225 OA
ATOM      3  O   UNL     1       1.312   3.163   1.026  0.00  0.00    -0.116 OA
ENDROOT
BRANCH   1   4
ATOM      4  O   UNL     1      -0.677   1.603   0.686  0.00  0.00    -0.274 OA
BRANCH   4   5
ATOM      5  C   UNL     1      -1.379   0.604  -0.043  0.00  0.00    +0.132 C 
BRANCH   5   6
ATOM      6  C   UNL     1      -2.467   0.010   0.830  0.00  0.00    -0.040 C 
BRANCH   6   7
ATOM      7  N   UNL     1      -3.188  -1.085   0.058  0.00  0.00    +0.387 N 
ATOM      8  C   UNL     1      -2.189  -2.156  -0.356  0.00  0.00    -0.096 C 
ATOM      9  C   UNL     1      -4.261  -1.706   0.941  0.00  0.00    -0.096 C 
ATOM     10  C   UNL     1      -3.836  -0.488  -1.183  0.00  0.00    -0.096 C 
ENDBRANCH   6   7
ENDBRANCH   5   6
ENDBRANCH   4   5
ENDBRANCH   1   4
BRANCH   1  11
ATOM     11  O   UNL     1       1.460   1.133  -0.539  0.00  0.00    -0.269 OA
BRANCH  11  12
ATOM     12  C   UNL     1       2.070   0.294   0.428  0.00  0.00    +0.185 C 
BRANCH  12  13
ATOM     13  C   UNL     1       2.857  -0.810  -0.268  0.00  0.00    +0.170 C 
BRANCH  13  14
ATOM     14  O   UNL     1       1.954  -1.597  -1.048  0.00  0.00    -0.379 OA
ATOM     15  H   UNL     1       1.509  -1.030  -1.698  0.00  0.00    +0.211 HD
ENDBRANCH  13  14
BRANCH  13  16
ATOM     16  C   UNL     1       3.534  -1.731   0.738  0.00  0.00    +0.169 C 
BRANCH  16  17
ATOM     17  O   UNL     1       4.229  -2.755   0.034  0.00  0.00    -0.379 OA
ATOM     18  H   UNL     1       4.663  -3.346   0.668  0.00  0.00    +0.211 HD
ENDBRANCH  16  17
ENDBRANCH  13  16
ENDBRANCH  12  13
ENDBRANCH  11  12
ENDBRANCH   1  11
TORSDOF 10
