REMARK  Name = 6102777
REMARK  2 active torsions:
REMARK  status: ('A' for Active; 'I' for Inactive)
REMARK    1  A    between atoms: C_4  and  S_16
REMARK    2  A    between atoms: S_16  and  N_19
REMARK                            x       y       z     vdW  Elec       q    Type
REMARK                         _______ _______ _______ _____ _____    ______ ____
ROOT
ATOM      1  O   UNL     1      -2.753  -1.381   0.853  0.00  0.00    -0.453 OA
ATOM      2  O   UNL     1      -1.337   1.704  -1.433  0.00  0.00    -0.286 OA
ATOM      3  C   UNL     1      -0.893  -0.329  -0.330  0.00  0.00    +0.075 A 
ATOM      4  C   UNL     1       1.253  -1.432  -0.289  0.00  0.00    +0.126 C 
ATOM      5  C   UNL     1      -1.441  -1.348   0.449  0.00  0.00    +0.148 A 
ATOM      6  C   UNL     1       0.453  -0.366  -0.702  0.00  0.00    +0.026 C 
ATOM      7  C   UNL     1      -3.162   0.728  -0.309  0.00  0.00    +0.074 A 
ATOM      8  C   UNL     1      -1.760   0.782  -0.751  0.00  0.00    +0.201 A 
ATOM      9  C   UNL     1      -3.578  -0.352   0.469  0.00  0.00    +0.148 A 
ATOM     10  C   UNL     1       0.710  -2.453   0.491  0.00  0.00    +0.023 C 
ATOM     11  C   UNL     1      -0.635  -2.412   0.860  0.00  0.00    +0.039 C 
ATOM     12  C   UNL     1      -4.061   1.738  -0.660  0.00  0.00    +0.006 C 
ATOM     13  C   UNL     1      -4.904  -0.424   0.900  0.00  0.00    +0.038 C 
ATOM     14  C   UNL     1      -5.385   1.661  -0.226  0.00  0.00    +0.000 C 
ATOM     15  C   UNL     1      -5.806   0.583   0.552  0.00  0.00    +0.003 C 
ENDROOT
BRANCH   4  16
ATOM     16  S   UNL     1       2.937  -1.488  -0.748  0.00  0.00    +0.081 S 
ATOM     17  O   UNL     1       3.368  -2.880  -0.724  0.00  0.00    -0.149 OA
ATOM     18  O   UNL     1       3.100  -0.707  -1.967  0.00  0.00    -0.149 OA
BRANCH  16  19
ATOM     19  N   UNL     1       3.666  -0.655   0.552  0.00  0.00    -0.156 N 
ATOM     20  N   UNL     1       4.464   1.336   1.643  0.00  0.00    -0.094 NA
ATOM     21  N   UNL     1       3.538   1.570  -0.411  0.00  0.00    -0.071 NA
ATOM     22  N   UNL     1       4.437   2.600   1.196  0.00  0.00    -0.139 N 
ATOM     23  N   UNL     1       3.898   2.785  -0.017  0.00  0.00    -0.020 NA
ATOM     24  C   UNL     1       3.892   0.741   0.603  0.00  0.00    +0.145 C 
ATOM     25  H   UNL     1       3.952  -1.189   1.329  0.00  0.00    +0.186 HD
ATOM     26  H   UNL     1       4.793   3.348   1.728  0.00  0.00    +0.197 HD
ENDBRANCH  16  19
ENDBRANCH   4  16
TORSDOF 2
