REMARK  Name = 1290
REMARK  5 active torsions:
REMARK  status: ('A' for Active; 'I' for Inactive)
REMARK    1  A    between atoms: N_2  and  C_13
REMARK    2  A    between atoms: C_3  and  C_5
REMARK    3  A    between atoms: C_5  and  C_7
REMARK    4  A    between atoms: C_13  and  P_14
REMARK    5  A    between atoms: P_14  and  O_17
REMARK                            x       y       z     vdW  Elec       q    Type
REMARK                         _______ _______ _______ _____ _____    ______ ____
ROOT
ATOM      1  O   UNL     1       1.081   1.533   1.241  0.00  0.00    -0.275 OA
ATOM      2  N   UNL     1       2.212   0.940  -0.699  0.00  0.00    -0.296 N 
ATOM      3  C   UNL     1       1.122   1.403   0.019  0.00  0.00    +0.227 C 
ATOM      4  H   UNL     1       2.140   0.874  -1.679  0.00  0.00    +0.150 HD
ENDROOT
BRANCH   3   5
ATOM      5  C   UNL     1      -0.074   1.714  -0.856  0.00  0.00    +0.111 C 
BRANCH   5   7
ATOM      6  I   UNL     1      -5.066  -1.918   0.669  0.00  0.00    -0.043 I 
ATOM      7  C   UNL     1      -1.255   0.854  -0.495  0.00  0.00    -0.013 C 
ATOM      8  C   UNL     1      -1.428  -0.371  -1.125  0.00  0.00    -0.003 C 
ATOM      9  C   UNL     1      -2.156   1.298   0.463  0.00  0.00    -0.003 C 
ATOM     10  C   UNL     1      -2.523  -1.167  -0.790  0.00  0.00    +0.005 C 
ATOM     11  C   UNL     1      -3.251   0.501   0.798  0.00  0.00    +0.005 C 
ATOM     12  C   UNL     1      -3.434  -0.731   0.171  0.00  0.00    +0.030 C 
ENDBRANCH   5   7
ENDBRANCH   3   5
BRANCH   2  13
ATOM     13  C   UNL     1       3.450   0.550  -0.065  0.00  0.00    +0.174 C 
BRANCH  13  14
ATOM     14  P   UNL     1       3.288  -1.201   0.311  0.00  0.00    +0.219 P 
ATOM     15  O   UNL     1       3.470  -2.017  -0.944  0.00  0.00    -0.292 OA
ATOM     16  H   UNL     1       2.535  -1.608   1.393  0.00  0.00    +0.130 HD
BRANCH  14  17
ATOM     17  O   UNL     1       4.564  -1.387   1.304  0.00  0.00    -0.344 OA
ATOM     18  H   UNL     1       5.379  -1.162   0.828  0.00  0.00    +0.217 HD
ENDBRANCH  14  17
ENDBRANCH  13  14
ENDBRANCH   2  13
TORSDOF 5
