REMARK  Name = 449095
REMARK  5 active torsions:
REMARK  status: ('A' for Active; 'I' for Inactive)
REMARK    1  A    between atoms: CA_9  and  CB_13
REMARK    2  A    between atoms: CB_13  and  CG_14
REMARK    3  A    between atoms: CG_14  and  CD_15
REMARK    4  A    between atoms: CD_15  and  NE_16
REMARK    5  A    between atoms: NE_16  and  CZ_19
REMARK                            x       y       z     vdW  Elec       q    Type
REMARK                         _______ _______ _______ _____ _____    ______ ____
ROOT
ATOM      1  O   ARG A   2      -0.986  -2.387  -0.108  0.00  0.00    -0.273 OA
ATOM      2  O   PRO A   1      -2.330   2.700   0.532  0.00  0.00    -0.273 OA
ATOM      3  N   PRO A   1      -2.623  -0.756   0.053  0.00  0.00    -0.272 N 
ATOM      4  N   ARG A   2      -0.748   1.102   0.005  0.00  0.00    -0.297 N 
ATOM      5  CA  PRO A   1      -3.079   0.571  -0.335  0.00  0.00    +0.152 C 
ATOM      6  CB  PRO A   1      -4.449   0.693   0.320  0.00  0.00    +0.031 C 
ATOM      7  CD  PRO A   1      -3.698  -1.561   0.604  0.00  0.00    +0.094 C 
ATOM      8  CG  PRO A   1      -4.954  -0.749   0.321  0.00  0.00    +0.024 C 
ATOM      9  CA  ARG A   2      -0.440  -0.110  -0.749  0.00  0.00    +0.149 C 
ATOM     10  C   ARG A   2      -1.341  -1.215  -0.205  0.00  0.00    +0.244 C 
ATOM     11  C   PRO A   1      -2.048   1.565   0.157  0.00  0.00    +0.241 C 
ATOM     12  H   ARG A   2      -0.010   1.607   0.418  0.00  0.00    +0.150 HD
ENDROOT
BRANCH   9  13
ATOM     13  CB  ARG A   2       1.033  -0.469  -0.634  0.00  0.00    +0.031 C 
BRANCH  13  14
ATOM     14  CG  ARG A   2       1.924   0.627  -1.224  0.00  0.00    +0.029 C 
BRANCH  14  15
ATOM     15  CD  ARG A   2       3.408   0.298  -1.108  0.00  0.00    +0.129 C 
BRANCH  15  16
ATOM     16  NE  ARG A   2       3.780   0.170   0.302  0.00  0.00    -0.240 NA
BRANCH  16  19
ATOM     17  NH1 ARG A   2       5.460  -0.200   1.856  0.00  0.00    -0.370 N 
ATOM     18  NH2 ARG A   2       6.062  -0.214  -0.343  0.00  0.00    -0.370 N 
ATOM     19  CZ  ARG A   2       5.029  -0.066   0.556  0.00  0.00    +0.189 C 
ATOM     20 HH11 ARG A   2       4.818  -0.116   2.598  0.00  0.00    +0.159 HD
ATOM     21 HH12 ARG A   2       6.409  -0.379   2.044  0.00  0.00    +0.159 HD
ATOM     22 HH21 ARG A   2       5.888  -0.141  -1.309  0.00  0.00    +0.159 HD
ATOM     23 HH22 ARG A   2       6.975  -0.392  -0.019  0.00  0.00    +0.159 HD
ENDBRANCH  16  19
ENDBRANCH  15  16
ENDBRANCH  14  15
ENDBRANCH  13  14
ENDBRANCH   9  13
TORSDOF 5
