REMARK  Name = 5287728
REMARK  9 active torsions:
REMARK  status: ('A' for Active; 'I' for Inactive)
REMARK    1  A    between atoms: S_1  and  N_4
REMARK    2  A    between atoms: S_1  and  N_22
REMARK    3  A    between atoms: C_5  and  N_10
REMARK    4  A    between atoms: N_10  and  C_13
REMARK    5  A    between atoms: C_13  and  C_14
REMARK    6  A    between atoms: C_15  and  O_20
REMARK    7  A    between atoms: N_22  and  C_24
REMARK    8  A    between atoms: C_27  and  O_30
REMARK    9  A    between atoms: O_30  and  C_32
REMARK                            x       y       z     vdW  Elec       q    Type
REMARK                         _______ _______ _______ _____ _____    ______ ____
ROOT
ATOM      1  S   UNL     1      -3.297   2.774  -0.121  0.00  0.00    +0.113 S 
ATOM      2  O   UNL     1      -3.662   2.776   1.284  0.00  0.00    -0.138 OA
ATOM      3  O   UNL     1      -3.443   3.982  -0.913  0.00  0.00    -0.138 OA
ENDROOT
BRANCH   1   4
ATOM      4  N   UNL     1      -1.675   2.232  -0.248  0.00  0.00    -0.143 NA
ATOM      5  C   UNL     1       1.172   1.922  -0.753  0.00  0.00    -0.059 C 
ATOM      6  C   UNL     1       0.115   1.208  -1.602  0.00  0.00    -0.002 C 
ATOM      7  C   UNL     1       0.623   2.204   0.650  0.00  0.00    -0.002 C 
ATOM      8  C   UNL     1      -1.187   2.005  -1.640  0.00  0.00    +0.095 C 
ATOM      9  C   UNL     1      -0.686   2.985   0.579  0.00  0.00    +0.095 C 
BRANCH   5  10
ATOM     10  N   UNL     1       2.379   1.104  -0.664  0.00  0.00    +0.388 N 
ATOM     11  H   UNL     1       2.751   0.953  -1.602  0.00  0.00    -0.084 HD
ATOM     12  H   UNL     1       2.140   0.213  -0.229  0.00  0.00    -0.084 HD
BRANCH  10  13
ATOM     13  C   UNL     1       3.390   1.764   0.149  0.00  0.00    -0.051 C 
BRANCH  13  14
ATOM     14  C   UNL     1       4.645   0.940   0.260  0.00  0.00    -0.010 C 
ATOM     15  C   UNL     1       4.792   0.021   1.291  0.00  0.00    +0.128 C 
ATOM     16  C   UNL     1       5.648   1.117  -0.685  0.00  0.00    -0.003 C 
ATOM     17  C   UNL     1       5.961  -0.734   1.379  0.00  0.00    +0.036 C 
ATOM     18  C   UNL     1       6.818   0.362  -0.596  0.00  0.00    -0.000 C 
ATOM     19  C   UNL     1       6.974  -0.563   0.435  0.00  0.00    +0.003 C 
BRANCH  15  20
ATOM     20  O   UNL     1       3.812  -0.158   2.221  0.00  0.00    -0.506 OA
ATOM     21  H   UNL     1       3.022   0.344   2.172  0.00  0.00    +0.292 HD
ENDBRANCH  15  20
ENDBRANCH  13  14
ENDBRANCH  10  13
ENDBRANCH   5  10
ENDBRANCH   1   4
BRANCH   1  22
ATOM     22  N   UNL     1      -4.132   1.466  -0.876  0.00  0.00    -0.205 N 
ATOM     23  H   UNL     1      -4.493   1.542  -1.789  0.00  0.00    +0.175 HD
BRANCH  22  24
ATOM     24  C   UNL     1      -4.276   0.257  -0.107  0.00  0.00    +0.069 C 
ATOM     25  C   UNL     1      -3.509  -0.856  -0.429  0.00  0.00    +0.053 C 
ATOM     26  C   UNL     1      -5.180   0.218   0.947  0.00  0.00    +0.016 C 
ATOM     27  C   UNL     1      -3.650  -2.027   0.316  0.00  0.00    +0.147 C 
ATOM     28  C   UNL     1      -5.320  -0.953   1.691  0.00  0.00    +0.004 C 
ATOM     29  C   UNL     1      -4.555  -2.075   1.376  0.00  0.00    +0.038 C 
BRANCH  27  30
ATOM     30  O   UNL     1      -2.904  -3.123   0.007  0.00  0.00    -0.453 OA
BRANCH  30  32
ATOM     31  F   UNL     1       2.443  -2.373  -0.989  0.00  0.00    -0.204 F 
ATOM     32  C   UNL     1      -1.555  -2.934  -0.244  0.00  0.00    +0.145 C 
ATOM     33  C   UNL     1      -0.820  -2.121   0.600  0.00  0.00    +0.040 C 
ATOM     34  C   UNL     1      -0.978  -3.563  -1.332  0.00  0.00    +0.040 C 
ATOM     35  C   UNL     1       0.538  -1.931   0.347  0.00  0.00    +0.033 C 
ATOM     36  C   UNL     1       0.380  -3.372  -1.586  0.00  0.00    +0.033 C 
ATOM     37  C   UNL     1       1.138  -2.556  -0.746  0.00  0.00    +0.140 C 
ENDBRANCH  30  32
ENDBRANCH  27  30
ENDBRANCH  22  24
ENDBRANCH   1  22
TORSDOF 9
