REMARK  Name = 5289514
REMARK  3 active torsions:
REMARK  status: ('A' for Active; 'I' for Inactive)
REMARK    1  A    between atoms: C_4  and  C_22
REMARK    2  A    between atoms: C_7  and  C_12
REMARK    3  A    between atoms: C_13  and  C_16
REMARK                            x       y       z     vdW  Elec       q    Type
REMARK                         _______ _______ _______ _____ _____    ______ ____
ROOT
ATOM      1  N   UNL     1       2.262   0.156  -0.317  0.00  0.00    -0.276 N 
ATOM      2  N   UNL     1       4.137  -0.903  -0.744  0.00  0.00    -0.133 NA
ATOM      3  N   UNL     1       3.602  -0.484  -1.945  0.00  0.00    -0.129 NA
ATOM      4  C   UNL     1       3.327  -0.514   0.215  0.00  0.00    +0.147 A 
ATOM      5  C   UNL     1       2.478   0.150  -1.683  0.00  0.00    +0.170 A 
ATOM      6  C   UNL     1       1.162   0.744   0.296  0.00  0.00    +0.081 C 
ATOM      7  C   UNL     1       0.226   1.360  -0.460  0.00  0.00    +0.028 C 
ATOM      8  C   UNL     1       1.506   0.788  -2.497  0.00  0.00    +0.039 C 
ATOM      9  C   UNL     1       0.434   1.363  -1.918  0.00  0.00    +0.003 C 
ENDROOT
BRANCH   7  12
ATOM     10  O   UNL     1      -0.928   3.251   0.609  0.00  0.00    -0.323 OA
ATOM     11  N   UNL     1      -2.924   2.327   1.133  0.00  0.00    -0.241 NA
ATOM     12  C   UNL     1      -0.911   1.951   0.190  0.00  0.00    +0.180 C 
ATOM     13  C   UNL     1      -2.130   1.397   0.514  0.00  0.00    +0.088 C 
ATOM     14  C   UNL     1      -2.163   3.398   1.161  0.00  0.00    +0.272 C 
BRANCH  13  16
ATOM     15  F   UNL     1      -3.727  -3.839  -0.489  0.00  0.00    -0.204 F 
ATOM     16  C   UNL     1      -2.540   0.051   0.256  0.00  0.00    +0.016 C 
ATOM     17  C   UNL     1      -2.303  -0.949   1.202  0.00  0.00    +0.004 C 
ATOM     18  C   UNL     1      -3.181  -0.270  -0.944  0.00  0.00    +0.004 C 
ATOM     19  C   UNL     1      -2.703  -2.261   0.951  0.00  0.00    +0.030 C 
ATOM     20  C   UNL     1      -3.581  -1.583  -1.195  0.00  0.00    +0.030 C 
ATOM     21  C   UNL     1      -3.342  -2.578  -0.248  0.00  0.00    +0.140 C 
ENDBRANCH  13  16
ENDBRANCH   7  12
BRANCH   4  22
ATOM     22  C   UNL     1       3.503  -0.747   1.662  0.00  0.00    +0.059 C 
ATOM     23  C   UNL     1       4.988  -0.770   2.094  0.00  0.00    +0.008 C 
ATOM     24  C   UNL     1       2.810  -2.038   2.156  0.00  0.00    +0.008 C 
ENDBRANCH   4  22
TORSDOF 3
