REMARK  Name = 5453
REMARK  3 active torsions:
REMARK  status: ('A' for Active; 'I' for Inactive)
REMARK    1  A    between atoms: P_2  and  N_3
REMARK    2  A    between atoms: P_2  and  N_6
REMARK    3  A    between atoms: P_2  and  N_9
REMARK                            x       y       z     vdW  Elec       q    Type
REMARK                         _______ _______ _______ _____ _____    ______ ____
ROOT
ATOM      1  S   UNL     1      -0.348   0.950   2.109  0.00  0.00    -0.017 S 
ATOM      2  P   UNL     1      -0.061   0.053   0.391  0.00  0.00    +0.132 P 
ENDROOT
BRANCH   2   3
ATOM      3  N   UNL     1      -1.358   0.109  -0.657  0.00  0.00    -0.230 NA
ATOM      4  C   UNL     1      -2.549  -0.612  -0.242  0.00  0.00    +0.096 C 
ATOM      5  C   UNL     1      -2.505   0.888  -0.221  0.00  0.00    +0.096 C 
ENDBRANCH   2   3
BRANCH   2   6
ATOM      6  N   UNL     1       0.283  -1.576   0.497  0.00  0.00    -0.230 NA
ATOM      7  C   UNL     1       0.636  -2.238  -0.748  0.00  0.00    +0.096 C 
ATOM      8  C   UNL     1       1.673  -1.955   0.300  0.00  0.00    +0.096 C 
ENDBRANCH   2   6
BRANCH   2   9
ATOM      9  N   UNL     1       1.200   0.659  -0.517  0.00  0.00    -0.230 NA
ATOM     10  C   UNL     1       1.038   2.015  -1.014  0.00  0.00    +0.096 C 
ATOM     11  C   UNL     1       1.993   1.708   0.102  0.00  0.00    +0.096 C 
ENDBRANCH   2   9
TORSDOF 3
