REMARK  Name = 448719
REMARK  4 active torsions:
REMARK  status: ('A' for Active; 'I' for Inactive)
REMARK    1  A    between atoms: C_2  and  O_7
REMARK    2  A    between atoms: C_2  and  O_9
REMARK    3  A    between atoms: C_3  and  O_11
REMARK    4  A    between atoms: C_4  and  O_13
REMARK                            x       y       z     vdW  Elec       q    Type
REMARK                         _______ _______ _______ _____ _____    ______ ____
ROOT
ATOM      1  O   UNL     1       0.375   1.503  -0.489  0.00  0.00    -0.328 OA
ATOM      2  C   UNL     1      -0.091  -0.792  -0.212  0.00  0.00    +0.257 C 
ATOM      3  C   UNL     1       0.841   0.344   0.232  0.00  0.00    +0.234 C 
ATOM      4  C   UNL     1      -1.421  -0.065  -0.336  0.00  0.00    +0.196 C 
ATOM      5  C   UNL     1      -0.984   1.273  -0.917  0.00  0.00    +0.179 C 
ATOM      6  C   UNL     1       2.314   0.130  -0.087  0.00  0.00    +0.066 C 
ENDROOT
BRANCH   2   7
ATOM      7  O   UNL     1       0.317  -1.265  -1.496  0.00  0.00    -0.358 OA
ATOM      8  H   UNL     1       0.317  -0.528  -2.126  0.00  0.00    +0.213 HD
ENDBRANCH   2   7
BRANCH   2   9
ATOM      9  O   UNL     1      -0.097  -1.855   0.721  0.00  0.00    -0.358 OA
ATOM     10  H   UNL     1      -0.376  -1.522   1.589  0.00  0.00    +0.213 HD
ENDBRANCH   2   9
BRANCH   3  11
ATOM     11  O   UNL     1       0.750   0.585   1.639  0.00  0.00    -0.360 OA
ATOM     12  H   UNL     1      -0.177   0.727   1.883  0.00  0.00    +0.213 HD
ENDBRANCH   3  11
BRANCH   4  13
ATOM     13  O   UNL     1      -2.003   0.141   0.946  0.00  0.00    -0.378 OA
ATOM     14  H   UNL     1      -2.281  -0.711   1.316  0.00  0.00    +0.211 HD
ENDBRANCH   4  13
TORSDOF 4
