REMARK  Name = 6950514
REMARK  4 active torsions:
REMARK  status: ('A' for Active; 'I' for Inactive)
REMARK    1  A    between atoms: CA_1  and  N_2
REMARK    2  A    between atoms: CA_1  and  C_8
REMARK    3  A    between atoms: CA_1  and  C_9
REMARK    4  A    between atoms: C_9  and  C_10
REMARK                            x       y       z     vdW  Elec       q    Type
REMARK                         _______ _______ _______ _____ _____    ______ ____
ROOT
ATOM      1  CA  UNL     1       0.495   0.618   0.594  0.00  0.00    +0.040 C 
ENDROOT
BRANCH   1   2
ATOM      2  N   UNL     1       0.544   1.909  -0.161  0.00  0.00    +0.389 N 
ATOM      3  H1  UNL     1      -0.078   2.586   0.282  0.00  0.00    -0.088 HD
ATOM      4  H2  UNL     1       0.245   1.752  -1.123  0.00  0.00    -0.088 HD
ATOM      5  H3  UNL     1       1.498   2.271  -0.156  0.00  0.00    -0.088 HD
ENDBRANCH   1   2
BRANCH   1   8
ATOM      6  O   UNL     1       2.373  -0.078  -0.675  0.00  0.00    -0.248 OA
ATOM      7  OXT UNL     1       1.050  -1.673   0.280  0.00  0.00    -0.248 OA
ATOM      8  C   UNL     1       1.398  -0.487   0.019  0.00  0.00    +0.345 C 
ENDBRANCH   1   8
BRANCH   1   9
ATOM      9  C   UNL     1      -0.982   0.240   0.768  0.00  0.00    -0.011 C 
BRANCH   9  10
ATOM     10  C   UNL     1      -1.705  -0.110  -0.537  0.00  0.00    -0.002 C 
ATOM     11  C   UNL     1      -3.174  -0.418  -0.288  0.00  0.00    -0.000 C 
ENDBRANCH   9  10
ENDBRANCH   1   9
TORSDOF 4
