REMARK  Name = 77970
REMARK  6 active torsions:
REMARK  status: ('A' for Active; 'I' for Inactive)
REMARK    1  A    between atoms: C_1  and  C_2
REMARK    2  A    between atoms: C_1  and  C_6
REMARK    3  A    between atoms: C_2  and  C_3
REMARK    4  A    between atoms: C_3  and  C_5
REMARK    5  A    between atoms: C_6  and  C_7
REMARK    6  A    between atoms: C_7  and  O_8
REMARK                            x       y       z     vdW  Elec       q    Type
REMARK                         _______ _______ _______ _____ _____    ______ ____
ROOT
ATOM      1  C   UNL     1      -0.659  -0.440   0.024  0.00  0.00    +0.003 C 
ENDROOT
BRANCH   1   2
ATOM      2  C   UNL     1       0.556   0.489   0.033  0.00  0.00    +0.001 C 
BRANCH   2   3
ATOM      3  C   UNL     1       1.864  -0.302   0.003  0.00  0.00    +0.012 C 
BRANCH   3   5
ATOM      4 BR   UNL     1       4.708  -0.415  -0.010  0.00  0.00    -0.081 Br
ATOM      5  C   UNL     1       3.065   0.628  -0.029  0.00  0.00    +0.068 C 
ENDBRANCH   3   5
ENDBRANCH   2   3
ENDBRANCH   1   2
BRANCH   1   6
ATOM      6  C   UNL     1      -1.967   0.355   0.021  0.00  0.00    +0.032 C 
BRANCH   6   7
ATOM      7  C   UNL     1      -3.192  -0.550  -0.015  0.00  0.00    +0.137 C 
BRANCH   7   8
ATOM      8  O   UNL     1      -4.375   0.235  -0.028  0.00  0.00    -0.382 OA
ATOM      9  H   UNL     1      -5.150  -0.348  -0.050  0.00  0.00    +0.210 HD
ENDBRANCH   7   8
ENDBRANCH   6   7
ENDBRANCH   1   6
TORSDOF 6
