REMARK  Name = 447027
REMARK  11 active torsions:
REMARK  status: ('A' for Active; 'I' for Inactive)
REMARK    1  A    between atoms: C_2  and  O_7
REMARK    2  A    between atoms: C_3  and  O_9
REMARK    3  A    between atoms: C_4  and  O_11
REMARK    4  A    between atoms: C_5  and  C_20
REMARK    5  A    between atoms: C_6  and  O_13
REMARK    6  A    between atoms: O_13  and  C_14
REMARK    7  A    between atoms: C_14  and  C_15
REMARK    8  A    between atoms: C_15  and  C_16
REMARK    9  A    between atoms: C_16  and  C_17
REMARK   10  A    between atoms: C_17  and  C_18
REMARK   11  A    between atoms: C_20  and  O_21
REMARK                            x       y       z     vdW  Elec       q    Type
REMARK                         _______ _______ _______ _____ _____    ______ ____
ROOT
ATOM      1  O   UNL     1       1.204   0.775  -0.022  0.00  0.00    -0.326 OA
ATOM      2  C   UNL     1       3.425  -1.005   0.329  0.00  0.00    +0.172 C 
ATOM      3  C   UNL     1       3.609   0.448  -0.111  0.00  0.00    +0.169 C 
ATOM      4  C   UNL     1       2.033  -1.518  -0.038  0.00  0.00    +0.196 C 
ATOM      5  C   UNL     1       2.458   1.303   0.430  0.00  0.00    +0.176 C 
ATOM      6  C   UNL     1       0.953  -0.549   0.448  0.00  0.00    +0.266 C 
ENDROOT
BRANCH   2   7
ATOM      7  O   UNL     1       4.407  -1.832  -0.288  0.00  0.00    -0.379 OA
ATOM      8  H   UNL     1       5.293  -1.510  -0.057  0.00  0.00    +0.211 HD
ENDBRANCH   2   7
BRANCH   3   9
ATOM      9  O   UNL     1       3.612   0.520  -1.538  0.00  0.00    -0.379 OA
ATOM     10  H   UNL     1       4.339  -0.019  -1.887  0.00  0.00    +0.211 HD
ENDBRANCH   3   9
BRANCH   4  11
ATOM     11  O   UNL     1       1.819  -2.784   0.585  0.00  0.00    -0.378 OA
ATOM     12  H   UNL     1       2.498  -3.410   0.286  0.00  0.00    +0.211 HD
ENDBRANCH   4  11
BRANCH   6  13
ATOM     13  O   UNL     1      -0.303  -1.007  -0.051  0.00  0.00    -0.329 OA
BRANCH  13  14
ATOM     14  C   UNL     1      -1.362  -0.157   0.359  0.00  0.00    +0.145 C 
BRANCH  14  15
ATOM     15  C   UNL     1      -2.674  -0.706  -0.186  0.00  0.00    +0.032 C 
BRANCH  15  16
ATOM     16  C   UNL     1      -3.858   0.176   0.208  0.00  0.00    +0.003 C 
BRANCH  16  17
ATOM     17  C   UNL     1      -5.205  -0.354  -0.290  0.00  0.00    +0.000 C 
BRANCH  17  18
ATOM     18  C   UNL     1      -6.387   0.542   0.084  0.00  0.00    +0.000 C 
ATOM     19  C   UNL     1      -7.707  -0.064  -0.370  0.00  0.00    +0.000 C 
ENDBRANCH  17  18
ENDBRANCH  16  17
ENDBRANCH  15  16
ENDBRANCH  14  15
ENDBRANCH  13  14
ENDBRANCH   6  13
BRANCH   5  20
ATOM     20  C   UNL     1       2.538   2.750  -0.042  0.00  0.00    +0.169 C 
BRANCH  20  21
ATOM     21  O   UNL     1       1.437   3.462   0.492  0.00  0.00    -0.379 OA
ATOM     22  H   UNL     1       1.476   4.386   0.200  0.00  0.00    +0.211 HD
ENDBRANCH  20  21
ENDBRANCH   5  20
TORSDOF 11
