REMARK  Name = 5288837
REMARK  6 active torsions:
REMARK  status: ('A' for Active; 'I' for Inactive)
REMARK    1  A    between atoms: C_1  and  N_2
REMARK    2  A    between atoms: C_1  and  P_6
REMARK    3  A    between atoms: C_1  and  C_11
REMARK    4  A    between atoms: P_6  and  O_9
REMARK    5  A    between atoms: C_11  and  C_12
REMARK    6  A    between atoms: C_12  and  S_13
REMARK                            x       y       z     vdW  Elec       q    Type
REMARK                         _______ _______ _______ _____ _____    ______ ____
ROOT
ATOM      1  C   UNL     1       1.029  -0.759  -0.516  0.00  0.00    +0.012 C 
ENDROOT
BRANCH   1   2
ATOM      2  N   UNL     1       1.112  -1.882   0.408  0.00  0.00    +0.388 N 
ATOM      3  H   UNL     1       2.083  -2.022   0.687  0.00  0.00    -0.089 HD
ATOM      4  H   UNL     1       0.765  -2.725  -0.050  0.00  0.00    -0.089 HD
ATOM      5  H   UNL     1       0.546  -1.686   1.233  0.00  0.00    -0.089 HD
ENDBRANCH   1   2
BRANCH   1   6
ATOM      6  P   UNL     1       1.817   0.530   0.474  0.00  0.00    +0.180 P 
ATOM      7  O   UNL     1       3.308   0.300   0.535  0.00  0.00    -0.296 OA
ATOM      8  H   UNL     1       1.097   1.186   1.452  0.00  0.00    +0.127 HD
BRANCH   6   9
ATOM      9  O   UNL     1       1.489   1.837  -0.440  0.00  0.00    -0.346 OA
ATOM     10  H   UNL     1       1.886   1.726  -1.317  0.00  0.00    +0.217 HD
ENDBRANCH   6   9
ENDBRANCH   1   6
BRANCH   1  11
ATOM     11  C   UNL     1      -0.395  -0.469  -0.995  0.00  0.00    -0.001 C 
BRANCH  11  12
ATOM     12  C   UNL     1      -1.393  -0.166   0.122  0.00  0.00    +0.056 C 
BRANCH  12  13
ATOM     13  S   UNL     1      -3.039   0.176  -0.571  0.00  0.00    -0.139 S 
ATOM     14  C   UNL     1      -3.927   0.433   0.982  0.00  0.00    +0.069 C 
ENDBRANCH  12  13
ENDBRANCH  11  12
ENDBRANCH   1  11
TORSDOF 6
