REMARK  Name = 168140
REMARK  3 active torsions:
REMARK  status: ('A' for Active; 'I' for Inactive)
REMARK    1  A    between atoms: P_2  and  O_3
REMARK    2  A    between atoms: P_2  and  O_5
REMARK    3  A    between atoms: P_2  and  O_7
REMARK                            x       y       z     vdW  Elec       q    Type
REMARK                         _______ _______ _______ _____ _____    ______ ____
ROOT
ATOM      1  S   UNL     1       0.947   2.106  -0.456  0.00  0.00    +0.022 S 
ATOM      2  P   UNL     1       0.069   0.448   0.051  0.00  0.00    +0.307 P 
ENDROOT
BRANCH   2   3
ATOM      3  O   UNL     1       0.710  -0.922  -0.538  0.00  0.00    -0.295 OA
ATOM      4  C   UNL     1       1.997  -1.338  -0.114  0.00  0.00    +0.184 C 
ENDBRANCH   2   3
BRANCH   2   5
ATOM      5  O   UNL     1      -1.491   0.364  -0.395  0.00  0.00    -0.295 OA
ATOM      6  C   UNL     1      -2.237  -0.824  -0.196  0.00  0.00    +0.184 C 
ENDBRANCH   2   5
BRANCH   2   7
ATOM      7  O   UNL     1       0.006   0.165   1.648  0.00  0.00    -0.327 OA
ATOM      8  H   UNL     1       0.902   0.193   2.017  0.00  0.00    +0.219 HD
ENDBRANCH   2   7
TORSDOF 3
