REMARK  Name = 17754075
REMARK  3 active torsions:
REMARK  status: ('A' for Active; 'I' for Inactive)
REMARK    1  A    between atoms: CA_1  and  C_2
REMARK    2  A    between atoms: CA_1  and  C_8
REMARK    3  A    between atoms: C_8  and  O_9
REMARK                            x       y       z     vdW  Elec       q    Type
REMARK                         _______ _______ _______ _____ _____    ______ ____
ROOT
ATOM      1  CA  UNL     1       0.332   0.034   0.026  0.00  0.00    +0.106 C 
ATOM      2  N   UNL     1       0.338   1.397  -0.015  0.00  0.00    -0.370 N 
ATOM      3  C   UNL     1      -0.860   2.196   0.009  0.00  0.00    +0.122 C 
ATOM      4  H   UNL     1       1.206   1.859  -0.063  0.00  0.00    +0.160 HD
ENDROOT
BRANCH   1   5
ATOM      5  C   UNL     1       1.406  -0.778   0.038  0.00  0.00    +0.050 C 
ATOM      6  C   UNL     1       2.839  -0.347   0.009  0.00  0.00    +0.007 C 
ENDBRANCH   1   5
BRANCH   1   8
ATOM      7  OXT UNL     1      -1.621  -0.947   1.068  0.00  0.00    -0.244 OA
ATOM      8  C   UNL     1      -0.996  -0.649   0.061  0.00  0.00    +0.349 C 
BRANCH   8   9
ATOM      9  O   UNL     1      -1.438  -0.906  -1.195  0.00  0.00    -0.476 OA
ATOM     10  H   UNL     1      -0.919  -0.657  -1.934  0.00  0.00    +0.295 HD
ENDBRANCH   8   9
ENDBRANCH   1   8
TORSDOF 3
