REMARK  Name = 1616
REMARK  2 active torsions:
REMARK  status: ('A' for Active; 'I' for Inactive)
REMARK    1  A    between atoms: C_7  and  N_15
REMARK    2  A    between atoms: C_10  and  N_18
REMARK                            x       y       z     vdW  Elec       q    Type
REMARK                         _______ _______ _______ _____ _____    ______ ____
ROOT
ATOM      1  O   UNL     1      -1.817   2.338  -0.001  0.00  0.00    -0.266 OA
ATOM      2  O   UNL     1      -1.043  -2.939   0.000  0.00  0.00    -0.266 OA
ATOM      3  N   UNL     1      -2.638   0.225   0.000  0.00  0.00    -0.263 N 
ATOM      4  N   UNL     1      -2.450  -1.133   0.000  0.00  0.00    -0.263 N 
ATOM      5  C   UNL     1      -0.237   0.570   0.000  0.00  0.00    +0.075 A 
ATOM      6  C   UNL     1      -0.046  -0.812   0.000  0.00  0.00    +0.064 A 
ATOM      7  C   UNL     1       0.868   1.429   0.000  0.00  0.00    +0.048 C 
ATOM      8  C   UNL     1       1.252  -1.338   0.000  0.00  0.00    +0.019 C 
ATOM      9  C   UNL     1      -1.602   1.129   0.000  0.00  0.00    +0.273 A 
ATOM     10  C   UNL     1       2.351  -0.479   0.000  0.00  0.00    +0.043 C 
ATOM     11  C   UNL     1      -1.207  -1.722   0.000  0.00  0.00    +0.272 A 
ATOM     12  C   UNL     1       2.160   0.902   0.000  0.00  0.00    +0.028 C 
ATOM     13  H   UNL     1      -3.560   0.569   0.000  0.00  0.00    +0.190 HD
ATOM     14  H   UNL     1      -3.244  -1.716   0.001  0.00  0.00    +0.190 HD
ENDROOT
BRANCH   7  15
ATOM     15  N   UNL     1       0.751   2.838   0.001  0.00  0.00    -0.357 N 
ATOM     16  H   UNL     1      -0.140   3.258   0.001  0.00  0.00    +0.142 HD
ATOM     17  H   UNL     1       1.560   3.399   0.001  0.00  0.00    +0.142 HD
ENDBRANCH   7  15
BRANCH  10  18
ATOM     18  N   UNL     1       3.659  -1.008   0.000  0.00  0.00    -0.357 N 
ATOM     19  H   UNL     1       3.795  -1.984   0.000  0.00  0.00    +0.142 HD
ATOM     20  H   UNL     1       4.435  -0.403   0.000  0.00  0.00    +0.142 HD
ENDBRANCH  10  18
TORSDOF 2
