REMARK  Name = 68841
REMARK  8 active torsions:
REMARK  status: ('A' for Active; 'I' for Inactive)
REMARK    1  A    between atoms: C_1  and  N_2
REMARK    2  A    between atoms: C_1  and  C_7
REMARK    3  A    between atoms: C_1  and  C_10
REMARK    4  A    between atoms: C_7  and  O_8
REMARK    5  A    between atoms: C_10  and  O_11
REMARK    6  A    between atoms: O_11  and  P_12
REMARK    7  A    between atoms: P_12  and  O_14
REMARK    8  A    between atoms: P_12  and  O_16
REMARK                            x       y       z     vdW  Elec       q    Type
REMARK                         _______ _______ _______ _____ _____    ______ ____
ROOT
ATOM      1  C   UNK     1      -1.565  -0.684   0.514  0.00  0.00    +0.066 C 
ENDROOT
BRANCH   1   2
ATOM      2  N   UNK     1      -2.456  -1.743   0.108  0.00  0.00    +0.390 N 
ATOM      3  H   UNK     1      -2.110  -2.634   0.464  0.00  0.00    -0.088 HD
ATOM      4  H   UNK     1      -2.499  -1.778  -0.911  0.00  0.00    -0.088 HD
ATOM      5  H   UNK     1      -3.388  -1.566   0.482  0.00  0.00    -0.088 HD
ENDBRANCH   1   2
BRANCH   1   7
ATOM      6  O   UNK     1      -2.687   0.732  -1.118  0.00  0.00    -0.253 OA
ATOM      7  C   UNK     1      -2.123   0.612  -0.038  0.00  0.00    +0.295 C 
BRANCH   7   8
ATOM      8  O   UNK     1      -1.883   1.662   0.790  0.00  0.00    -0.482 OA
ATOM      9  H   UNK     1      -1.448   1.523   1.608  0.00  0.00    +0.295 HD
ENDBRANCH   7   8
ENDBRANCH   1   7
BRANCH   1  10
ATOM     10  C   UNK     1      -0.149  -0.915   0.009  0.00  0.00    +0.143 C 
BRANCH  10  11
ATOM     11  O   UNK     1       0.672   0.178   0.402  0.00  0.00    -0.275 OA
BRANCH  11  12
ATOM     12  P   UNK     1       2.231   0.158  -0.023  0.00  0.00    +0.473 P 
ATOM     13  O   UNK     1       3.029   1.345   0.430  0.00  0.00    -0.228 OA
BRANCH  12  14
ATOM     14  O   UNK     1       2.191  -0.079  -1.623  0.00  0.00    -0.303 OA
ATOM     15  H   UNK     1       1.655  -0.863  -1.820  0.00  0.00    +0.222 HD
ENDBRANCH  12  14
BRANCH  12  16
ATOM     16  O   UNK     1       2.739  -1.266   0.550  0.00  0.00    -0.303 OA
ATOM     17  H   UNK     1       2.170  -1.974   0.209  0.00  0.00    +0.222 HD
ENDBRANCH  12  16
ENDBRANCH  11  12
ENDBRANCH  10  11
ENDBRANCH   1  10
TORSDOF 8
