REMARK  Name = 2663
REMARK  11 active torsions:
REMARK  status: ('A' for Active; 'I' for Inactive)
REMARK    1  A    between atoms: C_1  and  O_19
REMARK    2  A    between atoms: C_2  and  C_17
REMARK    3  A    between atoms: C_3  and  N_9
REMARK    4  A    between atoms: N_8  and  C_12
REMARK    5  A    between atoms: N_8  and  C_14
REMARK    6  A    between atoms: O_19  and  C_20
REMARK    7  A    between atoms: C_20  and  C_21
REMARK    8  A    between atoms: C_21  and  O_22
REMARK    9  A    between atoms: C_21  and  C_24
REMARK   10  A    between atoms: C_24  and  N_25
REMARK   11  A    between atoms: N_25  and  C_28
REMARK                            x       y       z     vdW  Elec       q    Type
REMARK                         _______ _______ _______ _____ _____    ______ ____
ROOT
ATOM      1  C   UNL     1       0.909   1.528   0.079  0.00  0.00    +0.141 C 
ATOM      2  C   UNL     1       0.200   0.904  -0.943  0.00  0.00    +0.070 C 
ATOM      3  C   UNL     1      -1.809   1.018   0.395  0.00  0.00    +0.052 C 
ATOM      4  C   UNL     1       0.269   1.898   1.258  0.00  0.00    +0.038 C 
ATOM      5  C   UNL     1      -1.162   0.649  -0.784  0.00  0.00    +0.021 C 
ATOM      6  C   UNL     1      -1.093   1.643   1.417  0.00  0.00    +0.018 C 
ENDROOT
BRANCH   3   9
ATOM      7  O   UNL     1      -3.941   0.224  -1.579  0.00  0.00    -0.252 OA
ATOM      8  N   UNL     1      -5.123  -0.560   0.250  0.00  0.00    -0.264 N 
ATOM      9  N   UNL     1      -3.171   0.762   0.554  0.00  0.00    -0.268 N 
ATOM     10  C   UNL     1      -4.057   0.147  -0.354  0.00  0.00    +0.308 C 
ATOM     11  H   UNL     1      -3.564   1.048   1.410  0.00  0.00    +0.156 HD
BRANCH   8  12
ATOM     12  C   UNL     1      -5.267  -0.656   1.701  0.00  0.00    +0.095 C 
ATOM     13  C   UNL     1      -6.102   0.482   2.252  0.00  0.00    +0.023 C 
ENDBRANCH   8  12
BRANCH   8  14
ATOM     14  C   UNL     1      -6.146  -1.240  -0.534  0.00  0.00    +0.095 C 
ATOM     15  C   UNL     1      -5.756  -2.672  -0.833  0.00  0.00    +0.023 C 
ENDBRANCH   8  14
ENDBRANCH   3   9
BRANCH   2  17
ATOM     16  O   UNL     1       1.834   1.140  -2.627  0.00  0.00    -0.291 OA
ATOM     17  C   UNL     1       0.856   0.509  -2.181  0.00  0.00    +0.176 C 
ATOM     18  C   UNL     1       0.354  -0.698  -2.964  0.00  0.00    +0.077 C 
ENDBRANCH   2  17
BRANCH   1  19
ATOM     19  O   UNL     1       2.247   1.786  -0.056  0.00  0.00    -0.473 OA
BRANCH  19  20
ATOM     20  C   UNL     1       3.023   1.788   1.138  0.00  0.00    +0.232 C 
BRANCH  20  21
ATOM     21  C   UNL     1       4.441   1.328   0.806  0.00  0.00    +0.133 C 
BRANCH  21  22
ATOM     22  O   UNL     1       4.992   2.218  -0.169  0.00  0.00    -0.383 OA
ATOM     23  H   UNL     1       5.894   1.937  -0.389  0.00  0.00    +0.210 HD
ENDBRANCH  21  22
BRANCH  21  24
ATOM     24  C   UNL     1       4.501  -0.094   0.244  0.00  0.00    -0.048 C 
BRANCH  24  25
ATOM     25  N   UNL     1       3.924  -1.067   1.156  0.00  0.00    +0.388 N 
ATOM     26  H   UNL     1       4.437  -1.045   2.038  0.00  0.00    -0.084 HD
ATOM     27  H   UNL     1       2.944  -0.832   1.312  0.00  0.00    -0.084 HD
BRANCH  25  28
ATOM     28  C   UNL     1       4.003  -2.417   0.587  0.00  0.00    -0.046 C 
ATOM     29  C   UNL     1       3.374  -3.402   1.579  0.00  0.00    -0.022 C 
ATOM     30  C   UNL     1       3.228  -2.435  -0.735  0.00  0.00    -0.022 C 
ATOM     31  C   UNL     1       5.472  -2.781   0.342  0.00  0.00    -0.022 C 
ENDBRANCH  25  28
ENDBRANCH  24  25
ENDBRANCH  21  24
ENDBRANCH  20  21
ENDBRANCH  19  20
ENDBRANCH   1  19
TORSDOF 11
