REMARK  Name = 1493
REMARK  3 active torsions:
REMARK  status: ('A' for Active; 'I' for Inactive)
REMARK    1  A    between atoms: C_1  and  N_9
REMARK    2  A    between atoms: C_2  and  N_12
REMARK    3  A    between atoms: C_4  and  O_13
REMARK                            x       y       z     vdW  Elec       q    Type
REMARK                         _______ _______ _______ _____ _____    ______ ____
ROOT
ATOM      1  C   UNL     1      -1.013   0.184  -0.001  0.00  0.00    +0.178 C 
ATOM      2  C   UNL     1       1.385  -0.115  -0.001  0.00  0.00    +0.145 C 
ATOM      3  C   UNL     1       0.272   0.727  -0.001  0.00  0.00    +0.051 C 
ATOM      4  C   UNL     1      -1.186  -1.200   0.000  0.00  0.00    +0.156 C 
ATOM      5  C   UNL     1       1.212  -1.499  -0.001  0.00  0.00    +0.027 C 
ATOM      6  C   UNL     1      -0.074  -2.041   0.000  0.00  0.00    +0.040 C 
ENDROOT
BRANCH   1   9
ATOM      7  O   UNL     1      -1.941   2.296   0.001  0.00  0.00    -0.126 OA
ATOM      8  O   UNL     1      -3.288   0.562   0.000  0.00  0.00    -0.126 OA
ATOM      9  N   UNL     1      -2.136   1.057   0.000  0.00  0.00    +0.061 N 
ENDBRANCH   1   9
BRANCH   2  12
ATOM     10  O   UNL     1       3.680  -0.339   0.002  0.00  0.00    -0.126 OA
ATOM     11  O   UNL     1       2.827   1.684   0.000  0.00  0.00    -0.126 OA
ATOM     12  N   UNL     1       2.693   0.437   0.000  0.00  0.00    +0.058 N 
ENDBRANCH   2  12
BRANCH   4  13
ATOM     13  O   UNL     1      -2.432  -1.753   0.001  0.00  0.00    -0.504 OA
ATOM     14  H   UNL     1      -3.189  -1.202   0.001  0.00  0.00    +0.292 HD
ENDBRANCH   4  13
TORSDOF 3
