REMARK  Name = 454194
REMARK  3 active torsions:
REMARK  status: ('A' for Active; 'I' for Inactive)
REMARK    1  A    between atoms: N_2  and  C_13
REMARK    2  A    between atoms: C_15  and  C_16
REMARK    3  A    between atoms: C_16  and  O_17
REMARK                            x       y       z     vdW  Elec       q    Type
REMARK                         _______ _______ _______ _____ _____    ______ ____
ROOT
ATOM      1  O   UNL     1      -1.642   2.296   0.598  0.00  0.00    -0.193 OA
ATOM      2  N   UNL     1      -0.570   0.308   0.134  0.00  0.00    -0.178 N 
ATOM      3  N   UNL     1      -2.955   0.497   0.162  0.00  0.00    -0.306 NA
ATOM      4  N   UNL     1      -4.296  -1.350  -0.283  0.00  0.00    -0.332 N 
ATOM      5  C   UNL     1      -0.675  -1.027  -0.181  0.00  0.00    +0.083 C 
ATOM      6  C   UNL     1      -1.718   1.100   0.314  0.00  0.00    +0.276 C 
ATOM      7  C   UNL     1      -1.856  -1.625  -0.330  0.00  0.00    +0.065 C 
ATOM      8  C   UNL     1      -3.057  -0.771  -0.138  0.00  0.00    +0.193 C 
ATOM      9  H   UNL     1      -5.109  -0.809  -0.162  0.00  0.00    +0.145 HD
ATOM     10  H   UNL     1      -4.369  -2.305  -0.509  0.00  0.00    +0.145 HD
ENDROOT
BRANCH   2  13
ATOM     11  O   UNL     1       1.641  -0.138   0.754  0.00  0.00    -0.308 OA
ATOM     12  O   UNL     1       2.753   1.247  -0.785  0.00  0.00    -0.324 OA
ATOM     13  C   UNL     1       0.742   0.861   0.274  0.00  0.00    +0.239 C 
ATOM     14  C   UNL     1       1.350   1.282  -1.039  0.00  0.00    +0.197 C 
ATOM     15  C   UNL     1       2.917   0.244   0.226  0.00  0.00    +0.267 C 
BRANCH  15  16
ATOM     16  C   UNL     1       3.602  -0.975  -0.362  0.00  0.00    +0.199 C 
BRANCH  16  17
ATOM     17  O   UNL     1       3.763  -1.949   0.657  0.00  0.00    -0.377 OA
ATOM     18  H   UNL     1       4.200  -2.733   0.289  0.00  0.00    +0.211 HD
ENDBRANCH  16  17
ENDBRANCH  15  16
ENDBRANCH   2  13
TORSDOF 3
