REMARK  Name = 90263
REMARK  12 active torsions:
REMARK  status: ('A' for Active; 'I' for Inactive)
REMARK    1  A    between atoms: O_1  and  C_2
REMARK    2  A    between atoms: O_1  and  C_9
REMARK    3  A    between atoms: C_2  and  C_3
REMARK    4  A    between atoms: C_3  and  O_4
REMARK    5  A    between atoms: O_4  and  C_5
REMARK    6  A    between atoms: C_5  and  C_6
REMARK    7  A    between atoms: C_6  and  O_7
REMARK    8  A    between atoms: C_9  and  C_10
REMARK    9  A    between atoms: C_10  and  O_11
REMARK   10  A    between atoms: O_11  and  C_12
REMARK   11  A    between atoms: C_12  and  C_13
REMARK   12  A    between atoms: C_13  and  O_14
REMARK                            x       y       z     vdW  Elec       q    Type
REMARK                         _______ _______ _______ _____ _____    ______ ____
ROOT
ATOM      1  O   UNL     1      -0.664   0.487  -0.084  0.00  0.00    -0.348 OA
ENDROOT
BRANCH   1   2
ATOM      2  C   UNL     1       0.490  -0.292   0.197  0.00  0.00    +0.174 C 
BRANCH   2   3
ATOM      3  C   UNL     1       1.727   0.508  -0.165  0.00  0.00    +0.174 C 
BRANCH   3   4
ATOM      4  O   UNL     1       2.883  -0.264   0.135  0.00  0.00    -0.348 OA
BRANCH   4   5
ATOM      5  C   UNL     1       4.075   0.430  -0.206  0.00  0.00    +0.174 C 
BRANCH   5   6
ATOM      6  C   UNL     1       5.269  -0.440   0.137  0.00  0.00    +0.174 C 
BRANCH   6   7
ATOM      7  O   UNL     1       6.462   0.246  -0.224  0.00  0.00    -0.348 OA
ATOM      8  C   UNL     1       7.618  -0.516   0.096  0.00  0.00    +0.174 C 
ENDBRANCH   6   7
ENDBRANCH   5   6
ENDBRANCH   4   5
ENDBRANCH   3   4
ENDBRANCH   2   3
ENDBRANCH   1   2
BRANCH   1   9
ATOM      9  C   UNL     1      -1.858  -0.216   0.238  0.00  0.00    +0.174 C 
BRANCH   9  10
ATOM     10  C   UNL     1      -3.052   0.663  -0.083  0.00  0.00    +0.174 C 
BRANCH  10  11
ATOM     11  O   UNL     1      -4.245  -0.047   0.220  0.00  0.00    -0.348 OA
BRANCH  11  12
ATOM     12  C   UNL     1      -5.400   0.740  -0.042  0.00  0.00    +0.174 C 
BRANCH  12  13
ATOM     13  C   UNL     1      -6.637  -0.068   0.299  0.00  0.00    +0.169 C 
BRANCH  13  14
ATOM     14  O   UNL     1      -6.670  -1.232  -0.518  0.00  0.00    -0.379 OA
ATOM     15  H   UNL     1      -7.460  -1.754  -0.306  0.00  0.00    +0.211 HD
ENDBRANCH  13  14
ENDBRANCH  12  13
ENDBRANCH  11  12
ENDBRANCH  10  11
ENDBRANCH   9  10
ENDBRANCH   1   9
TORSDOF 12
