REMARK  Name = 57418154
REMARK  1 active torsions:
REMARK  status: ('A' for Active; 'I' for Inactive)
REMARK    1  A    between atoms: N_1  and  C_7
REMARK                            x       y       z     vdW  Elec       q    Type
REMARK                         _______ _______ _______ _____ _____    ______ ____
ROOT
ATOM      1  N   UNL     1       1.369  -0.002   0.000  0.00  0.00    -0.355 NA
ATOM      2  H   UNL     1       1.861  -0.855   0.000  0.00  0.00    +0.126 HD
ATOM      3  H   UNL     1       1.863   0.850   0.000  0.00  0.00    +0.126 HD
ATOM      4  H   UNL     1       1.925  -0.302   0.755  0.00  0.00    +0.126 HD
ENDROOT
BRANCH   1   7
ATOM      5  O   UNL     1      -0.643  -1.136   0.000  0.00  0.00    -0.225 OA
ATOM      6  O   UNL     1      -0.640   1.138   0.000  0.00  0.00    -0.225 OA
ATOM      7  C   UNL     1      -0.087   0.000   0.000  0.00  0.00    +0.426 C 
ENDBRANCH   1   7
TORSDOF 1
