REMARK  Name = 444302
REMARK  12 active torsions:
REMARK  status: ('A' for Active; 'I' for Inactive)
REMARK    1  A    between atoms: S_1  and  C_5
REMARK    2  A    between atoms: S_1  and  C_12
REMARK    3  A    between atoms: C_6  and  C_9
REMARK    4  A    between atoms: C_9  and  O_10
REMARK    5  A    between atoms: C_12  and  C_13
REMARK    6  A    between atoms: C_12  and  C_18
REMARK    7  A    between atoms: C_13  and  C_14
REMARK    8  A    between atoms: C_14  and  C_15
REMARK    9  A    between atoms: C_15  and  C_16
REMARK   10  A    between atoms: C_18  and  C_19
REMARK   11  A    between atoms: C_19  and  C_20
REMARK   12  A    between atoms: C_20  and  C_21
REMARK                            x       y       z     vdW  Elec       q    Type
REMARK                         _______ _______ _______ _____ _____    ______ ____
ROOT
ATOM      1  S   UNL     1       0.663  -1.132  -1.258  0.00  0.00    -0.092 S 
ENDROOT
BRANCH   1   5
ATOM      2  N   UNL     1       1.951  -2.599   0.649  0.00  0.00    -0.148 NA
ATOM      3  N   UNL     1       3.145  -2.496   1.255  0.00  0.00    -0.195 N 
ATOM      4  N   UNL     1       3.952  -1.480   0.912  0.00  0.00    -0.147 NA
ATOM      5  C   UNL     1       1.990  -1.542  -0.168  0.00  0.00    +0.153 A 
ATOM      6  C   UNL     1       3.206  -0.863  -0.008  0.00  0.00    +0.202 A 
ATOM      7  H   UNL     1       3.422  -3.152   1.935  0.00  0.00    +0.213 HD
BRANCH   6   9
ATOM      8  O   UNL     1       3.077   0.959  -1.528  0.00  0.00    -0.243 OA
ATOM      9  C   UNL     1       3.693   0.316  -0.663  0.00  0.00    +0.360 C 
BRANCH   9  10
ATOM     10  O   UNL     1       4.943   0.725  -0.270  0.00  0.00    -0.476 OA
ATOM     11  H   UNL     1       5.410   0.242   0.383  0.00  0.00    +0.295 HD
ENDBRANCH   9  10
ENDBRANCH   6   9
ENDBRANCH   1   5
BRANCH   1  12
ATOM     12  C   UNL     1      -0.669  -0.889  -0.020  0.00  0.00    +0.053 C 
BRANCH  12  13
ATOM     13  C   UNL     1      -0.504   0.457   0.710  0.00  0.00    +0.011 C 
BRANCH  13  14
ATOM     14  C   UNL     1      -0.683   1.714  -0.151  0.00  0.00    +0.001 C 
BRANCH  14  15
ATOM     15  C   UNL     1      -0.585   2.982   0.703  0.00  0.00    +0.000 C 
BRANCH  15  16
ATOM     16  C   UNL     1      -0.805   4.238  -0.139  0.00  0.00    +0.000 C 
ATOM     17  C   UNL     1      -0.676   5.500   0.699  0.00  0.00    +0.000 C 
ENDBRANCH  15  16
ENDBRANCH  14  15
ENDBRANCH  13  14
ENDBRANCH  12  13
BRANCH  12  18
ATOM     18  C   UNL     1      -2.030  -1.106  -0.703  0.00  0.00    +0.011 C 
BRANCH  18  19
ATOM     19  C   UNL     1      -3.244  -1.087   0.235  0.00  0.00    +0.001 C 
BRANCH  19  20
ATOM     20  C   UNL     1      -4.580  -1.250  -0.494  0.00  0.00    +0.000 C 
BRANCH  20  21
ATOM     21  C   UNL     1      -5.757  -1.127   0.475  0.00  0.00    +0.000 C 
ATOM     22  C   UNL     1      -7.087  -1.320  -0.237  0.00  0.00    +0.000 C 
ENDBRANCH  20  21
ENDBRANCH  19  20
ENDBRANCH  18  19
ENDBRANCH  12  18
ENDBRANCH   1  12
TORSDOF 12
