REMARK  Name = 161358
REMARK  5 active torsions:
REMARK  status: ('A' for Active; 'I' for Inactive)
REMARK    1  A    between atoms: N_3  and  C_10
REMARK    2  A    between atoms: C_10  and  C_11
REMARK    3  A    between atoms: C_11  and  C_13
REMARK    4  A    between atoms: C_13  and  O_14
REMARK    5  A    between atoms: O_14  and  N_15
REMARK                            x       y       z     vdW  Elec       q    Type
REMARK                         _______ _______ _______ _____ _____    ______ ____
ROOT
ATOM      1  O   UNL     1       0.869  -2.209   0.086  0.00  0.00    -0.252 OA
ATOM      2  O   UNL     1       4.625   0.363  -0.634  0.00  0.00    -0.270 OA
ATOM      3  N   UNL     1       0.741   0.093   0.457  0.00  0.00    -0.241 N 
ATOM      4  N   UNL     1       2.738  -0.926  -0.271  0.00  0.00    -0.236 N 
ATOM      5  C   UNL     1       1.396  -1.094   0.095  0.00  0.00    +0.314 C 
ATOM      6  C   UNL     1       1.389   1.311   0.443  0.00  0.00    +0.074 C 
ATOM      7  C   UNL     1       2.668   1.455   0.092  0.00  0.00    +0.074 C 
ATOM      8  C   UNL     1       3.446   0.265  -0.306  0.00  0.00    +0.254 C 
ATOM      9  H   UNL     1       3.230  -1.739  -0.531  0.00  0.00    +0.159 HD
ENDROOT
BRANCH   3  10
ATOM     10  C   UNL     1      -0.660   0.037   0.857  0.00  0.00    +0.112 C 
BRANCH  10  11
ATOM     11  C   UNL     1      -1.606   0.208  -0.325  0.00  0.00    +0.133 C 
BRANCH  11  13
ATOM     12  O   UNL     1      -3.478  -0.017   1.213  0.00  0.00    -0.248 OA
ATOM     13  C   UNL     1      -3.067   0.128   0.069  0.00  0.00    +0.336 C 
BRANCH  13  14
ATOM     14  O   UNL     1      -3.827   0.230  -1.064  0.00  0.00    -0.371 OA
BRANCH  14  15
ATOM     15  N   UNL     1      -5.236   0.155  -0.712  0.00  0.00    -0.165 NA
ATOM     16  H   UNL     1      -5.802   0.231  -1.557  0.00  0.00    +0.163 HD
ATOM     17  H   UNL     1      -5.468   0.919  -0.077  0.00  0.00    +0.163 HD
ENDBRANCH  14  15
ENDBRANCH  13  14
ENDBRANCH  11  13
ENDBRANCH  10  11
ENDBRANCH   3  10
TORSDOF 5
