REMARK  Name = 5326885
REMARK  8 active torsions:
REMARK  status: ('A' for Active; 'I' for Inactive)
REMARK    1  A    between atoms: N_3  and  C_19
REMARK    2  A    between atoms: C_6  and  C_11
REMARK    3  A    between atoms: C_18  and  O_24
REMARK    4  A    between atoms: O_24  and  C_25
REMARK    5  A    between atoms: C_25  and  C_26
REMARK    6  A    between atoms: C_26  and  C_27
REMARK    7  A    between atoms: C_27  and  C_29
REMARK    8  A    between atoms: C_29  and  O_30
REMARK                            x       y       z     vdW  Elec       q    Type
REMARK                         _______ _______ _______ _____ _____    ______ ____
ROOT
ATOM      1  O   UNL     1       1.066   1.760  -0.212  0.00  0.00    -0.252 OA
ATOM      2  O   UNL     1       3.763   2.348   0.130  0.00  0.00    -0.270 OA
ATOM      3  N   UNL     1       0.642  -0.553  -0.291  0.00  0.00    -0.267 N 
ATOM      4  N   UNL     1       2.804   0.230  -0.011  0.00  0.00    -0.236 N 
ATOM      5  C   UNL     1       1.452   0.594  -0.175  0.00  0.00    +0.310 C 
ATOM      6  C   UNL     1       3.865   1.124   0.130  0.00  0.00    +0.253 C 
ATOM      7  H   UNL     1       1.112  -1.416  -0.243  0.00  0.00    +0.156 HD
ATOM      8  H   UNL     1       3.016  -0.731   0.006  0.00  0.00    +0.159 HD
ENDROOT
BRANCH   6  11
ATOM      9 CL   UNL     1       6.082   1.793  -1.914  0.00  0.00    -0.082 Cl
ATOM     10 CL   UNL     1       9.212  -1.427   1.050  0.00  0.00    -0.082 Cl
ATOM     11  C   UNL     1       5.202   0.509   0.326  0.00  0.00    +0.064 C 
ATOM     12  C   UNL     1       6.263   0.754  -0.546  0.00  0.00    +0.063 C 
ATOM     13  C   UNL     1       5.382  -0.334   1.423  0.00  0.00    +0.006 C 
ATOM     14  C   UNL     1       7.503   0.157  -0.322  0.00  0.00    +0.023 C 
ATOM     15  C   UNL     1       6.622  -0.932   1.646  0.00  0.00    +0.012 C 
ATOM     16  C   UNL     1       7.683  -0.687   0.774  0.00  0.00    +0.059 C 
ENDBRANCH   6  11
BRANCH   3  19
ATOM     17 CL   UNL     1      -0.549  -3.344  -0.474  0.00  0.00    -0.081 Cl
ATOM     18  C   UNL     1      -3.510  -0.688  -0.813  0.00  0.00    +0.139 C 
ATOM     19  C   UNL     1      -0.744  -0.622  -0.465  0.00  0.00    +0.062 C 
ATOM     20  C   UNL     1      -2.788  -1.879  -0.738  0.00  0.00    +0.050 C 
ATOM     21  C   UNL     1      -2.849   0.536  -0.715  0.00  0.00    +0.038 C 
ATOM     22  C   UNL     1      -1.405  -1.846  -0.563  0.00  0.00    +0.074 C 
ATOM     23  C   UNL     1      -1.466   0.570  -0.541  0.00  0.00    +0.019 C 
BRANCH  18  24
ATOM     24  O   UNL     1      -4.870  -0.720  -0.986  0.00  0.00    -0.475 OA
BRANCH  24  25
ATOM     25  C   UNL     1      -5.613   0.355  -0.429  0.00  0.00    +0.206 C 
BRANCH  25  26
ATOM     26  C   UNL     1      -7.006  -0.122  -0.040  0.00  0.00    +0.059 C 
BRANCH  26  27
ATOM     27  C   UNL     1      -7.847   0.992   0.585  0.00  0.00    +0.113 C 
BRANCH  27  29
ATOM     28  O   UNL     1      -9.681  -0.602   0.729  0.00  0.00    -0.250 OA
ATOM     29  C   UNL     1      -9.241   0.520   0.932  0.00  0.00    +0.314 C 
BRANCH  29  30
ATOM     30  O   UNL     1      -9.971   1.511   1.509  0.00  0.00    -0.480 OA
ATOM     31  H   UNL     1      -9.589   2.356   1.644  0.00  0.00    +0.295 HD
ENDBRANCH  29  30
ENDBRANCH  27  29
ENDBRANCH  26  27
ENDBRANCH  25  26
ENDBRANCH  24  25
ENDBRANCH  18  24
ENDBRANCH   3  19
TORSDOF 8
