REMARK  Name = 5287779
REMARK  7 active torsions:
REMARK  status: ('A' for Active; 'I' for Inactive)
REMARK    1  A    between atoms: C_1  and  N_2
REMARK    2  A    between atoms: C_1  and  C_7
REMARK    3  A    between atoms: C_1  and  C_13
REMARK    4  A    between atoms: C_7  and  O_8
REMARK    5  A    between atoms: O_8  and  C_9
REMARK    6  A    between atoms: C_13  and  C_14
REMARK    7  A    between atoms: C_14  and  C_17
REMARK                            x       y       z     vdW  Elec       q    Type
REMARK                         _______ _______ _______ _____ _____    ______ ____
ROOT
ATOM      1  C   UNL     1       0.779   1.515  -0.432  0.00  0.00    +0.036 C 
ENDROOT
BRANCH   1   2
ATOM      2  N   UNL     1       0.679   2.954  -0.683  0.00  0.00    +0.389 N 
ATOM      3  H   UNL     1       1.583   3.309  -0.995  0.00  0.00    -0.088 HD
ATOM      4  H   UNL     1       0.406   3.431   0.177  0.00  0.00    -0.088 HD
ATOM      5  H   UNL     1      -0.022   3.126  -1.404  0.00  0.00    -0.088 HD
ENDBRANCH   1   2
BRANCH   1   7
ATOM      6  O   UNL     1      -1.370   1.735   0.688  0.00  0.00    -0.252 OA
ATOM      7  C   UNL     1      -0.593   1.059   0.026  0.00  0.00    +0.296 C 
BRANCH   7   8
ATOM      8  O   UNL     1      -0.830  -0.205  -0.436  0.00  0.00    -0.457 OA
BRANCH   8   9
ATOM      9  C   UNL     1      -2.107  -0.755  -0.101  0.00  0.00    +0.136 C 
ATOM     10  C   UNL     1      -3.193   0.144  -0.689  0.00  0.00    +0.044 C 
ATOM     11  C   UNL     1      -2.180  -2.154  -0.710  0.00  0.00    +0.044 C 
ATOM     12  C   UNL     1      -2.223  -0.825   1.421  0.00  0.00    +0.044 C 
ENDBRANCH   8   9
ENDBRANCH   7   8
ENDBRANCH   1   7
BRANCH   1  13
ATOM     13  C   UNL     1       1.857   1.250   0.628  0.00  0.00    -0.001 C 
BRANCH  13  14
ATOM     14  C   UNL     1       1.925  -0.213   1.077  0.00  0.00    +0.083 C 
BRANCH  14  17
ATOM     15  O   UNL     1       3.114  -0.891  -0.927  0.00  0.00    -0.275 OA
ATOM     16  N   UNL     1       1.798  -2.434   0.152  0.00  0.00    -0.329 N 
ATOM     17  C   UNL     1       2.345  -1.180  -0.015  0.00  0.00    +0.219 C 
ATOM     18  H   UNL     1       1.997  -3.149  -0.495  0.00  0.00    +0.145 HD
ATOM     19  H   UNL     1       1.207  -2.615   0.919  0.00  0.00    +0.145 HD
ENDBRANCH  14  17
ENDBRANCH  13  14
ENDBRANCH   1  13
TORSDOF 7
