REMARK  Name = 2795
REMARK  6 active torsions:
REMARK  status: ('A' for Active; 'I' for Inactive)
REMARK    1  A    between atoms: C_1  and  C_3
REMARK    2  A    between atoms: C_1  and  C_9
REMARK    3  A    between atoms: C_1  and  O_15
REMARK    4  A    between atoms: C_1  and  C_17
REMARK    5  A    between atoms: C_17  and  C_18
REMARK    6  A    between atoms: C_18  and  N_19
REMARK                            x       y       z     vdW  Elec       q    Type
REMARK                         _______ _______ _______ _____ _____    ______ ____
ROOT
ATOM      1  C   UNL     1      -0.120  -0.306   0.725  0.00  0.00    +0.124 C 
ENDROOT
BRANCH   1   3
ATOM      2 CL   UNL     1      -0.333   0.307  -2.288  0.00  0.00    -0.082 Cl
ATOM      3  C   UNL     1       0.227   1.114   0.254  0.00  0.00    +0.016 C 
ATOM      4  C   UNL     1       0.148   1.439  -1.078  0.00  0.00    +0.056 C 
ATOM      5  C   UNL     1       0.611   2.012   1.223  0.00  0.00    -0.001 C 
ATOM      6  C   UNL     1       0.472   2.738  -1.467  0.00  0.00    +0.011 C 
ATOM      7  C   UNL     1       0.935   3.312   0.834  0.00  0.00    -0.000 C 
ATOM      8  C   UNL     1       0.865   3.675  -0.511  0.00  0.00    +0.001 C 
ENDBRANCH   1   3
BRANCH   1   9
ATOM      9  C   UNL     1      -1.575  -0.644   0.360  0.00  0.00    +0.006 C 
ATOM     10  C   UNL     1      -2.575   0.142   0.876  0.00  0.00    -0.002 C 
ATOM     11  C   UNL     1      -1.809  -1.715  -0.465  0.00  0.00    -0.002 C 
ATOM     12  C   UNL     1      -3.895  -0.164   0.546  0.00  0.00    -0.000 C 
ATOM     13  C   UNL     1      -3.129  -2.021  -0.795  0.00  0.00    -0.000 C 
ATOM     14  C   UNL     1      -4.172  -1.245  -0.290  0.00  0.00    -0.000 C 
ENDBRANCH   1   9
BRANCH   1  15
ATOM     15  O   UNL     1      -0.028  -0.390   2.160  0.00  0.00    -0.379 OA
ATOM     16  H   UNL     1       0.878  -0.184   2.438  0.00  0.00    +0.211 HD
ENDBRANCH   1  15
BRANCH   1  17
ATOM     17  C   UNL     1       0.927  -1.332   0.189  0.00  0.00    +0.013 C 
BRANCH  17  18
ATOM     18  C   UNL     1       2.373  -1.037   0.620  0.00  0.00    -0.074 C 
BRANCH  18  19
ATOM     19  N   UNL     1       3.276  -2.039   0.063  0.00  0.00    +0.384 N 
ATOM     20  C   UNL     1       3.143  -2.100  -1.393  0.00  0.00    -0.101 C 
ATOM     21  C   UNL     1       4.661  -1.746   0.436  0.00  0.00    -0.101 C 
ATOM     22  H   UNL     1       3.023  -2.949   0.449  0.00  0.00    -0.080 HD
ENDBRANCH  18  19
ENDBRANCH  17  18
ENDBRANCH   1  17
TORSDOF 6
