REMARK  Name = 25945
REMARK  6 active torsions:
REMARK  status: ('A' for Active; 'I' for Inactive)
REMARK    1  A    between atoms: C_1  and  C_2
REMARK    2  A    between atoms: C_1  and  C_6
REMARK    3  A    between atoms: C_2  and  C_3
REMARK    4  A    between atoms: C_3  and  O_4
REMARK    5  A    between atoms: C_6  and  C_8
REMARK    6  A    between atoms: C_8  and  O_9
REMARK                            x       y       z     vdW  Elec       q    Type
REMARK                         _______ _______ _______ _____ _____    ______ ____
ROOT
ATOM      1  C   UNL     1       0.295   0.299   0.015  0.00  0.00    +0.014 C 
ENDROOT
BRANCH   1   2
ATOM      2  C   UNL     1       1.637  -0.445  -0.010  0.00  0.00    +0.032 C 
BRANCH   2   3
ATOM      3  C   UNL     1       2.823   0.512   0.009  0.00  0.00    +0.137 C 
BRANCH   3   4
ATOM      4  O   UNL     1       4.039  -0.223   0.004  0.00  0.00    -0.382 OA
ATOM      5  H   UNL     1       4.789   0.392   0.016  0.00  0.00    +0.210 HD
ENDBRANCH   3   4
ENDBRANCH   2   3
ENDBRANCH   1   2
BRANCH   1   6
ATOM      6  C   UNL     1      -0.900  -0.654  -0.031  0.00  0.00    +0.109 C 
BRANCH   6   8
ATOM      7  O   UNL     1      -2.392   1.273  -0.007  0.00  0.00    -0.250 OA
ATOM      8  C   UNL     1      -2.234   0.060  -0.010  0.00  0.00    +0.314 C 
BRANCH   8   9
ATOM      9  O   UNL     1      -3.268  -0.821   0.029  0.00  0.00    -0.480 OA
ATOM     10  H   UNL     1      -3.098  -1.743   0.025  0.00  0.00    +0.295 HD
ENDBRANCH   8   9
ENDBRANCH   6   8
ENDBRANCH   1   6
TORSDOF 6
