REMARK  Name = 249
REMARK  2 active torsions:
REMARK  status: ('A' for Active; 'I' for Inactive)
REMARK    1  A    between atoms: N_1  and  C_5
REMARK    2  A    between atoms: C_5  and  C_7
REMARK                            x       y       z     vdW  Elec       q    Type
REMARK                         _______ _______ _______ _____ _____    ______ ____
ROOT
ATOM      1  N   UNL     1      -0.845   0.024   0.000  0.00  0.00    +0.391 N 
ATOM      2  C   UNL     1      -1.089  -1.205  -0.864  0.00  0.00    -0.095 C 
ATOM      3  C   UNL     1      -2.045   0.251   0.909  0.00  0.00    -0.095 C 
ATOM      4  C   UNL     1      -0.648   1.240  -0.893  0.00  0.00    -0.095 C 
ENDROOT
BRANCH   1   5
ATOM      5  C   UNL     1       0.400  -0.190   0.848  0.00  0.00    +0.001 C 
BRANCH   5   7
ATOM      6  O   UNL     1       2.611   0.298   0.000  0.00  0.00    -0.291 OA
ATOM      7  C   UNL     1       1.616  -0.419   0.000  0.00  0.00    +0.185 C 
ENDBRANCH   5   7
ENDBRANCH   1   5
TORSDOF 2
