REMARK  Name = 448055
REMARK  4 active torsions:
REMARK  status: ('A' for Active; 'I' for Inactive)
REMARK    1  A    between atoms: C_1  and  C_9
REMARK    2  A    between atoms: C_2  and  O_16
REMARK    3  A    between atoms: C_5  and  O_14
REMARK    4  A    between atoms: O_16  and  C_17
REMARK                            x       y       z     vdW  Elec       q    Type
REMARK                         _______ _______ _______ _____ _____    ______ ____
ROOT
ATOM      1  C   UNL     1       1.351  -0.861  -0.263  0.00  0.00    -0.017 C 
ATOM      2  C   UNL     1      -1.042  -0.594  -0.198  0.00  0.00    +0.172 C 
ATOM      3  C   UNL     1       0.223  -0.056  -0.413  0.00  0.00    +0.036 C 
ATOM      4  C   UNL     1       1.210  -2.200   0.101  0.00  0.00    -0.001 C 
ATOM      5  C   UNL     1      -1.190  -1.928   0.165  0.00  0.00    +0.172 C 
ATOM      6  C   UNL     1      -0.061  -2.733   0.316  0.00  0.00    +0.040 C 
ENDROOT
BRANCH   1   9
ATOM      7  O   UNL     1       4.980   2.435   0.025  0.00  0.00    -0.275 OA
ATOM      8  N   UNL     1       4.875   0.117   0.336  0.00  0.00    -0.304 N 
ATOM      9  C   UNL     1       2.730  -0.282  -0.495  0.00  0.00    +0.051 C 
ATOM     10  C   UNL     1       3.860  -0.898   0.332  0.00  0.00    +0.094 C 
ATOM     11  C   UNL     1       2.887   1.219  -0.183  0.00  0.00    +0.091 C 
ATOM     12  C   UNL     1       4.369   1.378   0.049  0.00  0.00    +0.223 C 
ATOM     13  H   UNL     1       5.826  -0.060   0.522  0.00  0.00    +0.149 HD
ENDBRANCH   1   9
BRANCH   5  14
ATOM     14  O   UNL     1      -2.426  -2.461   0.376  0.00  0.00    -0.468 OA
ATOM     15  C   UNL     1      -3.082  -3.041  -0.750  0.00  0.00    +0.253 C 
ENDBRANCH   5  14
BRANCH   2  16
ATOM     16  O   UNL     1      -2.143   0.207  -0.350  0.00  0.00    -0.476 OA
BRANCH  16  17
ATOM     17  C   UNL     1      -2.223   1.353   0.488  0.00  0.00    +0.166 C 
ATOM     18  C   UNL     1      -3.521   1.312   1.280  0.00  0.00    +0.044 C 
ATOM     19  C   UNL     1      -2.372   2.613  -0.350  0.00  0.00    +0.044 C 
ATOM     20  C   UNL     1      -4.583   1.805   0.299  0.00  0.00    +0.004 C 
ATOM     21  C   UNL     1      -3.842   2.615  -0.764  0.00  0.00    +0.004 C 
ENDBRANCH  16  17
ENDBRANCH   2  16
TORSDOF 4
