REMARK  Name = 71668376
REMARK  5 active torsions:
REMARK  status: ('A' for Active; 'I' for Inactive)
REMARK    1  A    between atoms: C_1  and  CA_11
REMARK    2  A    between atoms: C_4  and  O_7
REMARK    3  A    between atoms: C_5  and  O_9
REMARK    4  A    between atoms: CA_11  and  N_12
REMARK    5  A    between atoms: CA_11  and  C_18
REMARK                            x       y       z     vdW  Elec       q    Type
REMARK                         _______ _______ _______ _____ _____    ______ ____
ROOT
ATOM      1  C   UNL     1      -0.212   0.031   0.419  0.00  0.00    -0.026 C 
ATOM      2  C   UNL     1       0.440  -1.170   0.140  0.00  0.00    +0.031 C 
ATOM      3  C   UNL     1       0.492   1.234   0.376  0.00  0.00    +0.031 C 
ATOM      4  C   UNL     1       1.849   1.236   0.052  0.00  0.00    +0.136 C 
ATOM      5  C   UNL     1       1.797  -1.167  -0.184  0.00  0.00    +0.136 C 
ATOM      6  C   UNL     1       2.501   0.036  -0.228  0.00  0.00    +0.073 C 
ENDROOT
BRANCH   4   7
ATOM      7  O   UNL     1       2.537   2.410   0.010  0.00  0.00    -0.505 OA
ATOM      8  H   UNL     1       2.099   3.217   0.198  0.00  0.00    +0.292 HD
ENDBRANCH   4   7
BRANCH   5   9
ATOM      9  O   UNL     1       2.434  -2.339  -0.457  0.00  0.00    -0.505 OA
ATOM     10  H   UNL     1       1.961  -3.147  -0.427  0.00  0.00    +0.292 HD
ENDBRANCH   5   9
BRANCH   1  11
ATOM     11  CA  UNL     1      -1.663   0.029   0.765  0.00  0.00    +0.064 C 
BRANCH  11  12
ATOM     12  N   UNL     1      -2.100  -1.184   1.544  0.00  0.00    +0.391 N 
ATOM     13  H1  UNL     1      -1.521  -1.278   2.378  0.00  0.00    -0.088 HD
ATOM     14  H2  UNL     1      -1.998  -2.016   0.963  0.00  0.00    -0.088 HD
ATOM     15  H3  UNL     1      -3.077  -1.078   1.818  0.00  0.00    -0.088 HD
ENDBRANCH  11  12
BRANCH  11  18
ATOM     16  O   UNL     1      -2.352  -0.630  -1.418  0.00  0.00    -0.248 OA
ATOM     17  OXT UNL     1      -3.228   1.271  -0.504  0.00  0.00    -0.248 OA
ATOM     18  C   UNL     1      -2.493   0.241  -0.515  0.00  0.00    +0.349 C 
ENDBRANCH  11  18
ENDBRANCH   1  11
TORSDOF 5
