REMARK  Name = 447466
REMARK  1 active torsions:
REMARK  status: ('A' for Active; 'I' for Inactive)
REMARK    1  A    between atoms: C_3  and  C_5
REMARK                            x       y       z     vdW  Elec       q    Type
REMARK                         _______ _______ _______ _____ _____    ______ ____
ROOT
ATOM      1  C   UNL     1       1.136  -0.398   0.000  0.00  0.00    -0.022 C 
ATOM      2  C   UNL     1       2.500   0.210   0.000  0.00  0.00    +0.031 C 
ATOM      3  C   UNL     1       0.009   0.324  -0.001  0.00  0.00    +0.041 C 
ENDROOT
BRANCH   3   5
ATOM      4  O   UNL     1      -2.354   0.237   0.000  0.00  0.00    -0.283 OA
ATOM      5  C   UNL     1      -1.291  -0.373   0.000  0.00  0.00    +0.234 C 
ENDBRANCH   3   5
TORSDOF 1
