REMARK  Name = 53708
REMARK  3 active torsions:
REMARK  status: ('A' for Active; 'I' for Inactive)
REMARK    1  A    between atoms: C_4  and  C_12
REMARK    2  A    between atoms: C_12  and  C_13
REMARK    3  A    between atoms: C_16  and  S_19
REMARK                            x       y       z     vdW  Elec       q    Type
REMARK                         _______ _______ _______ _____ _____    ______ ____
ROOT
ATOM      1  O   UNL     1      -2.843  -3.047  -0.167  0.00  0.00    -0.254 OA
ATOM      2  N   UNL     1      -1.511  -1.084  -0.077  0.00  0.00    -0.334 NA
ATOM      3  N   UNL     1      -3.733  -0.852   0.011  0.00  0.00    -0.272 N 
ATOM      4  C   UNL     1      -1.823   0.249   0.023  0.00  0.00    +0.084 C 
ATOM      5  C   UNL     1      -3.156   0.398   0.076  0.00  0.00    +0.044 C 
ATOM      6  C   UNL     1      -2.714  -1.835  -0.088  0.00  0.00    +0.292 C 
ATOM      7  C   UNL     1      -4.008   1.606   0.184  0.00  0.00    +0.049 C 
ATOM      8  H   UNL     1      -0.601  -1.457  -0.131  0.00  0.00    +0.133 HD
ATOM      9  H   UNL     1      -1.449  -1.663   0.717  0.00  0.00    +0.133 HD
ATOM     10  H   UNL     1      -4.701  -1.035   0.031  0.00  0.00    +0.156 HD
ENDROOT
BRANCH   4  12
ATOM     11  O   UNL     1      -1.085   2.470   0.166  0.00  0.00    -0.285 OA
ATOM     12  C   UNL     1      -0.793   1.273   0.057  0.00  0.00    +0.208 C 
BRANCH  12  13
ATOM     13  C   UNL     1       0.644   0.877  -0.016  0.00  0.00    +0.040 C 
ATOM     14  C   UNL     1       1.239   0.782  -1.253  0.00  0.00    +0.004 C 
ATOM     15  C   UNL     1       1.318   0.622   1.156  0.00  0.00    +0.004 C 
ATOM     16  C   UNL     1       3.293   0.147  -0.151  0.00  0.00    +0.025 C 
ATOM     17  C   UNL     1       2.583   0.412  -1.321  0.00  0.00    +0.006 C 
ATOM     18  C   UNL     1       2.661   0.253   1.088  0.00  0.00    +0.006 C 
BRANCH  16  19
ATOM     19  S   UNL     1       5.010  -0.325  -0.238  0.00  0.00    -0.113 S 
ATOM     20  C   UNL     1       4.916  -1.947   0.550  0.00  0.00    +0.074 C 
ENDBRANCH  16  19
ENDBRANCH  12  13
ENDBRANCH   4  12
TORSDOF 3
