REMARK  Name = 5494385
REMARK  6 active torsions:
REMARK  status: ('A' for Active; 'I' for Inactive)
REMARK    1  A    between atoms: C_3  and  C_15
REMARK    2  A    between atoms: C_8  and  C_18
REMARK    3  A    between atoms: C_18  and  C_19
REMARK    4  A    between atoms: C_19  and  N_20
REMARK    5  A    between atoms: C_19  and  C_24
REMARK    6  A    between atoms: C_24  and  C_26
REMARK                            x       y       z     vdW  Elec       q    Type
REMARK                         _______ _______ _______ _____ _____    ______ ____
ROOT
ATOM      1  O   UNL     1      -0.606   0.637   1.734  0.00  0.00    -0.275 OA
ATOM      2  N   UNL     1       1.351  -0.025   0.652  0.00  0.00    -0.269 N 
ATOM      3  C   UNL     1       1.913   1.327   0.665  0.00  0.00    +0.156 C 
ATOM      4  C   UNL     1       3.389   1.347   1.052  0.00  0.00    +0.055 C 
ATOM      5  C   UNL     1       2.103  -1.075  -0.056  0.00  0.00    +0.120 C 
ATOM      6  C   UNL     1       4.201   0.306   0.330  0.00  0.00    -0.022 C 
ATOM      7  C   UNL     1       3.586  -0.847  -0.179  0.00  0.00    -0.006 C 
ATOM      8  C   UNL     1       0.050  -0.221   1.138  0.00  0.00    +0.224 C 
ATOM      9  C   UNL     1       5.589   0.466   0.208  0.00  0.00    -0.004 C 
ATOM     10  C   UNL     1       4.370  -1.812  -0.828  0.00  0.00    -0.003 C 
ATOM     11  C   UNL     1       6.358  -0.502  -0.436  0.00  0.00    -0.000 C 
ATOM     12  C   UNL     1       5.748  -1.640  -0.957  0.00  0.00    -0.000 C 
ENDROOT
BRANCH   3  15
ATOM     13  O   UNL     1       1.139   1.275  -1.599  0.00  0.00    -0.274 OA
ATOM     14  N   UNL     1       2.081   3.222  -0.815  0.00  0.00    -0.327 N 
ATOM     15  C   UNL     1       1.660   1.919  -0.692  0.00  0.00    +0.238 C 
ATOM     16  H   UNL     1       1.960   3.700  -1.668  0.00  0.00    +0.145 HD
ATOM     17  H   UNL     1       2.504   3.677  -0.052  0.00  0.00    +0.145 HD
ENDBRANCH   3  15
BRANCH   8  18
ATOM     18  C   UNL     1      -0.553  -1.585   0.906  0.00  0.00    +0.064 C 
BRANCH  18  19
ATOM     19  C   UNL     1      -2.073  -1.512   0.753  0.00  0.00    -0.052 C 
BRANCH  19  20
ATOM     20  N   UNL     1      -2.561  -2.891   0.613  0.00  0.00    +0.382 N 
ATOM     21  H   UNL     1      -2.268  -3.439   1.422  0.00  0.00    -0.089 HD
ATOM     22  H   UNL     1      -2.173  -3.304  -0.236  0.00  0.00    -0.089 HD
ATOM     23  H   UNL     1      -3.579  -2.887   0.554  0.00  0.00    -0.089 HD
ENDBRANCH  19  20
BRANCH  19  24
ATOM     24  C   UNL     1      -2.528  -0.706  -0.483  0.00  0.00    +0.007 C 
BRANCH  24  26
ATOM     25  F   UNL     1      -3.398   1.739   0.637  0.00  0.00    -0.205 F 
ATOM     26  C   UNL     1      -3.977  -0.285  -0.460  0.00  0.00    +0.003 C 
ATOM     27  C   UNL     1      -4.326   0.930   0.107  0.00  0.00    +0.136 C 
ATOM     28  C   UNL     1      -4.934  -1.125  -1.008  0.00  0.00    -0.002 C 
ATOM     29  C   UNL     1      -5.667   1.316   0.127  0.00  0.00    +0.029 C 
ATOM     30  C   UNL     1      -6.275  -0.739  -0.988  0.00  0.00    -0.000 C 
ATOM     31  C   UNL     1      -6.641   0.481  -0.421  0.00  0.00    +0.002 C 
ENDBRANCH  24  26
ENDBRANCH  19  24
ENDBRANCH  18  19
ENDBRANCH   8  18
TORSDOF 6
