REMARK  Name = 121945
REMARK  11 active torsions:
REMARK  status: ('A' for Active; 'I' for Inactive)
REMARK    1  A    between atoms: S_1  and  C_4
REMARK    2  A    between atoms: S_1  and  N_17
REMARK    3  A    between atoms: C_7  and  N_14
REMARK    4  A    between atoms: N_17  and  C_20
REMARK    5  A    between atoms: C_20  and  C_21
REMARK    6  A    between atoms: C_21  and  C_22
REMARK    7  A    between atoms: C_22  and  C_23
REMARK    8  A    between atoms: C_23  and  C_24
REMARK    9  A    between atoms: C_24  and  N_25
REMARK   10  A    between atoms: C_24  and  C_30
REMARK   11  A    between atoms: C_30  and  O_31
REMARK                            x       y       z     vdW  Elec       q    Type
REMARK                         _______ _______ _______ _____ _____    ______ ____
ROOT
ATOM      1  S   UNK     1      -0.931  -3.274   0.008  0.00  0.00    -0.021 S 
ATOM      2  O   UNK     1      -0.255  -4.048  -1.016  0.00  0.00    -0.185 OA
ATOM      3  O   UNK     1      -1.506  -3.937   1.163  0.00  0.00    -0.185 OA
ENDROOT
BRANCH   1   4
ATOM      4  C   UNK     1       0.206  -2.067   0.620  0.00  0.00    +0.090 C 
ATOM      5  C   UNK     1       1.010  -1.296  -0.227  0.00  0.00    +0.016 C 
ATOM      6  C   UNK     1       1.895  -0.350   0.344  0.00  0.00    +0.014 C 
ATOM      7  C   UNK     1       2.704   0.428  -0.499  0.00  0.00    +0.048 C 
ATOM      8  C   UNK     1       0.261  -1.923   2.002  0.00  0.00    +0.016 C 
ATOM      9  C   UNK     1       0.961  -1.435  -1.623  0.00  0.00    +0.001 C 
ATOM     10  C   UNK     1       1.944  -0.211   1.741  0.00  0.00    +0.001 C 
ATOM     11  C   UNK     1       1.132  -0.993   2.563  0.00  0.00    +0.001 C 
ATOM     12  C   UNK     1       2.643   0.277  -1.884  0.00  0.00    +0.015 C 
ATOM     13  C   UNK     1       1.772  -0.653  -2.445  0.00  0.00    +0.001 C 
BRANCH   7  14
ATOM     14  N   UNK     1       3.608   1.388   0.020  0.00  0.00    -0.304 N 
ATOM     15  C   UNK     1       3.177   2.753   0.232  0.00  0.00    +0.112 C 
ATOM     16  C   UNK     1       4.962   1.008   0.355  0.00  0.00    +0.112 C 
ENDBRANCH   7  14
ENDBRANCH   1   4
BRANCH   1  17
ATOM     17  N   UNK     1      -2.120  -2.298  -0.716  0.00  0.00    +0.435 N 
ATOM     18  H   UNK     1      -2.497  -2.827  -1.502  0.00  0.00    -0.049 HD
ATOM     19  H   UNK     1      -1.619  -1.436  -0.928  0.00  0.00    -0.049 HD
BRANCH  17  20
ATOM     20  C   UNK     1      -3.278  -1.833   0.079  0.00  0.00    -0.049 C 
BRANCH  20  21
ATOM     21  C   UNK     1      -3.764  -0.480  -0.431  0.00  0.00    -0.020 C 
BRANCH  21  22
ATOM     22  C   UNK     1      -2.689   0.609  -0.329  0.00  0.00    -0.004 C 
BRANCH  22  23
ATOM     23  C   UNK     1      -3.214   1.950  -0.861  0.00  0.00    -0.011 C 
BRANCH  23  24
ATOM     24  C   UNK     1      -2.227   3.122  -0.748  0.00  0.00    +0.036 C 
BRANCH  24  25
ATOM     25  N   UNK     1      -1.046   2.921  -1.586  0.00  0.00    +0.389 N 
ATOM     26  H   UNK     1      -1.337   2.758  -2.550  0.00  0.00    -0.088 HD
ATOM     27  H   UNK     1      -0.522   2.114  -1.248  0.00  0.00    -0.088 HD
ATOM     28  H   UNK     1      -0.455   3.752  -1.545  0.00  0.00    -0.088 HD
ENDBRANCH  24  25
BRANCH  24  30
ATOM     29  O   UNK     1      -0.626   3.316   1.091  0.00  0.00    -0.253 OA
ATOM     30  C   UNK     1      -1.777   3.363   0.679  0.00  0.00    +0.293 C 
BRANCH  30  31
ATOM     31  O   UNK     1      -2.840   3.664   1.470  0.00  0.00    -0.482 OA
ATOM     32  H   UNK     1      -3.703   3.688   1.106  0.00  0.00    +0.295 HD
ENDBRANCH  30  31
ENDBRANCH  24  30
ENDBRANCH  23  24
ENDBRANCH  22  23
ENDBRANCH  21  22
ENDBRANCH  20  21
ENDBRANCH  17  20
ENDBRANCH   1  17
TORSDOF 11
