REMARK  Name = 11073394
REMARK  5 active torsions:
REMARK  status: ('A' for Active; 'I' for Inactive)
REMARK    1  A    between atoms: CA_1  and  N_2
REMARK    2  A    between atoms: CA_1  and  C_7
REMARK    3  A    between atoms: CA_1  and  C_10
REMARK    4  A    between atoms: C_7  and  O_8
REMARK    5  A    between atoms: C_10  and  N_12
REMARK                            x       y       z     vdW  Elec       q    Type
REMARK                         _______ _______ _______ _____ _____    ______ ____
ROOT
ATOM      1  CA  UNL     1       0.034   0.344   0.751  0.00  0.00    +0.016 C 
ENDROOT
BRANCH   1   2
ATOM      2  N   UNL     1       0.229   1.794   0.858  0.00  0.00    +0.387 N 
ATOM      3  H1  UNL     1      -0.506   2.194   1.442  0.00  0.00    -0.089 HD
ATOM      4  H2  UNL     1       0.189   2.212  -0.071  0.00  0.00    -0.089 HD
ATOM      5  H3  UNL     1       1.138   1.985   1.278  0.00  0.00    -0.089 HD
ENDBRANCH   1   2
BRANCH   1   7
ATOM      6  OXT UNL     1       1.634   0.390  -1.095  0.00  0.00    -0.253 OA
ATOM      7  C   UNL     1       1.157  -0.190  -0.128  0.00  0.00    +0.291 C 
BRANCH   7   8
ATOM      8  O   UNL     1       1.600  -1.405   0.289  0.00  0.00    -0.482 OA
ATOM      9  H   UNL     1       1.208  -1.816   1.034  0.00  0.00    +0.295 HD
ENDBRANCH   7   8
ENDBRANCH   1   7
BRANCH   1  10
ATOM     10  C   UNL     1      -1.379  -0.006   0.235  0.00  0.00    -0.076 C 
ATOM     11  C   UNL     1      -1.698   0.531  -1.164  0.00  0.00    -0.026 C 
BRANCH  10  12
ATOM     12  N   UNL     1      -1.576  -1.460   0.253  0.00  0.00    +0.381 N 
ATOM     13  H   UNL     1      -1.364  -1.819   1.184  0.00  0.00    -0.089 HD
ATOM     14  H   UNL     1      -0.955  -1.896  -0.429  0.00  0.00    -0.089 HD
ATOM     15  H   UNL     1      -2.545  -1.675   0.018  0.00  0.00    -0.089 HD
ENDBRANCH  10  12
ENDBRANCH   1  10
TORSDOF 5
