1023
  -OEChem-10051720293D

 13 12  0     0  0  0  0  0  0999 V2000
    1.4687    0.0811   -0.0004 P   0  0  0  0  0  0  0  0  0  0  0  0
   -1.4686   -0.0811   -0.0003 P   0  0  0  0  0  0  0  0  0  0  0  0
   -0.0001    0.0002   -0.6693 O   0  0  0  0  0  0  0  0  0  0  0  0
    2.4586   -0.0302   -1.2731 O   0  0  0  0  0  0  0  0  0  0  0  0
    1.6268   -1.3525    0.7288 O   0  0  0  0  0  0  0  0  0  0  0  0
   -2.4585    0.0307   -1.2730 O   0  0  0  0  0  0  0  0  0  0  0  0
   -1.6270    1.3525    0.7292 O   0  0  0  0  0  0  0  0  0  0  0  0
    1.6894    1.2760    0.8793 O   0  0  0  0  0  0  0  0  0  0  0  0
   -1.6893   -1.2766    0.8787 O   0  0  0  0  0  0  0  0  0  0  0  0
    3.4234    0.0818   -1.1356 H   0  0  0  0  0  0  0  0  0  0  0  0
    2.4188   -1.5187    1.2832 H   0  0  0  0  0  0  0  0  0  0  0  0
   -3.4233   -0.0811   -1.1356 H   0  0  0  0  0  0  0  0  0  0  0  0
   -2.4193    1.5186    1.2831 H   0  0  0  0  0  0  0  0  0  0  0  0
  1  3  1  0  0  0  0
  1  4  1  0  0  0  0
  1  5  1  0  0  0  0
  1  8  2  0  0  0  0
  2  3  1  0  0  0  0
  2  6  1  0  0  0  0
  2  7  1  0  0  0  0
  2  9  2  0  0  0  0
  4 10  1  0  0  0  0
  5 11  1  0  0  0  0
  6 12  1  0  0  0  0
  7 13  1  0  0  0  0
M  END
> <DATABASE_ID>
DB04160

> <DATABASE_NAME>
drugbank

> <ORIGINAL_SOURCE>
PUBCHEM

> <ORIGINAL_SOURCE_URL>
https://pubchem.ncbi.nlm.nih.gov/rest/pug/compound/inchikey/XPPKVPWEQAFLFU-UHFFFAOYSA-N/SDF?record_type=3d

> <SMILES>
OP(O)(=O)OP(O)(O)=O

> <INCHI_IDENTIFIER>
InChI=1S/H4O7P2/c1-8(2,3)7-9(4,5)6/h(H2,1,2,3)(H2,4,5,6)

> <INCHI_KEY>
XPPKVPWEQAFLFU-UHFFFAOYSA-N

> <FORMULA>
H4O7P2

> <MOLECULAR_WEIGHT>
177.9751

> <EXACT_MASS>
177.943225506

> <JCHEM_ACCEPTOR_COUNT>
6

> <JCHEM_AVERAGE_POLARIZABILITY>
10.276038338742818

> <JCHEM_BIOAVAILABILITY>
1

> <JCHEM_DONOR_COUNT>
4

> <JCHEM_FORMAL_CHARGE>
0

> <JCHEM_GHOSE_FILTER>
0

> <JCHEM_IUPAC>
(phosphonooxy)phosphonic acid

> <JCHEM_LOGP>
-1.4419023016666666

> <JCHEM_MDDR_LIKE_RULE>
0

> <JCHEM_NUMBER_OF_RINGS>
0

> <JCHEM_PHYSIOLOGICAL_CHARGE>
-3

> <JCHEM_PKA>
3.040391741362254

> <JCHEM_PKA_STRONGEST_ACIDIC>
1.7026764435673858

> <JCHEM_POLAR_SURFACE_AREA>
124.29000000000002

> <JCHEM_REFRACTIVITY>
25.5248

> <JCHEM_ROTATABLE_BOND_COUNT>
2

> <JCHEM_RULE_OF_FIVE>
1

> <JCHEM_TRADITIONAL_IUPAC>
pyrophosphoric acid

> <JCHEM_VEBER_RULE>
0

> <DRUGBANK_ID>
DB04160

> <SECONDARY_ACCESSION_NUMBERS>
EXPT01258; DB11055

> <DRUG_GROUPS>
approved; experimental

> <GENERIC_NAME>
Pyrophosphoric acid

> <SYNONYMS>
acide diphosphorique; Diphosphoric acid; Diphosphorsäure; Pyrophosphorsäure

> <PRODUCTS>
Nlihome Dental Care; Onetoothclinic Tooth; Phosphotec; Pyrophosphate; Technescan PYP

> <SALTS>
Sodium pyrophosphate

$$$$
