REMARK  Name = 5287648
REMARK  6 active torsions:
REMARK  status: ('A' for Active; 'I' for Inactive)
REMARK    1  A    between atoms: N_1  and  C_4
REMARK    2  A    between atoms: N_1  and  C_10
REMARK    3  A    between atoms: N_2  and  O_8
REMARK    4  A    between atoms: C_10  and  C_11
REMARK    5  A    between atoms: C_11  and  C_12
REMARK    6  A    between atoms: C_12  and  N_13
REMARK                            x       y       z     vdW  Elec       q    Type
REMARK                         _______ _______ _______ _____ _____    ______ ____
ROOT
ATOM      1  N   UNL     1      -0.366   0.055   0.210  0.00  0.00    -0.238 NA
ENDROOT
BRANCH   1   4
ATOM      2  N   UNL     1      -2.598  -0.638   0.026  0.00  0.00    -0.237 N 
ATOM      3  N   UNL     1      -2.148   1.556  -0.351  0.00  0.00    -0.368 N 
ATOM      4  C   UNL     1      -1.613   0.326  -0.028  0.00  0.00    +0.215 C 
ATOM      5  H   UNL     1      -3.553  -0.401   0.021  0.00  0.00    +0.197 HD
ATOM      6  H   UNL     1      -1.561   2.343  -0.426  0.00  0.00    +0.159 HD
ATOM      7  H   UNL     1      -3.116   1.646  -0.506  0.00  0.00    +0.159 HD
BRANCH   2   8
ATOM      8  O   UNL     1      -2.179  -1.950   0.088  0.00  0.00    -0.287 OA
ATOM      9  H   UNL     1      -2.952  -2.535   0.122  0.00  0.00    +0.244 HD
ENDBRANCH   2   8
ENDBRANCH   1   4
BRANCH   1  10
ATOM     10  C   UNL     1       0.584   1.165   0.126  0.00  0.00    +0.126 C 
BRANCH  10  11
ATOM     11  C   UNL     1       1.983   0.677   0.485  0.00  0.00    +0.003 C 
BRANCH  11  12
ATOM     12  C   UNL     1       2.478  -0.401  -0.469  0.00  0.00    -0.084 C 
BRANCH  12  13
ATOM     13  N   UNL     1       3.858  -0.790  -0.087  0.00  0.00    +0.380 N 
ATOM     14  H   UNL     1       4.196  -1.512  -0.722  0.00  0.00    -0.089 HD
ATOM     15  H   UNL     1       3.858  -1.150   0.868  0.00  0.00    -0.089 HD
ATOM     16  H   UNL     1       4.469   0.025  -0.143  0.00  0.00    -0.089 HD
ENDBRANCH  12  13
ENDBRANCH  11  12
ENDBRANCH  10  11
ENDBRANCH   1  10
TORSDOF 6
