REMARK  Name = 124434
REMARK  4 active torsions:
REMARK  status: ('A' for Active; 'I' for Inactive)
REMARK    1  A    between atoms: C_2  and  O_11
REMARK    2  A    between atoms: C_4  and  O_13
REMARK    3  A    between atoms: C_7  and  O_15
REMARK    4  A    between atoms: C_8  and  O_17
REMARK                            x       y       z     vdW  Elec       q    Type
REMARK                         _______ _______ _______ _____ _____    ______ ____
ROOT
ATOM      1  N   UNL     1       0.696  -1.083   1.135  0.00  0.00    +0.406 N 
ATOM      2  C   UNL     1       1.316  -0.110   0.224  0.00  0.00    +0.076 C 
ATOM      3  C   UNL     1      -0.506  -1.504   0.405  0.00  0.00    -0.028 C 
ATOM      4  C   UNL     1       0.476   1.186   0.212  0.00  0.00    +0.146 C 
ATOM      5  C   UNL     1       1.285  -0.872  -1.104  0.00  0.00    +0.007 C 
ATOM      6  C   UNL     1       0.056  -1.779  -0.993  0.00  0.00    -0.018 C 
ATOM      7  C   UNL     1      -1.534  -0.358   0.440  0.00  0.00    +0.121 C 
ATOM      8  C   UNL     1      -0.984   0.927  -0.195  0.00  0.00    +0.162 C 
ATOM      9  H   UNL     1       0.450  -0.646   2.024  0.00  0.00    -0.081 HD
ATOM     10  H   UNL     1       1.312  -1.859   1.374  0.00  0.00    -0.081 HD
ENDROOT
BRANCH   2  11
ATOM     11  O   UNL     1       2.657   0.189   0.579  0.00  0.00    -0.403 OA
ATOM     12  H   UNL     1       2.669   0.671   1.421  0.00  0.00    +0.208 HD
ENDBRANCH   2  11
BRANCH   4  13
ATOM     13  O   UNL     1       1.052   2.112  -0.713  0.00  0.00    -0.382 OA
ATOM     14  H   UNL     1       1.974   2.284  -0.466  0.00  0.00    +0.210 HD
ENDBRANCH   4  13
BRANCH   7  15
ATOM     15  O   UNL     1      -2.739  -0.750  -0.213  0.00  0.00    -0.384 OA
ATOM     16  H   UNL     1      -3.078  -1.561   0.195  0.00  0.00    +0.210 HD
ENDBRANCH   7  15
BRANCH   8  17
ATOM     17  O   UNL     1      -1.775   2.040   0.223  0.00  0.00    -0.380 OA
ATOM     18  H   UNL     1      -1.428   2.853  -0.177  0.00  0.00    +0.211 HD
ENDBRANCH   8  17
TORSDOF 4
