REMARK  Name = 903
REMARK  4 active torsions:
REMARK  status: ('A' for Active; 'I' for Inactive)
REMARK    1  A    between atoms: C_2  and  C_13
REMARK    2  A    between atoms: C_8  and  O_11
REMARK    3  A    between atoms: C_13  and  C_14
REMARK    4  A    between atoms: C_14  and  N_16
REMARK                            x       y       z     vdW  Elec       q    Type
REMARK                         _______ _______ _______ _____ _____    ______ ____
ROOT
ATOM      1  N   UNL     1      -2.107   2.104  -0.480  0.00  0.00    -0.312 N 
ATOM      2  C   UNL     1      -0.135   1.620   0.415  0.00  0.00    -0.005 C 
ATOM      3  C   UNL     1      -0.871   0.410   0.280  0.00  0.00    +0.014 C 
ATOM      4  C   UNL     1      -2.105   0.742  -0.284  0.00  0.00    +0.048 C 
ATOM      5  C   UNL     1      -0.921   2.644  -0.061  0.00  0.00    +0.058 C 
ATOM      6  C   UNL     1      -0.606  -0.940   0.584  0.00  0.00    +0.038 C 
ATOM      7  C   UNL     1      -3.090  -0.213  -0.560  0.00  0.00    +0.018 C 
ATOM      8  C   UNL     1      -1.582  -1.905   0.314  0.00  0.00    +0.134 C 
ATOM      9  C   UNL     1      -2.804  -1.545  -0.250  0.00  0.00    +0.038 C 
ATOM     10  H   UNL     1      -2.854   2.617  -0.867  0.00  0.00    +0.152 HD
ENDROOT
BRANCH   8  11
ATOM     11  O   UNL     1      -1.332  -3.213   0.606  0.00  0.00    -0.506 OA
ATOM     12  H   UNL     1      -0.512  -3.460   0.985  0.00  0.00    +0.292 HD
ENDBRANCH   8  11
BRANCH   2  13
ATOM     13  C   UNL     1       1.228   1.763   0.965  0.00  0.00    +0.049 C 
BRANCH  13  14
ATOM     14  C   UNL     1       2.346   1.639  -0.084  0.00  0.00    +0.094 C 
BRANCH  14  16
ATOM     15  O   UNL     1       3.755  -0.767   0.721  0.00  0.00    -0.275 OA
ATOM     16  N   UNL     1       2.337   0.360  -0.742  0.00  0.00    -0.304 N 
ATOM     17  C   UNL     1       3.046  -0.741  -0.281  0.00  0.00    +0.223 C 
ATOM     18  C   UNL     1       2.841  -1.958  -1.142  0.00  0.00    +0.095 C 
ATOM     19  H   UNL     1       1.800   0.260  -1.561  0.00  0.00    +0.149 HD
ENDBRANCH  14  16
ENDBRANCH  13  14
ENDBRANCH   2  13
TORSDOF 4
