REMARK  Name = 9892540
REMARK  6 active torsions:
REMARK  status: ('A' for Active; 'I' for Inactive)
REMARK    1  A    between atoms: C_1  and  N_2
REMARK    2  A    between atoms: C_1  and  C_16
REMARK    3  A    between atoms: N_3  and  C_10
REMARK    4  A    between atoms: C_16  and  C_17
REMARK    5  A    between atoms: C_17  and  N_19
REMARK    6  A    between atoms: C_26  and  O_29
REMARK                            x       y       z     vdW  Elec       q    Type
REMARK                         _______ _______ _______ _____ _____    ______ ____
ROOT
ATOM      1  C   UNL     1       0.055   2.743  -1.235  0.00  0.00    -0.075 C 
ENDROOT
BRANCH   1   2
ATOM      2  N   UNL     1       1.110   2.064  -0.483  0.00  0.00    +0.389 N 
ATOM      3  N   UNL     1       3.602   0.713  -0.128  0.00  0.00    -0.312 N 
ATOM      4  C   UNL     1       1.286   0.690  -0.970  0.00  0.00    -0.055 C 
ATOM      5  C   UNL     1       2.376   2.798  -0.595  0.00  0.00    -0.055 C 
ATOM      6  C   UNL     1       2.348  -0.050  -0.153  0.00  0.00    +0.068 C 
ATOM      7  C   UNL     1       3.476   2.128   0.233  0.00  0.00    +0.068 C 
ATOM      8  H   UNL     1       0.833   2.033   0.498  0.00  0.00    -0.080 HD
BRANCH   3  10
ATOM      9 CL   UNL     1       6.919  -3.022  -1.363  0.00  0.00    -0.082 Cl
ATOM     10  C   UNL     1       4.785   0.025   0.165  0.00  0.00    +0.049 C 
ATOM     11  C   UNL     1       5.225  -1.040  -0.646  0.00  0.00    +0.026 C 
ATOM     12  C   UNL     1       5.572   0.376   1.280  0.00  0.00    +0.015 C 
ATOM     13  C   UNL     1       6.404  -1.725  -0.355  0.00  0.00    +0.059 C 
ATOM     14  C   UNL     1       6.751  -0.309   1.572  0.00  0.00    +0.002 C 
ATOM     15  C   UNL     1       7.168  -1.359   0.754  0.00  0.00    +0.011 C 
ENDBRANCH   3  10
ENDBRANCH   1   2
BRANCH   1  16
ATOM     16  C   UNL     1      -1.289   2.019  -1.115  0.00  0.00    -0.001 C 
BRANCH  16  17
ATOM     17  C   UNL     1      -1.823   1.911   0.312  0.00  0.00    +0.096 C 
BRANCH  17  19
ATOM     18  O   UNL     1      -4.308   3.253   0.302  0.00  0.00    -0.275 OA
ATOM     19  N   UNL     1      -3.120   1.245   0.375  0.00  0.00    -0.259 N 
ATOM     20  C   UNL     1      -3.165  -0.188   0.397  0.00  0.00    +0.053 C 
ATOM     21  C   UNL     1      -4.395  -0.844   0.212  0.00  0.00    +0.026 C 
ATOM     22  C   UNL     1      -5.632  -0.042  -0.065  0.00  0.00    +0.040 C 
ATOM     23  C   UNL     1      -5.568   1.272   0.684  0.00  0.00    +0.090 C 
ATOM     24  C   UNL     1      -4.284   2.024   0.403  0.00  0.00    +0.230 C 
ATOM     25  C   UNL     1      -2.010  -0.967   0.572  0.00  0.00    +0.015 C 
ATOM     26  C   UNL     1      -4.455  -2.245   0.199  0.00  0.00    +0.136 C 
ATOM     27  C   UNL     1      -2.080  -2.362   0.572  0.00  0.00    +0.004 C 
ATOM     28  C   UNL     1      -3.302  -3.001   0.386  0.00  0.00    +0.037 C 
BRANCH  26  29
ATOM     29  O   UNL     1      -5.638  -2.900   0.016  0.00  0.00    -0.472 OA
ATOM     30  C   UNL     1      -6.007  -3.206  -1.327  0.00  0.00    +0.252 C 
ENDBRANCH  26  29
ENDBRANCH  17  19
ENDBRANCH  16  17
ENDBRANCH   1  16
TORSDOF 6
