REMARK  Name = 3038506
REMARK  5 active torsions:
REMARK  status: ('A' for Active; 'I' for Inactive)
REMARK    1  A    between atoms: C_3  and  C_26
REMARK    2  A    between atoms: C_10  and  C_16
REMARK    3  A    between atoms: C_15  and  N_21
REMARK    4  A    between atoms: C_26  and  C_29
REMARK    5  A    between atoms: N_28  and  C_31
REMARK                            x       y       z     vdW  Elec       q    Type
REMARK                         _______ _______ _______ _____ _____    ______ ____
ROOT
ATOM      1  O   UNL     1       0.370   0.066  -1.901  0.00  0.00    -0.270 OA
ATOM      2  N   UNL     1       0.639  -1.128   0.109  0.00  0.00    -0.255 N 
ATOM      3  C   UNL     1       2.791  -0.384   2.113  0.00  0.00    +0.033 C 
ATOM      4  C   UNL     1       1.736  -0.969   3.060  0.00  0.00    +0.007 C 
ATOM      5  C   UNL     1       0.293  -0.876   2.578  0.00  0.00    +0.022 C 
ATOM      6  C   UNL     1       3.015  -1.186   0.840  0.00  0.00    -0.008 C 
ATOM      7  C   UNL     1       0.049  -1.705   1.329  0.00  0.00    +0.099 C 
ATOM      8  C   UNL     1       2.016  -1.438  -0.124  0.00  0.00    +0.050 C 
ATOM      9  C   UNL     1       4.337  -1.585   0.553  0.00  0.00    -0.003 C 
ATOM     10  C   UNL     1      -0.086  -0.429  -0.871  0.00  0.00    +0.254 C 
ATOM     11  C   UNL     1       2.369  -2.044  -1.346  0.00  0.00    +0.015 C 
ATOM     12  C   UNL     1       4.667  -2.203  -0.653  0.00  0.00    -0.000 C 
ATOM     13  C   UNL     1       3.683  -2.426  -1.606  0.00  0.00    +0.001 C 
ENDROOT
BRANCH  10  16
ATOM     14 CL   UNL     1      -2.027  -2.533  -2.007  0.00  0.00    -0.082 Cl
ATOM     15  C   UNL     1      -4.228   0.253  -0.180  0.00  0.00    +0.049 C 
ATOM     16  C   UNL     1      -1.522  -0.221  -0.649  0.00  0.00    +0.065 C 
ATOM     17  C   UNL     1      -3.831  -0.881  -0.890  0.00  0.00    +0.026 C 
ATOM     18  C   UNL     1      -3.270   1.149   0.294  0.00  0.00    +0.015 C 
ATOM     19  C   UNL     1      -2.476  -1.118  -1.125  0.00  0.00    +0.063 C 
ATOM     20  C   UNL     1      -1.916   0.912   0.060  0.00  0.00    +0.007 C 
BRANCH  15  21
ATOM     21  N   UNL     1      -5.566   0.488   0.051  0.00  0.00    -0.307 N 
ATOM     22  C   UNL     1      -6.644  -0.387  -0.404  0.00  0.00    +0.091 C 
ATOM     23  C   UNL     1      -6.081   1.643   0.782  0.00  0.00    +0.091 C 
ATOM     24  C   UNL     1      -7.871   0.127   0.345  0.00  0.00    +0.023 C 
ATOM     25  C   UNL     1      -7.582   1.610   0.504  0.00  0.00    +0.023 C 
ENDBRANCH  15  21
ENDBRANCH  10  16
BRANCH   3  26
ATOM     26  C   UNL     1       2.557   1.098   1.795  0.00  0.00    +0.089 C 
BRANCH  26  29
ATOM     27  O   UNL     1       4.863   1.774   1.514  0.00  0.00    -0.275 OA
ATOM     28  N   UNL     1       3.332   2.187  -0.185  0.00  0.00    -0.306 N 
ATOM     29  C   UNL     1       3.725   1.711   1.058  0.00  0.00    +0.223 C 
ATOM     30  H   UNL     1       2.389   2.084  -0.450  0.00  0.00    +0.149 HD
BRANCH  28  31
ATOM     31  C   UNL     1       4.240   2.827  -1.109  0.00  0.00    +0.072 C 
ATOM     32  C   UNL     1       4.912   1.792  -2.002  0.00  0.00    +0.021 C 
ATOM     33  C   UNL     1       3.505   3.875  -1.934  0.00  0.00    +0.021 C 
ENDBRANCH  28  31
ENDBRANCH  26  29
ENDBRANCH   3  26
TORSDOF 5
