REMARK  Name = 11703255
REMARK  6 active torsions:
REMARK  status: ('A' for Active; 'I' for Inactive)
REMARK    1  A    between atoms: S_1  and  C_4
REMARK    2  A    between atoms: S_1  and  N_15
REMARK    3  A    between atoms: C_7  and  C_11
REMARK    4  A    between atoms: C_11  and  O_12
REMARK    5  A    between atoms: O_12  and  C_13
REMARK    6  A    between atoms: N_15  and  C_19
REMARK                            x       y       z     vdW  Elec       q    Type
REMARK                         _______ _______ _______ _____ _____    ______ ____
ROOT
ATOM      1  S   UNL     1      -0.229   0.098   0.259  0.00  0.00    +0.056 S 
ATOM      2  O   UNL     1      -0.542  -1.209   0.808  0.00  0.00    -0.154 OA
ATOM      3  O   UNL     1       0.055   1.215   1.140  0.00  0.00    -0.154 OA
ENDROOT
BRANCH   1   4
ATOM      4  C   UNL     1      -1.583   0.558  -0.792  0.00  0.00    +0.177 C 
ATOM      5  C   UNL     1      -1.237   1.793  -1.633  0.00  0.00    +0.031 C 
ATOM      6  C   UNL     1      -1.343   3.086  -0.824  0.00  0.00    +0.007 C 
ATOM      7  C   UNL     1      -2.771   0.771   0.097  0.00  0.00    +0.073 C 
ATOM      8  C   UNL     1      -2.729   3.251  -0.196  0.00  0.00    +0.026 C 
ATOM      9  C   UNL     1      -3.298   1.976   0.357  0.00  0.00    -0.022 C 
BRANCH   7  11
ATOM     10  O   UNL     1      -4.088  -0.361   1.710  0.00  0.00    -0.245 OA
ATOM     11  C   UNL     1      -3.459  -0.393   0.665  0.00  0.00    +0.339 C 
BRANCH  11  12
ATOM     12  O   UNL     1      -3.268  -1.454  -0.159  0.00  0.00    -0.446 OA
BRANCH  12  13
ATOM     13  C   UNL     1      -3.884  -2.675   0.263  0.00  0.00    +0.209 C 
ATOM     14  C   UNL     1      -3.582  -3.756  -0.752  0.00  0.00    +0.051 C 
ENDBRANCH  12  13
ENDBRANCH  11  12
ENDBRANCH   7  11
ENDBRANCH   1   4
BRANCH   1  15
ATOM     15  N   UNL     1       1.016  -0.100  -0.908  0.00  0.00    -0.218 N 
ATOM     16  H   UNL     1       0.804  -0.224  -1.861  0.00  0.00    +0.173 HD
BRANCH  15  19
ATOM     17 CL   UNL     1       2.525  -2.754  -0.957  0.00  0.00    -0.081 Cl
ATOM     18  F   UNL     1       6.273   0.087   0.893  0.00  0.00    -0.204 F 
ATOM     19  C   UNL     1       2.379  -0.078  -0.447  0.00  0.00    +0.075 C 
ATOM     20  C   UNL     1       3.152  -1.234  -0.430  0.00  0.00    +0.074 C 
ATOM     21  C   UNL     1       2.909   1.134  -0.015  0.00  0.00    +0.019 C 
ATOM     22  C   UNL     1       4.470  -1.178   0.024  0.00  0.00    +0.042 C 
ATOM     23  C   UNL     1       4.227   1.190   0.439  0.00  0.00    +0.031 C 
ATOM     24  C   UNL     1       5.007   0.034   0.459  0.00  0.00    +0.141 C 
ENDBRANCH  15  19
ENDBRANCH   1  15
TORSDOF 6
