REMARK  Name = 50515
REMARK  4 active torsions:
REMARK  status: ('A' for Active; 'I' for Inactive)
REMARK    1  A    between atoms: N_3  and  C_19
REMARK    2  A    between atoms: C_13  and  N_16
REMARK    3  A    between atoms: C_19  and  C_20
REMARK    4  A    between atoms: C_20  and  N_21
REMARK                            x       y       z     vdW  Elec       q    Type
REMARK                         _______ _______ _______ _____ _____    ______ ____
ROOT
ATOM      1  O   UNL     1       0.517  -2.574   0.469  0.00  0.00    -0.269 OA
ATOM      2  O   UNL     1       1.709   1.937   0.515  0.00  0.00    -0.269 OA
ATOM      3  N   UNL     1       1.182  -0.338   0.437  0.00  0.00    -0.225 N 
ATOM      4  C   UNL     1      -1.498   0.378   0.037  0.00  0.00    +0.009 C 
ATOM      5  C   UNL     1      -1.165  -0.981   0.132  0.00  0.00    +0.055 C 
ATOM      6  C   UNL     1      -0.535   1.389   0.155  0.00  0.00    +0.054 C 
ATOM      7  C   UNL     1       0.241  -1.381   0.358  0.00  0.00    +0.255 C 
ATOM      8  C   UNL     1      -2.852   0.739  -0.180  0.00  0.00    +0.002 C 
ATOM      9  C   UNL     1       0.884   1.036   0.382  0.00  0.00    +0.255 C 
ATOM     10  C   UNL     1      -2.149  -1.970   0.013  0.00  0.00    +0.019 C 
ATOM     11  C   UNL     1      -0.899   2.739   0.059  0.00  0.00    +0.005 C 
ATOM     12  C   UNL     1      -3.826  -0.263  -0.298  0.00  0.00    +0.014 C 
ATOM     13  C   UNL     1      -3.476  -1.608  -0.202  0.00  0.00    +0.042 C 
ATOM     14  C   UNL     1      -3.200   2.095  -0.275  0.00  0.00    +0.000 C 
ATOM     15  C   UNL     1      -2.229   3.087  -0.156  0.00  0.00    +0.000 C 
ENDROOT
BRANCH  13  16
ATOM     16  N   UNL     1      -4.468  -2.604  -0.321  0.00  0.00    -0.357 N 
ATOM     17  H   UNL     1      -4.221  -3.555  -0.253  0.00  0.00    +0.142 HD
ATOM     18  H   UNL     1      -5.406  -2.349  -0.473  0.00  0.00    +0.142 HD
ENDBRANCH  13  16
BRANCH   3  19
ATOM     19  C   UNL     1       2.584  -0.712   0.589  0.00  0.00    +0.079 C 
BRANCH  19  20
ATOM     20  C   UNL     1       3.414  -0.229  -0.592  0.00  0.00    -0.055 C 
BRANCH  20  21
ATOM     21  N   UNL     1       4.814  -0.587  -0.407  0.00  0.00    +0.385 N 
ATOM     22  C   UNL     1       5.335  -0.009   0.834  0.00  0.00    -0.101 C 
ATOM     23  C   UNL     1       5.616  -0.144  -1.549  0.00  0.00    -0.101 C 
ATOM     24  H   UNL     1       4.875  -1.603  -0.342  0.00  0.00    -0.080 HD
ENDBRANCH  20  21
ENDBRANCH  19  20
ENDBRANCH   3  19
TORSDOF 4
