REMARK  Name = 101616
REMARK  7 active torsions:
REMARK  status: ('A' for Active; 'I' for Inactive)
REMARK    1  A    between atoms: C_2  and  C_9
REMARK    2  A    between atoms: C_3  and  C_19
REMARK    3  A    between atoms: C_9  and  C_10
REMARK    4  A    between atoms: C_10  and  C_11
REMARK    5  A    between atoms: C_10  and  O_17
REMARK    6  A    between atoms: C_19  and  C_21
REMARK    7  A    between atoms: C_21  and  C_22
REMARK                            x       y       z     vdW  Elec       q    Type
REMARK                         _______ _______ _______ _____ _____    ______ ____
ROOT
ATOM      1  N   UNL     1       0.348  -1.353  -0.385  0.00  0.00    +0.388 N 
ATOM      2  C   UNL     1       1.796  -1.667  -0.352  0.00  0.00    -0.055 C 
ATOM      3  C   UNL     1      -0.311  -1.892   0.828  0.00  0.00    -0.050 C 
ATOM      4  C   UNL     1       2.077  -3.175  -0.238  0.00  0.00    -0.021 C 
ATOM      5  C   UNL     1      -0.114  -3.410   0.988  0.00  0.00    -0.020 C 
ATOM      6  C   UNL     1       1.365  -3.783   0.967  0.00  0.00    -0.004 C 
ATOM      7  C   UNL     1      -0.310  -1.736  -1.635  0.00  0.00    -0.100 C 
ATOM      8  H   UNL     1       0.249  -0.338  -0.368  0.00  0.00    -0.080 HD
ENDROOT
BRANCH   2   9
ATOM      9  C   UNL     1       2.580  -1.060  -1.522  0.00  0.00    +0.013 C 
BRANCH   9  10
ATOM     10  C   UNL     1       2.359   0.446  -1.663  0.00  0.00    +0.131 C 
BRANCH  10  11
ATOM     11  C   UNL     1       2.769   1.246  -0.449  0.00  0.00    +0.004 C 
ATOM     12  C   UNL     1       2.104   2.426  -0.159  0.00  0.00    -0.002 C 
ATOM     13  C   UNL     1       3.800   0.783   0.352  0.00  0.00    -0.002 C 
ATOM     14  C   UNL     1       2.482   3.165   0.963  0.00  0.00    -0.000 C 
ATOM     15  C   UNL     1       4.179   1.522   1.473  0.00  0.00    -0.000 C 
ATOM     16  C   UNL     1       3.519   2.712   1.778  0.00  0.00    -0.000 C 
ENDBRANCH  10  11
BRANCH  10  17
ATOM     17  O   UNL     1       3.123   0.912  -2.777  0.00  0.00    -0.380 OA
ATOM     18  H   UNL     1       2.877   0.412  -3.571  0.00  0.00    +0.211 HD
ENDBRANCH  10  17
ENDBRANCH   9  10
ENDBRANCH   2   9
BRANCH   3  19
ATOM     19  C   UNL     1      -1.797  -1.529   0.928  0.00  0.00    +0.048 C 
BRANCH  19  21
ATOM     20  O   UNL     1      -1.177   0.772   1.292  0.00  0.00    -0.291 OA
ATOM     21  C   UNL     1      -2.012  -0.031   0.881  0.00  0.00    +0.171 C 
BRANCH  21  22
ATOM     22  C   UNL     1      -3.293   0.478   0.310  0.00  0.00    +0.035 C 
ATOM     23  C   UNL     1      -4.423  -0.299   0.430  0.00  0.00    +0.003 C 
ATOM     24  C   UNL     1      -3.296   1.704  -0.315  0.00  0.00    +0.003 C 
ATOM     25  C   UNL     1      -5.621   0.176  -0.104  0.00  0.00    +0.000 C 
ATOM     26  C   UNL     1      -4.493   2.179  -0.849  0.00  0.00    +0.000 C 
ATOM     27  C   UNL     1      -5.656   1.415  -0.743  0.00  0.00    +0.000 C 
ENDBRANCH  21  22
ENDBRANCH  19  21
ENDBRANCH   3  19
TORSDOF 7
