REMARK  Name = 9939865
REMARK  5 active torsions:
REMARK  status: ('A' for Active; 'I' for Inactive)
REMARK    1  A    between atoms: C_1  and  C_9
REMARK    2  A    between atoms: C_1  and  C_19
REMARK    3  A    between atoms: C_1  and  N_26
REMARK    4  A    between atoms: N_3  and  C_12
REMARK    5  A    between atoms: C_27  and  C_30
REMARK                            x       y       z     vdW  Elec       q    Type
REMARK                         _______ _______ _______ _____ _____    ______ ____
ROOT
ATOM      1  C   UNL     1       0.790  -0.683   0.323  0.00  0.00    +0.172 C 
ENDROOT
BRANCH   1   9
ATOM      2  O   UNL     1       0.548   0.382  -1.780  0.00  0.00    -0.273 OA
ATOM      3  N   UNL     1      -4.066   0.897   0.003  0.00  0.00    +0.390 N 
ATOM      4  N   UNL     1      -1.236   0.580  -0.306  0.00  0.00    -0.282 N 
ATOM      5  C   UNL     1      -3.437   1.059  -1.316  0.00  0.00    -0.055 C 
ATOM      6  C   UNL     1      -3.338  -0.100   0.802  0.00  0.00    -0.055 C 
ATOM      7  C   UNL     1      -1.980   1.495  -1.170  0.00  0.00    +0.071 C 
ATOM      8  C   UNL     1      -1.875   0.309   0.986  0.00  0.00    +0.071 C 
ATOM      9  C   UNL     1       0.031   0.141  -0.686  0.00  0.00    +0.248 C 
ATOM     10  H   UNL     1      -4.028   1.792   0.491  0.00  0.00    -0.079 HD
BRANCH   3  12
ATOM     11  N   UNL     1      -8.302   1.106   0.289  0.00  0.00    +0.385 N 
ATOM     12  C   UNL     1      -5.469   0.513  -0.141  0.00  0.00    -0.062 C 
ATOM     13  C   UNL     1      -6.221   1.555  -0.974  0.00  0.00    -0.044 C 
ATOM     14  C   UNL     1      -6.138   0.356   1.227  0.00  0.00    -0.044 C 
ATOM     15  C   UNL     1      -7.713   1.221  -1.052  0.00  0.00    -0.080 C 
ATOM     16  C   UNL     1      -7.633   0.062   1.077  0.00  0.00    -0.080 C 
ATOM     17  C   UNL     1      -9.736   0.837   0.197  0.00  0.00    -0.101 C 
ATOM     18  H   UNL     1      -8.166   1.996   0.769  0.00  0.00    -0.080 HD
ENDBRANCH   3  12
ENDBRANCH   1   9
BRANCH   1  19
ATOM     19  C   UNL     1       0.549  -2.154   0.138  0.00  0.00    +0.004 C 
ATOM     20  C   UNL     1       0.603  -3.003   1.238  0.00  0.00    -0.002 C 
ATOM     21  C   UNL     1       0.275  -2.651  -1.130  0.00  0.00    -0.002 C 
ATOM     22  C   UNL     1       0.379  -4.369   1.066  0.00  0.00    -0.000 C 
ATOM     23  C   UNL     1       0.050  -4.017  -1.302  0.00  0.00    -0.000 C 
ATOM     24  C   UNL     1       0.102  -4.876  -0.204  0.00  0.00    -0.000 C 
ENDBRANCH   1  19
BRANCH   1  26
ATOM     25  O   UNL     1       2.091   1.578   1.521  0.00  0.00    -0.270 OA
ATOM     26  N   UNL     1       2.167  -0.307   0.171  0.00  0.00    -0.291 N 
ATOM     27  C   UNL     1       2.715   0.811   0.792  0.00  0.00    +0.246 C 
ATOM     28  H   UNL     1       2.748  -0.863  -0.396  0.00  0.00    +0.150 HD
BRANCH  27  30
ATOM     29  N   UNL     1       7.350  -0.521  -0.419  0.00  0.00    -0.312 N 
ATOM     30  C   UNL     1       4.149   1.080   0.513  0.00  0.00    +0.055 C 
ATOM     31  C   UNL     1       4.963   0.012   0.184  0.00  0.00    +0.019 C 
ATOM     32  C   UNL     1       4.602   2.379   0.594  0.00  0.00    +0.005 C 
ATOM     33  C   UNL     1       6.307   0.308  -0.073  0.00  0.00    +0.048 C 
ATOM     34  C   UNL     1       6.818   1.606  -0.005  0.00  0.00    +0.015 C 
ATOM     35  C   UNL     1       5.949   2.661   0.335  0.00  0.00    +0.001 C 
ATOM     36  C   UNL     1       8.203   1.526  -0.324  0.00  0.00    +0.017 C 
ATOM     37  C   UNL     1       8.500   0.206  -0.573  0.00  0.00    +0.062 C 
ATOM     38  H   UNL     1       7.279  -1.495  -0.539  0.00  0.00    +0.152 HD
ENDBRANCH  27  30
ENDBRANCH   1  26
TORSDOF 5
