REMARK  Name = 153948
REMARK  2 active torsions:
REMARK  status: ('A' for Active; 'I' for Inactive)
REMARK    1  A    between atoms: N_6  and  C_19
REMARK    2  A    between atoms: C_19  and  C_22
REMARK                            x       y       z     vdW  Elec       q    Type
REMARK                         _______ _______ _______ _____ _____    ______ ____
ROOT
ATOM      1  O   UNL     1       0.386   1.188   1.921  0.00  0.00    -0.272 OA
ATOM      2  O   UNL     1       3.583   0.898   1.696  0.00  0.00    -0.272 OA
ATOM      3  O   UNL     1       2.148   3.469  -1.834  0.00  0.00    -0.275 OA
ATOM      4  O   UNL     1      -0.378  -3.124   0.372  0.00  0.00    -0.268 OA
ATOM      5  N   UNL     1       2.269  -0.828  -0.405  0.00  0.00    -0.270 N 
ATOM      6  N   UNL     1      -0.116  -0.905   1.035  0.00  0.00    -0.219 N 
ATOM      7  N   UNL     1       3.087   2.398  -0.002  0.00  0.00    -0.254 N 
ATOM      8  C   UNL     1       1.783   0.451   0.108  0.00  0.00    +0.209 C 
ATOM      9  C   UNL     1       1.287   1.350  -1.048  0.00  0.00    +0.122 C 
ATOM     10  C   UNL     1       0.634   0.284   1.116  0.00  0.00    +0.257 C 
ATOM     11  C   UNL     1       2.928   1.244   0.722  0.00  0.00    +0.254 C 
ATOM     12  C   UNL     1       1.549  -1.989  -0.310  0.00  0.00    +0.107 C 
ATOM     13  C   UNL     1       2.205   2.541  -1.041  0.00  0.00    +0.231 C 
ATOM     14  C   UNL     1       0.280  -2.084   0.363  0.00  0.00    +0.269 C 
ATOM     15  C   UNL     1       3.422  -1.047  -1.114  0.00  0.00    +0.066 C 
ATOM     16  C   UNL     1       2.271  -2.972  -0.961  0.00  0.00    +0.021 C 
ATOM     17  C   UNL     1       3.453  -2.378  -1.464  0.00  0.00    +0.018 C 
ATOM     18  H   UNL     1       3.777   3.068   0.207  0.00  0.00    +0.158 HD
ENDROOT
BRANCH   6  19
ATOM     19  C   UNL     1      -1.413  -0.922   1.702  0.00  0.00    +0.130 C 
BRANCH  19  22
ATOM     20 BR   UNL     1      -5.952   0.941  -2.041  0.00  0.00    -0.049 Br
ATOM     21  F   UNL     1      -2.203   1.781   1.485  0.00  0.00    -0.204 F 
ATOM     22  C   UNL     1      -2.520  -0.466   0.789  0.00  0.00    +0.026 C 
ATOM     23  C   UNL     1      -2.853   0.880   0.736  0.00  0.00    +0.138 C 
ATOM     24  C   UNL     1      -3.192  -1.400   0.013  0.00  0.00    +0.000 C 
ATOM     25  C   UNL     1      -3.879   1.301  -0.111  0.00  0.00    +0.036 C 
ATOM     26  C   UNL     1      -4.218  -0.980  -0.833  0.00  0.00    +0.007 C 
ATOM     27  C   UNL     1      -4.562   0.371  -0.895  0.00  0.00    +0.037 C 
ENDBRANCH  19  22
ENDBRANCH   6  19
TORSDOF 2
