REMARK  Name = 6421776
REMARK  3 active torsions:
REMARK  status: ('A' for Active; 'I' for Inactive)
REMARK    1  A    between atoms: C_4  and  C_14
REMARK    2  A    between atoms: C_6  and  C_9
REMARK    3  A    between atoms: C_14  and  N_15
REMARK                            x       y       z     vdW  Elec       q    Type
REMARK                         _______ _______ _______ _____ _____    ______ ____
ROOT
ATOM      1  O   UNL     1       0.185   2.422   0.227  0.00  0.00    -0.257 OA
ATOM      2  N   UNL     1       0.661  -0.338   0.222  0.00  0.00    -0.254 NA
ATOM      3  N   UNL     1       1.450   1.902  -0.024  0.00  0.00    -0.247 N 
ATOM      4  C   UNL     1      -0.701   0.214   0.276  0.00  0.00    +0.117 C 
ATOM      5  C   UNL     1      -0.755   1.567  -0.420  0.00  0.00    +0.196 C 
ATOM      6  C   UNL     1       1.615   0.533   0.088  0.00  0.00    +0.157 C 
ATOM      7  H   UNL     1       2.201   2.488  -0.271  0.00  0.00    +0.196 HD
ENDROOT
BRANCH   6   9
ATOM      8  N   UNL     1       4.584  -1.708   0.691  0.00  0.00    -0.242 NA
ATOM      9  C   UNL     1       3.013  -0.007   0.033  0.00  0.00    +0.054 C 
ATOM     10  C   UNL     1       3.996   0.652  -0.685  0.00  0.00    +0.006 C 
ATOM     11  C   UNL     1       3.345  -1.169   0.699  0.00  0.00    +0.102 C 
ATOM     12  C   UNL     1       5.284   0.128  -0.716  0.00  0.00    +0.021 C 
ATOM     13  C   UNL     1       5.524  -1.044  -0.018  0.00  0.00    +0.099 C 
ENDBRANCH   6   9
BRANCH   4  14
ATOM     14  C   UNL     1      -1.650  -0.782  -0.374  0.00  0.00    -0.050 C 
BRANCH  14  15
ATOM     15  N   UNL     1      -3.030  -0.299  -0.337  0.00  0.00    +0.388 N 
ATOM     16  C   UNL     1      -3.477  -0.125   1.052  0.00  0.00    -0.077 C 
ATOM     17  C   UNL     1      -3.915  -1.216  -1.069  0.00  0.00    -0.077 C 
ATOM     18  C   UNL     1      -4.902   0.427   1.108  0.00  0.00    -0.023 C 
ATOM     19  C   UNL     1      -5.355  -0.700  -1.083  0.00  0.00    -0.023 C 
ATOM     20  C   UNL     1      -5.870  -0.458   0.331  0.00  0.00    -0.004 C 
ATOM     21  H   UNL     1      -3.070   0.611  -0.797  0.00  0.00    -0.080 HD
ENDBRANCH  14  15
ENDBRANCH   4  14
TORSDOF 3
