REMARK  Name = 192711
REMARK  5 active torsions:
REMARK  status: ('A' for Active; 'I' for Inactive)
REMARK    1  A    between atoms: N_1  and  C_17
REMARK    2  A    between atoms: N_2  and  C_4
REMARK    3  A    between atoms: N_2  and  C_9
REMARK    4  A    between atoms: C_12  and  S_15
REMARK    5  A    between atoms: C_20  and  S_23
REMARK                            x       y       z     vdW  Elec       q    Type
REMARK                         _______ _______ _______ _____ _____    ______ ____
ROOT
ATOM      1  N   UNL     1       1.643   1.696   0.717  0.00  0.00    -0.297 N 
ATOM      2  N   UNL     1      -0.479   2.131   1.644  0.00  0.00    -0.369 N 
ATOM      3  C   UNL     1       0.247   1.499   0.647  0.00  0.00    +0.203 C 
ATOM      4  C   UNL     1       2.275   2.868   1.333  0.00  0.00    +0.133 C 
ATOM      5  H   UNL     1      -0.017   2.683   2.315  0.00  0.00    +0.159 HD
ATOM      6  H   UNL     1      -1.458   2.029   1.681  0.00  0.00    +0.159 HD
ENDROOT
BRANCH   1   7
ATOM      7  C   UNL     1       2.567   0.707   0.276  0.00  0.00    +0.063 C 
ATOM      8  C   UNL     1       2.222  -0.635   0.355  0.00  0.00    +0.023 C 
ATOM      9  C   UNL     1       3.800   1.099  -0.227  0.00  0.00    +0.017 C 
ATOM     10  C   UNL     1       3.128  -1.604  -0.077  0.00  0.00    +0.027 C 
ATOM     11  C   UNL     1       4.706   0.130  -0.659  0.00  0.00    +0.002 C 
ATOM     12  C   UNL     1       4.370  -1.222  -0.584  0.00  0.00    +0.006 C 
BRANCH  10  13
ATOM     13  S   UNL     1       2.699  -3.332   0.019  0.00  0.00    -0.113 S 
ATOM     14  C   UNL     1       1.220  -3.403  -1.032  0.00  0.00    +0.074 C 
ENDBRANCH  10  13
ENDBRANCH   1   7
BRANCH   3  15
ATOM     15  N   UNL     1      -0.297   0.744  -0.287  0.00  0.00    -0.213 NA
BRANCH  15  17
ATOM     16 CL   UNL     1      -1.866   2.751  -1.934  0.00  0.00    -0.081 Cl
ATOM     17  C   UNL     1      -1.687   0.563  -0.318  0.00  0.00    +0.095 C 
ATOM     18  C   UNL     1      -2.239  -0.503   0.392  0.00  0.00    +0.026 C 
ATOM     19  C   UNL     1      -2.514   1.422  -1.042  0.00  0.00    +0.075 C 
ATOM     20  C   UNL     1      -3.618  -0.709   0.380  0.00  0.00    +0.027 C 
ATOM     21  C   UNL     1      -3.893   1.215  -1.054  0.00  0.00    +0.013 C 
ATOM     22  C   UNL     1      -4.445   0.150  -0.344  0.00  0.00    +0.007 C 
BRANCH  20  23
ATOM     23  S   UNL     1      -4.325  -2.071   1.287  0.00  0.00    -0.113 S 
ATOM     24  C   UNL     1      -3.513  -3.495   0.508  0.00  0.00    +0.074 C 
ENDBRANCH  20  23
ENDBRANCH  15  17
ENDBRANCH   3  15
TORSDOF 5
