REMARK  Name = 10345214
REMARK  13 active torsions:
REMARK  status: ('A' for Active; 'I' for Inactive)
REMARK    1  A    between atoms: C_1  and  O_2
REMARK    2  A    between atoms: C_1  and  C_4
REMARK    3  A    between atoms: C_1  and  C_21
REMARK    4  A    between atoms: C_4  and  N_5
REMARK    5  A    between atoms: N_5  and  C_8
REMARK    6  A    between atoms: C_8  and  C_11
REMARK    7  A    between atoms: C_11  and  C_12
REMARK    8  A    between atoms: C_21  and  O_22
REMARK    9  A    between atoms: O_22  and  C_25
REMARK   10  A    between atoms: C_27  and  C_31
REMARK   11  A    between atoms: C_31  and  C_32
REMARK   12  A    between atoms: C_32  and  C_34
REMARK   13  A    between atoms: C_34  and  O_35
REMARK                            x       y       z     vdW  Elec       q    Type
REMARK                         _______ _______ _______ _____ _____    ______ ____
ROOT
ATOM      1  C   UNL     1       4.184  -0.876   0.489  0.00  0.00    +0.133 C 
ENDROOT
BRANCH   1   2
ATOM      2  O   UNL     1       5.389  -0.458  -0.158  0.00  0.00    -0.383 OA
ATOM      3  H   UNL     1       5.903  -1.237  -0.421  0.00  0.00    +0.210 HD
ENDBRANCH   1   2
BRANCH   1   4
ATOM      4  C   UNL     1       3.422  -1.796  -0.468  0.00  0.00    -0.048 C 
BRANCH   4   5
ATOM      5  N   UNL     1       2.159  -2.242   0.093  0.00  0.00    +0.388 N 
ATOM      6  H   UNL     1       2.337  -2.750   0.959  0.00  0.00    -0.084 HD
ATOM      7  H   UNL     1       1.573  -1.427   0.277  0.00  0.00    -0.084 HD
BRANCH   5   8
ATOM      8  C   UNL     1       1.460  -3.125  -0.850  0.00  0.00    -0.046 C 
ATOM      9  C   UNL     1       1.205  -2.346  -2.151  0.00  0.00    -0.022 C 
ATOM     10  C   UNL     1       2.367  -4.326  -1.150  0.00  0.00    -0.022 C 
BRANCH   8  11
ATOM     11  C   UNL     1       0.103  -3.562  -0.258  0.00  0.00    -0.019 C 
BRANCH  11  12
ATOM     12  C   UNL     1      -0.849  -2.427   0.085  0.00  0.00    +0.007 C 
ATOM     13  C   UNL     1      -0.286  -1.487   1.172  0.00  0.00    +0.026 C 
ATOM     14  C   UNL     1      -2.211  -2.932   0.608  0.00  0.00    +0.026 C 
ATOM     15  C   UNL     1      -1.545  -0.973   1.797  0.00  0.00    -0.026 C 
ATOM     16  C   UNL     1      -2.634  -1.790   1.478  0.00  0.00    -0.026 C 
ATOM     17  C   UNL     1      -1.695   0.125   2.629  0.00  0.00    -0.005 C 
ATOM     18  C   UNL     1      -3.896  -1.528   1.984  0.00  0.00    -0.005 C 
ATOM     19  C   UNL     1      -2.966   0.404   3.134  0.00  0.00    -0.000 C 
ATOM     20  C   UNL     1      -4.059  -0.417   2.813  0.00  0.00    -0.000 C 
ENDBRANCH  11  12
ENDBRANCH   8  11
ENDBRANCH   5   8
ENDBRANCH   4   5
ENDBRANCH   1   4
BRANCH   1  21
ATOM     21  C   UNL     1       3.392   0.365   0.894  0.00  0.00    +0.232 C 
BRANCH  21  22
ATOM     22  O   UNL     1       3.110   1.131  -0.273  0.00  0.00    -0.471 OA
BRANCH  22  25
ATOM     23  F   UNL     1       2.689   3.073   1.632  0.00  0.00    -0.199 F 
ATOM     24  F   UNL     1       0.375   4.518   1.640  0.00  0.00    -0.202 F 
ATOM     25  C   UNL     1       1.949   1.858  -0.266  0.00  0.00    +0.168 C 
ATOM     26  C   UNL     1       0.977   1.610  -1.229  0.00  0.00    +0.035 C 
ATOM     27  C   UNL     1      -0.205   2.350  -1.224  0.00  0.00    -0.016 C 
ATOM     28  C   UNL     1       1.753   2.836   0.703  0.00  0.00    +0.201 C 
ATOM     29  C   UNL     1      -0.409   3.332  -0.254  0.00  0.00    +0.028 C 
ATOM     30  C   UNL     1       0.570   3.575   0.709  0.00  0.00    +0.170 C 
BRANCH  27  31
ATOM     31  C   UNL     1      -1.253   2.089  -2.252  0.00  0.00    +0.038 C 
BRANCH  31  32
ATOM     32  C   UNL     1      -2.277   1.027  -1.835  0.00  0.00    +0.114 C 
BRANCH  32  34
ATOM     33  O   UNL     1      -3.287   1.344  -4.006  0.00  0.00    -0.250 OA
ATOM     34  C   UNL     1      -3.294   0.775  -2.922  0.00  0.00    +0.314 C 
BRANCH  34  35
ATOM     35  O   UNL     1      -4.237  -0.130  -2.563  0.00  0.00    -0.480 OA
ATOM     36  H   UNL     1      -4.198  -0.538  -1.721  0.00  0.00    +0.295 HD
ENDBRANCH  34  35
ENDBRANCH  32  34
ENDBRANCH  31  32
ENDBRANCH  27  31
ENDBRANCH  22  25
ENDBRANCH  21  22
ENDBRANCH   1  21
TORSDOF 13
