REMARK  Name = 71613
REMARK  1 active torsions:
REMARK  status: ('A' for Active; 'I' for Inactive)
REMARK    1  A    between atoms: C_20  and  O_22
REMARK                            x       y       z     vdW  Elec       q    Type
REMARK                         _______ _______ _______ _____ _____    ______ ____
ROOT
ATOM      1 BR   UNL     1      -4.760   1.650  -1.735  0.00  0.00    -0.074 Br
ATOM      2  O   UNL     1      -4.760  -1.335  -0.538  0.00  0.00    -0.295 OA
ATOM      3  C   UNL     1       0.376  -0.465  -0.258  0.00  0.00    +0.000 C 
ATOM      4  C   UNL     1       1.894  -0.435   0.153  0.00  0.00    +0.000 C 
ATOM      5  C   UNL     1      -0.453   0.633   0.490  0.00  0.00    +0.000 C 
ATOM      6  C   UNL     1      -1.899   0.560  -0.009  0.00  0.00    +0.008 C 
ATOM      7  C   UNL     1       2.425   1.008  -0.126  0.00  0.00    +0.002 C 
ATOM      8  C   UNL     1      -2.538  -0.811   0.293  0.00  0.00    +0.052 C 
ATOM      9  C   UNL     1      -0.289  -1.866  -0.169  0.00  0.00    +0.000 C 
ATOM     10  C   UNL     1       0.152   2.028   0.278  0.00  0.00    +0.000 C 
ATOM     11  C   UNL     1      -1.790  -1.864  -0.517  0.00  0.00    +0.007 C 
ATOM     12  C   UNL     1       1.636   2.080   0.635  0.00  0.00    +0.000 C 
ATOM     13  C   UNL     1       2.720  -1.420  -0.723  0.00  0.00    +0.002 C 
ATOM     14  C   UNL     1      -2.928   1.576   0.487  0.00  0.00    +0.019 C 
ATOM     15  C   UNL     1       3.933   1.147   0.114  0.00  0.00    +0.029 C 
ATOM     16  C   UNL     1       2.070  -0.841   1.640  0.00  0.00    +0.000 C 
ATOM     17  C   UNL     1      -3.959  -0.497  -0.145  0.00  0.00    +0.160 C 
ATOM     18  C   UNL     1      -4.261   0.983   0.013  0.00  0.00    +0.114 C 
ATOM     19  C   UNL     1       4.232  -1.285  -0.535  0.00  0.00    +0.029 C 
ATOM     20  C   UNL     1       4.718   0.147  -0.734  0.00  0.00    +0.111 C 
ATOM     21  C   UNL     1      -2.617  -1.203   1.781  0.00  0.00    +0.007 C 
ENDROOT
BRANCH  20  22
ATOM     22  O   UNL     1       6.099   0.210  -0.393  0.00  0.00    -0.384 OA
ATOM     23  H   UNL     1       6.421   1.117  -0.516  0.00  0.00    +0.210 HD
ENDBRANCH  20  22
TORSDOF 1
