3038506
  -OEChem-10051720483D

 64 67  0     1  0  0  0  0  0999 V2000
   -2.0274   -2.5330   -2.0071 Cl  0  0  0  0  0  0  0  0  0  0  0  0
    0.3700    0.0663   -1.9006 O   0  0  0  0  0  0  0  0  0  0  0  0
    4.8630    1.7736    1.5138 O   0  0  0  0  0  0  0  0  0  0  0  0
    0.6386   -1.1279    0.1094 N   0  0  0  0  0  0  0  0  0  0  0  0
   -5.5656    0.4879    0.0515 N   0  0  0  0  0  0  0  0  0  0  0  0
    3.3320    2.1870   -0.1849 N   0  0  0  0  0  0  0  0  0  0  0  0
    2.7910   -0.3836    2.1128 C   0  0  1  0  0  0  0  0  0  0  0  0
    1.7359   -0.9687    3.0598 C   0  0  0  0  0  0  0  0  0  0  0  0
    0.2932   -0.8759    2.5782 C   0  0  0  0  0  0  0  0  0  0  0  0
    3.0150   -1.1863    0.8398 C   0  0  0  0  0  0  0  0  0  0  0  0
    0.0488   -1.7050    1.3287 C   0  0  0  0  0  0  0  0  0  0  0  0
    2.5568    1.0984    1.7953 C   0  0  0  0  0  0  0  0  0  0  0  0
    2.0163   -1.4381   -0.1240 C   0  0  0  0  0  0  0  0  0  0  0  0
   -6.6435   -0.3868   -0.4039 C   0  0  0  0  0  0  0  0  0  0  0  0
   -6.0812    1.6433    0.7818 C   0  0  0  0  0  0  0  0  0  0  0  0
   -7.8708    0.1271    0.3450 C   0  0  0  0  0  0  0  0  0  0  0  0
   -7.5824    1.6098    0.5040 C   0  0  0  0  0  0  0  0  0  0  0  0
    4.3374   -1.5847    0.5528 C   0  0  0  0  0  0  0  0  0  0  0  0
   -4.2275    0.2528   -0.1804 C   0  0  0  0  0  0  0  0  0  0  0  0
   -0.0859   -0.4295   -0.8707 C   0  0  0  0  0  0  0  0  0  0  0  0
    2.3685   -2.0438   -1.3458 C   0  0  0  0  0  0  0  0  0  0  0  0
    3.7247    1.7113    1.0576 C   0  0  0  0  0  0  0  0  0  0  0  0
   -1.5219   -0.2211   -0.6491 C   0  0  0  0  0  0  0  0  0  0  0  0
    4.6671   -2.2029   -0.6530 C   0  0  0  0  0  0  0  0  0  0  0  0
    3.6832   -2.4257   -1.6059 C   0  0  0  0  0  0  0  0  0  0  0  0
   -3.8306   -0.8808   -0.8899 C   0  0  0  0  0  0  0  0  0  0  0  0
   -3.2701    1.1491    0.2945 C   0  0  0  0  0  0  0  0  0  0  0  0
   -2.4762   -1.1178   -1.1246 C   0  0  0  0  0  0  0  0  0  0  0  0
   -1.9158    0.9119    0.0599 C   0  0  0  0  0  0  0  0  0  0  0  0
    4.2404    2.8269   -1.1087 C   0  0  0  0  0  0  0  0  0  0  0  0
    4.9119    1.7915   -2.0022 C   0  0  0  0  0  0  0  0  0  0  0  0
    3.5051    3.8746   -1.9343 C   0  0  0  0  0  0  0  0  0  0  0  0
    3.7270   -0.4327    2.6894 H   0  0  0  0  0  0  0  0  0  0  0  0
    1.8016   -0.4402    4.0199 H   0  0  0  0  0  0  0  0  0  0  0  0
    1.9792   -2.0180    3.2737 H   0  0  0  0  0  0  0  0  0  0  0  0
   -0.3513   -1.2626    3.3776 H   0  0  0  0  0  0  0  0  0  0  0  0
   -0.0023    0.1666    2.4221 H   0  0  0  0  0  0  0  0  0  0  0  0
   -1.0305   -1.8208    1.1996 H   0  0  0  0  0  0  0  0  0  0  0  0
    0.4373   -2.7244    1.4542 H   0  0  0  0  0  0  0  0  0  0  0  0
    2.4433    1.6652    2.7282 H   0  0  0  0  0  0  0  0  0  0  0  0
    1.6271    1.2463    1.2364 H   0  0  0  0  0  0  0  0  0  0  0  0
   -6.4773   -1.4393   -0.1508 H   0  0  0  0  0  0  0  0  0  0  0  0
   -6.7801   -0.2867   -1.4866 H   0  0  0  0  0  0  0  0  0  0  0  0
   -5.6665    2.5934    0.4287 H   0  0  0  0  0  0  0  0  0  0  0  0
   -5.8828    1.5323    1.8538 H   0  0  0  0  0  0  0  0  0  0  0  0
   -7.9355   -0.3476    1.3318 H   0  0  0  0  0  0  0  0  0  0  0  0
   -8.8023   -0.0712   -0.1921 H   0  0  0  0  0  0  0  0  0  0  0  0
   -8.1663    2.0749    1.3030 H   0  0  0  0  0  0  0  0  0  0  0  0
   -7.8034    2.1348   -0.4333 H   0  0  0  0  0  0  0  0  0  0  0  0
    5.1364   -1.3936    1.2663 H   0  0  0  0  0  0  0  0  0  0  0  0
    1.6125   -2.2622   -2.0970 H   0  0  0  0  0  0  0  0  0  0  0  0
    5.6939   -2.4961   -0.8502 H   0  0  0  0  0  0  0  0  0  0  0  0
    3.9344   -2.9035   -2.5480 H   0  0  0  0  0  0  0  0  0  0  0  0
   -4.5558   -1.5907   -1.2781 H   0  0  0  0  0  0  0  0  0  0  0  0
   -3.5336    2.0390    0.8581 H   0  0  0  0  0  0  0  0  0  0  0  0
   -1.1786    1.6169    0.4359 H   0  0  0  0  0  0  0  0  0  0  0  0
    2.3816    2.0244   -0.5049 H   0  0  0  0  0  0  0  0  0  0  0  0
    5.0191    3.3316   -0.5241 H   0  0  0  0  0  0  0  0  0  0  0  0
    4.1724    1.2332   -2.5872 H   0  0  0  0  0  0  0  0  0  0  0  0
    5.6104    2.2676   -2.6980 H   0  0  0  0  0  0  0  0  0  0  0  0
    5.4738    1.0651   -1.4051 H   0  0  0  0  0  0  0  0  0  0  0  0
    2.7087    3.4212   -2.5352 H   0  0  0  0  0  0  0  0  0  0  0  0
    4.1916    4.3918   -2.6125 H   0  0  0  0  0  0  0  0  0  0  0  0
    3.0409    4.6248   -1.2847 H   0  0  0  0  0  0  0  0  0  0  0  0
  1 28  1  0  0  0  0
  2 20  2  0  0  0  0
  3 22  2  0  0  0  0
  4 11  1  0  0  0  0
  4 13  1  0  0  0  0
  4 20  1  0  0  0  0
  5 14  1  0  0  0  0
  5 15  1  0  0  0  0
  5 19  1  0  0  0  0
  6 22  1  0  0  0  0
  6 30  1  0  0  0  0
  6 57  1  0  0  0  0
  7  8  1  0  0  0  0
  7 10  1  0  0  0  0
  7 12  1  0  0  0  0
  7 33  1  0  0  0  0
  8  9  1  0  0  0  0
  8 34  1  0  0  0  0
  8 35  1  0  0  0  0
  9 11  1  0  0  0  0
  9 36  1  0  0  0  0
  9 37  1  0  0  0  0
 10 13  1  0  0  0  0
 10 18  2  0  0  0  0
 11 38  1  0  0  0  0
 11 39  1  0  0  0  0
 12 22  1  0  0  0  0
 12 40  1  0  0  0  0
 12 41  1  0  0  0  0
 13 21  2  0  0  0  0
 14 16  1  0  0  0  0
 14 42  1  0  0  0  0
 14 43  1  0  0  0  0
 15 17  1  0  0  0  0
 15 44  1  0  0  0  0
 15 45  1  0  0  0  0
 16 17  1  0  0  0  0
 16 46  1  0  0  0  0
 16 47  1  0  0  0  0
 17 48  1  0  0  0  0
 17 49  1  0  0  0  0
 18 24  1  0  0  0  0
 18 50  1  0  0  0  0
 19 26  2  0  0  0  0
 19 27  1  0  0  0  0
 20 23  1  0  0  0  0
 21 25  1  0  0  0  0
 21 51  1  0  0  0  0
 23 28  2  0  0  0  0
 23 29  1  0  0  0  0
 24 25  2  0  0  0  0
 24 52  1  0  0  0  0
 25 53  1  0  0  0  0
 26 28  1  0  0  0  0
 26 54  1  0  0  0  0
 27 29  2  0  0  0  0
 27 55  1  0  0  0  0
 29 56  1  0  0  0  0
 30 31  1  0  0  0  0
 30 32  1  0  0  0  0
 30 58  1  0  0  0  0
 31 59  1  0  0  0  0
 31 60  1  0  0  0  0
 31 61  1  0  0  0  0
 32 62  1  0  0  0  0
 32 63  1  0  0  0  0
 32 64  1  0  0  0  0
M  END
> <DATABASE_ID>
DB05838

> <DATABASE_NAME>
drugbank

> <ORIGINAL_SOURCE>
PUBCHEM

> <ORIGINAL_SOURCE_URL>
https://pubchem.ncbi.nlm.nih.gov/rest/pug/compound/inchikey/INGXCNVWWKKWOO-LJQANCHMSA-N/SDF?record_type=3d

> <SMILES>
CC(C)NC(=O)C[C@H]1CCCN(C(=O)C2=C(Cl)C=C(C=C2)N2CCCC2)C2=CC=CC=C12

> <INCHI_IDENTIFIER>
InChI=1S/C26H32ClN3O2/c1-18(2)28-25(31)16-19-8-7-15-30(24-10-4-3-9-21(19)24)26(32)22-12-11-20(17-23(22)27)29-13-5-6-14-29/h3-4,9-12,17-19H,5-8,13-16H2,1-2H3,(H,28,31)/t19-/m1/s1

> <INCHI_KEY>
INGXCNVWWKKWOO-LJQANCHMSA-N

> <FORMULA>
C26H32ClN3O2

> <MOLECULAR_WEIGHT>
454.004

> <EXACT_MASS>
453.21830499

> <JCHEM_ACCEPTOR_COUNT>
3

> <JCHEM_AVERAGE_POLARIZABILITY>
49.91588425978299

> <JCHEM_BIOAVAILABILITY>
1

> <JCHEM_DONOR_COUNT>
1

> <JCHEM_FORMAL_CHARGE>
0

> <JCHEM_GHOSE_FILTER>
0

> <JCHEM_IUPAC>
2-[(5R)-1-[2-chloro-4-(pyrrolidin-1-yl)benzoyl]-2,3,4,5-tetrahydro-1H-1-benzazepin-5-yl]-N-(propan-2-yl)acetamide

> <ALOGPS_LOGP>
5.00

> <JCHEM_LOGP>
4.5775709560000015

> <ALOGPS_LOGS>
-5.07

> <JCHEM_MDDR_LIKE_RULE>
0

> <JCHEM_NUMBER_OF_RINGS>
4

> <JCHEM_PHYSIOLOGICAL_CHARGE>
0

> <JCHEM_PKA_STRONGEST_ACIDIC>
14.809231808652033

> <JCHEM_PKA_STRONGEST_BASIC>
1.5723583536326466

> <JCHEM_POLAR_SURFACE_AREA>
52.650000000000006

> <JCHEM_REFRACTIVITY>
130.69470000000004

> <JCHEM_ROTATABLE_BOND_COUNT>
5

> <JCHEM_RULE_OF_FIVE>
1

> <ALOGPS_SOLUBILITY>
3.85e-03 g/l

> <JCHEM_TRADITIONAL_IUPAC>
2-[(5R)-1-[2-chloro-4-(pyrrolidin-1-yl)benzoyl]-2,3,4,5-tetrahydro-1-benzazepin-5-yl]-N-isopropylacetamide

> <JCHEM_VEBER_RULE>
0

> <DRUGBANK_ID>
DB05838

> <DRUG_GROUPS>
investigational

> <GENERIC_NAME>
OPC-51803

$$$$
