REMARK  Name = 54677674
REMARK  7 active torsions:
REMARK  status: ('A' for Active; 'I' for Inactive)
REMARK    1  A    between atoms: N_3  and  C_25
REMARK    2  A    between atoms: C_4  and  C_13
REMARK    3  A    between atoms: C_8  and  O_28
REMARK    4  A    between atoms: N_12  and  C_15
REMARK    5  A    between atoms: C_15  and  C_16
REMARK    6  A    between atoms: C_16  and  C_17
REMARK    7  A    between atoms: C_17  and  N_18
REMARK                            x       y       z     vdW  Elec       q    Type
REMARK                         _______ _______ _______ _____ _____    ______ ____
ROOT
ATOM      1  S   UNL     1       4.343   2.579  -0.230  0.00  0.00    -0.069 S 
ATOM      2  O   UNL     1       3.025  -2.250   0.249  0.00  0.00    -0.267 OA
ATOM      3  N   UNL     1       3.727  -0.043   0.026  0.00  0.00    -0.292 N 
ATOM      4  C   UNL     1       1.288  -0.641   0.175  0.00  0.00    +0.143 A 
ATOM      5  C   UNL     1       3.274   1.270  -0.073  0.00  0.00    +0.095 A 
ATOM      6  C   UNL     1       2.753  -1.050   0.153  0.00  0.00    +0.269 A 
ATOM      7  C   UNL     1       1.960   1.663  -0.056  0.00  0.00    +0.057 A 
ATOM      8  C   UNL     1       0.954   0.663   0.072  0.00  0.00    +0.144 A 
ATOM      9  C   UNL     1       1.820   3.074  -0.175  0.00  0.00    +0.012 C 
ATOM     10  C   UNL     1       3.046   3.699  -0.278  0.00  0.00    +0.037 C 
ENDROOT
BRANCH   4  13
ATOM     11  O   UNL     1       0.229  -2.415   1.293  0.00  0.00    -0.270 OA
ATOM     12  N   UNL     1      -0.616  -1.709  -0.763  0.00  0.00    -0.301 N 
ATOM     13  C   UNL     1       0.254  -1.684   0.309  0.00  0.00    +0.253 C 
ATOM     14  H   UNL     1      -0.482  -1.061  -1.492  0.00  0.00    +0.150 HD
BRANCH  12  15
ATOM     15  C   UNL     1      -1.715  -2.643  -0.863  0.00  0.00    +0.088 C 
BRANCH  15  16
ATOM     16  C   UNL     1      -3.001  -2.104  -0.243  0.00  0.00    -0.002 C 
BRANCH  16  17
ATOM     17  C   UNL     1      -3.486  -0.826  -0.929  0.00  0.00    -0.076 C 
BRANCH  17  18
ATOM     18  N   UNL     1      -4.728  -0.361  -0.311  0.00  0.00    +0.387 N 
ATOM     19  C   UNL     1      -5.465   0.514  -1.234  0.00  0.00    -0.077 C 
ATOM     20  C   UNL     1      -4.445   0.324   0.958  0.00  0.00    -0.077 C 
ATOM     21  C   UNL     1      -6.790   0.970  -0.621  0.00  0.00    -0.023 C 
ATOM     22  C   UNL     1      -5.737   0.774   1.642  0.00  0.00    -0.023 C 
ATOM     23  C   UNL     1      -6.573   1.656   0.722  0.00  0.00    -0.004 C 
ATOM     24  H   UNL     1      -5.315  -1.170  -0.108  0.00  0.00    -0.080 HD
ENDBRANCH  17  18
ENDBRANCH  16  17
ENDBRANCH  15  16
ENDBRANCH  12  15
ENDBRANCH   4  13
BRANCH   3  25
ATOM     25  C   UNL     1       5.153  -0.361  -0.003  0.00  0.00    +0.089 C 
ATOM     26  C   UNL     1       5.475  -1.246  -1.200  0.00  0.00    +0.025 C 
ATOM     27  C   UNL     1       5.580  -1.023   1.302  0.00  0.00    +0.025 C 
ENDBRANCH   3  25
BRANCH   8  28
ATOM     28  O   UNL     1      -0.326   1.172   0.077  0.00  0.00    -0.505 OA
ATOM     29  H   UNL     1      -1.059   0.595   0.157  0.00  0.00    +0.292 HD
ENDBRANCH   8  28
TORSDOF 7
