REMARK  Name = 130021
REMARK  8 active torsions:
REMARK  status: ('A' for Active; 'I' for Inactive)
REMARK    1  A    between atoms: P_1  and  O_3
REMARK    2  A    between atoms: P_1  and  C_5
REMARK    3  A    between atoms: P_1  and  C_9
REMARK    4  A    between atoms: C_5  and  C_6
REMARK    5  A    between atoms: C_6  and  C_7
REMARK    6  A    between atoms: C_9  and  C_10
REMARK    7  A    between atoms: C_10  and  C_11
REMARK    8  A    between atoms: C_11  and  N_12
REMARK                            x       y       z     vdW  Elec       q    Type
REMARK                         _______ _______ _______ _____ _____    ______ ____
ROOT
ATOM      1  P   UNL     1       0.023  -0.440   0.030  0.00  0.00    +0.220 P 
ATOM      2  O   UNL     1       0.000  -1.492   1.083  0.00  0.00    -0.290 OA
ENDROOT
BRANCH   1   3
ATOM      3  O   UNL     1      -0.006  -0.992  -1.483  0.00  0.00    -0.343 OA
ATOM      4  H   UNL     1      -0.759  -1.595  -1.593  0.00  0.00    +0.218 HD
ENDBRANCH   1   3
BRANCH   1   5
ATOM      5  C   UNL     1      -1.421   0.644   0.075  0.00  0.00    +0.087 C 
BRANCH   5   6
ATOM      6  C   UNL     1      -2.748  -0.103   0.052  0.00  0.00    +0.010 C 
BRANCH   6   7
ATOM      7  C   UNL     1      -3.945   0.847   0.032  0.00  0.00    +0.001 C 
ATOM      8  C   UNL     1      -5.260   0.083   0.033  0.00  0.00    +0.000 C 
ENDBRANCH   6   7
ENDBRANCH   5   6
ENDBRANCH   1   5
BRANCH   1   9
ATOM      9  C   UNL     1       1.434   0.629   0.064  0.00  0.00    +0.085 C 
BRANCH   9  10
ATOM     10  C   UNL     1       2.764  -0.113   0.032  0.00  0.00    -0.014 C 
BRANCH  10  11
ATOM     11  C   UNL     1       3.954   0.844   0.054  0.00  0.00    -0.086 C 
BRANCH  11  12
ATOM     12  N   UNL     1       5.205   0.093   0.029  0.00  0.00    +0.380 N 
ATOM     13  H   UNL     1       5.992   0.742   0.044  0.00  0.00    -0.089 HD
ATOM     14  H   UNL     1       5.246  -0.471  -0.820  0.00  0.00    -0.089 HD
ATOM     15  H   UNL     1       5.252  -0.517   0.845  0.00  0.00    -0.089 HD
ENDBRANCH  11  12
ENDBRANCH  10  11
ENDBRANCH   9  10
ENDBRANCH   1   9
TORSDOF 8
