REMARK  Name = 6635
REMARK  3 active torsions:
REMARK  status: ('A' for Active; 'I' for Inactive)
REMARK    1  A    between atoms: S_1  and  C_5
REMARK    2  A    between atoms: S_1  and  O_11
REMARK    3  A    between atoms: O_11  and  C_13
REMARK                            x       y       z     vdW  Elec       q    Type
REMARK                         _______ _______ _______ _____ _____    ______ ____
ROOT
ATOM      1  S   UNL     1      -0.356  -0.519  -0.839  0.00  0.00    +0.051 S 
ATOM      2  O   UNL     1      -0.189  -1.958  -0.757  0.00  0.00    -0.057 OA
ATOM      3  O   UNL     1      -0.157   0.203  -2.081  0.00  0.00    -0.057 OA
ENDROOT
BRANCH   1   5
ATOM      4 CL   UNL     1      -6.249   0.588   0.947  0.00  0.00    -0.082 Cl
ATOM      5  C   UNL     1      -2.021  -0.207  -0.336  0.00  0.00    +0.120 C 
ATOM      6  C   UNL     1      -2.658   0.939  -0.779  0.00  0.00    +0.021 C 
ATOM      7  C   UNL     1      -2.658  -1.114   0.494  0.00  0.00    +0.021 C 
ATOM      8  C   UNL     1      -3.972   1.186  -0.381  0.00  0.00    +0.013 C 
ATOM      9  C   UNL     1      -3.972  -0.868   0.892  0.00  0.00    +0.013 C 
ATOM     10  C   UNL     1      -4.629   0.283   0.455  0.00  0.00    +0.058 C 
ENDBRANCH   1   5
BRANCH   1  11
ATOM     11  O   UNL     1       0.557   0.197   0.319  0.00  0.00    -0.357 OA
BRANCH  11  13
ATOM     12 CL   UNL     1       6.428   0.168   0.276  0.00  0.00    -0.082 Cl
ATOM     13  C   UNL     1       1.918   0.190   0.309  0.00  0.00    +0.172 C 
ATOM     14  C   UNL     1       2.610  -1.020   0.341  0.00  0.00    +0.041 C 
ATOM     15  C   UNL     1       2.621   1.394   0.266  0.00  0.00    +0.041 C 
ATOM     16  C   UNL     1       4.005  -1.027   0.331  0.00  0.00    +0.015 C 
ATOM     17  C   UNL     1       4.016   1.388   0.256  0.00  0.00    +0.015 C 
ATOM     18  C   UNL     1       4.708   0.177   0.288  0.00  0.00    +0.058 C 
ENDBRANCH  11  13
ENDBRANCH   1  11
TORSDOF 3
