REMARK  Name = 5276854
REMARK  6 active torsions:
REMARK  status: ('A' for Active; 'I' for Inactive)
REMARK    1  A    between atoms: C_1  and  N_11
REMARK    2  A    between atoms: C_2  and  N_10
REMARK    3  A    between atoms: N_11  and  C_13
REMARK    4  A    between atoms: C_13  and  C_14
REMARK    5  A    between atoms: C_14  and  C_15
REMARK    6  A    between atoms: C_15  and  N_16
REMARK                            x       y       z     vdW  Elec       q    Type
REMARK                         _______ _______ _______ _____ _____    ______ ____
ROOT
ATOM      1  C   UNL     1       0.289  -0.251  -0.002  0.00  0.00    +0.067 C 
ATOM      2  C   UNL     1       1.364   0.661   0.000  0.00  0.00    +0.156 C 
ATOM      3  C   UNL     1       0.588  -1.627  -0.002  0.00  0.00    +0.016 C 
ATOM      4  C   UNL     1       2.957  -1.155   0.001  0.00  0.00    -0.020 C 
ATOM      5  C   UNL     1       2.685   0.213   0.001  0.00  0.00    +0.021 C 
ATOM      6  C   UNL     1       1.909  -2.075  -0.001  0.00  0.00    -0.003 C 
ATOM      7  C   UNL     1       4.370  -1.635   0.001  0.00  0.00    +0.031 C 
ENDROOT
BRANCH   2  10
ATOM      8  O   UNL     1       2.088   2.850   0.002  0.00  0.00    -0.126 OA
ATOM      9  O   UNL     1      -0.073   2.464  -0.002  0.00  0.00    -0.126 OA
ATOM     10  N   UNL     1       1.114   2.062   0.000  0.00  0.00    +0.059 N 
ENDBRANCH   2  10
BRANCH   1  11
ATOM     11  N   UNL     1      -1.032   0.169  -0.003  0.00  0.00    -0.331 N 
ATOM     12  H   UNL     1      -1.211   1.137  -0.003  0.00  0.00    +0.147 HD
BRANCH  11  13
ATOM     13  C   UNL     1      -2.159  -0.732  -0.003  0.00  0.00    +0.085 C 
BRANCH  13  14
ATOM     14  C   UNL     1      -3.477   0.040   0.007  0.00  0.00    -0.003 C 
BRANCH  14  15
ATOM     15  C   UNL     1      -4.696  -0.885   0.004  0.00  0.00    -0.084 C 
BRANCH  15  16
ATOM     16  N   UNL     1      -5.925  -0.099  -0.004  0.00  0.00    +0.380 N 
ATOM     17  H   UNL     1      -6.730  -0.726  -0.005  0.00  0.00    -0.089 HD
ATOM     18  H   UNL     1      -5.949   0.487  -0.838  0.00  0.00    -0.089 HD
ATOM     19  H   UNL     1      -5.956   0.492   0.827  0.00  0.00    -0.089 HD
ENDBRANCH  15  16
ENDBRANCH  14  15
ENDBRANCH  13  14
ENDBRANCH  11  13
ENDBRANCH   1  11
TORSDOF 6
