REMARK  Name = 6918305
REMARK  2 active torsions:
REMARK  status: ('A' for Active; 'I' for Inactive)
REMARK    1  A    between atoms: C_10  and  C_22
REMARK    2  A    between atoms: C_17  and  O_24
REMARK                            x       y       z     vdW  Elec       q    Type
REMARK                         _______ _______ _______ _____ _____    ______ ____
ROOT
ATOM      1  C   UNL     1      -0.435  -0.347   0.182  0.00  0.00    +0.000 C 
ATOM      2  C   UNL     1       0.306   0.967  -0.230  0.00  0.00    +0.000 C 
ATOM      3  C   UNL     1       1.707   0.953   0.393  0.00  0.00    +0.000 C 
ATOM      4  C   UNL     1      -1.907  -0.389  -0.375  0.00  0.00    +0.000 C 
ATOM      5  C   UNL     1       2.558  -0.253  -0.065  0.00  0.00    +0.007 C 
ATOM      6  C   UNL     1      -2.636   0.893   0.137  0.00  0.00    +0.002 C 
ATOM      7  C   UNL     1       0.408  -1.611  -0.132  0.00  0.00    +0.000 C 
ATOM      8  C   UNL     1       1.849  -1.532   0.402  0.00  0.00    +0.000 C 
ATOM      9  C   UNL     1      -0.486   2.211   0.196  0.00  0.00    +0.000 C 
ATOM     10  C   UNL     1       3.871   0.073   0.680  0.00  0.00    +0.058 C 
ATOM     11  C   UNL     1       2.630   2.145   0.167  0.00  0.00    +0.000 C 
ATOM     12  C   UNL     1      -1.929   2.181  -0.302  0.00  0.00    +0.000 C 
ATOM     13  C   UNL     1      -2.671  -1.620   0.189  0.00  0.00    +0.002 C 
ATOM     14  C   UNL     1       4.025   1.601   0.524  0.00  0.00    +0.007 C 
ATOM     15  C   UNL     1      -4.130   0.922  -0.231  0.00  0.00    +0.027 C 
ATOM     16  C   UNL     1      -1.907  -0.481  -1.923  0.00  0.00    +0.000 C 
ATOM     17  C   UNL     1      -4.872  -0.320   0.288  0.00  0.00    +0.088 C 
ATOM     18  C   UNL     1       2.789  -0.313  -1.598  0.00  0.00    +0.000 C 
ATOM     19  C   UNL     1      -4.170  -1.617  -0.139  0.00  0.00    +0.027 C 
ATOM     20  C   UNL     1      -6.326  -0.310  -0.188  0.00  0.00    +0.029 C 
ENDROOT
BRANCH  10  22
ATOM     21  O   UNL     1       5.760  -0.245  -0.740  0.00  0.00    -0.296 OA
ATOM     22  C   UNL     1       5.068  -0.675   0.181  0.00  0.00    +0.151 C 
ATOM     23  C   UNL     1       5.383  -1.979   0.863  0.00  0.00    +0.072 C 
ENDBRANCH  10  22
BRANCH  17  24
ATOM     24  O   UNL     1      -4.884  -0.255   1.719  0.00  0.00    -0.387 OA
ATOM     25  H   UNL     1      -3.973  -0.260   2.050  0.00  0.00    +0.210 HD
ENDBRANCH  17  24
TORSDOF 2
