REMARK  Name = 6918546
REMARK  14 active torsions:
REMARK  status: ('A' for Active; 'I' for Inactive)
REMARK    1  A    between atoms: C_1  and  C_9
REMARK    2  A    between atoms: C_2  and  O_23
REMARK    3  A    between atoms: C_3  and  O_30
REMARK    4  A    between atoms: C_5  and  O_7
REMARK    5  A    between atoms: C_10  and  C_11
REMARK    6  A    between atoms: C_14  and  O_17
REMARK    7  A    between atoms: C_15  and  O_19
REMARK    8  A    between atoms: C_16  and  O_21
REMARK    9  A    between atoms: O_23  and  P_24
REMARK   10  A    between atoms: P_24  and  O_26
REMARK   11  A    between atoms: P_24  and  O_28
REMARK   12  A    between atoms: O_30  and  P_31
REMARK   13  A    between atoms: P_31  and  O_33
REMARK   14  A    between atoms: P_31  and  O_35
REMARK                            x       y       z     vdW  Elec       q    Type
REMARK                         _______ _______ _______ _____ _____    ______ ____
ROOT
ATOM      1  C   UNL     1       1.451   0.486   1.963  0.00  0.00    +0.038 C 
ATOM      2  C   UNL     1       1.500   0.609   0.574  0.00  0.00    +0.186 C 
ATOM      3  C   UNL     1       2.292  -0.262  -0.175  0.00  0.00    +0.217 C 
ATOM      4  C   UNL     1       2.192  -0.508   2.602  0.00  0.00    +0.006 C 
ATOM      5  C   UNL     1       3.034  -1.255   0.464  0.00  0.00    +0.176 C 
ATOM      6  C   UNL     1       2.984  -1.378   1.853  0.00  0.00    +0.040 C 
ENDROOT
BRANCH   5   7
ATOM      7  O   UNL     1       3.811  -2.111  -0.256  0.00  0.00    -0.468 OA
ATOM      8  C   UNL     1       4.538  -3.097   0.475  0.00  0.00    +0.253 C 
ENDBRANCH   5   7
BRANCH   1   9
ATOM      9  C   UNL     1       0.633   1.382   2.769  0.00  0.00    +0.003 C 
ATOM     10  C   UNL     1      -0.713   1.493   2.688  0.00  0.00    +0.000 C 
BRANCH  10  11
ATOM     11  C   UNL     1      -1.572   0.725   1.771  0.00  0.00    +0.006 C 
ATOM     12  C   UNL     1      -1.597  -0.668   1.841  0.00  0.00    +0.040 C 
ATOM     13  C   UNL     1      -2.361   1.389   0.832  0.00  0.00    +0.040 C 
ATOM     14  C   UNL     1      -3.175   0.661  -0.036  0.00  0.00    +0.175 C 
ATOM     15  C   UNL     1      -2.410  -1.396   0.973  0.00  0.00    +0.175 C 
ATOM     16  C   UNL     1      -3.199  -0.731   0.034  0.00  0.00    +0.206 C 
BRANCH  14  17
ATOM     17  O   UNL     1      -3.941   1.323  -0.947  0.00  0.00    -0.468 OA
ATOM     18  C   UNL     1      -3.356   1.579  -2.223  0.00  0.00    +0.253 C 
ENDBRANCH  14  17
BRANCH  15  19
ATOM     19  O   UNL     1      -2.425  -2.756   1.051  0.00  0.00    -0.468 OA
ATOM     20  C   UNL     1      -1.482  -3.462   0.248  0.00  0.00    +0.253 C 
ENDBRANCH  15  19
BRANCH  16  21
ATOM     21  O   UNL     1      -3.993  -1.444  -0.815  0.00  0.00    -0.465 OA
ATOM     22  C   UNL     1      -5.321  -1.723  -0.378  0.00  0.00    +0.253 C 
ENDBRANCH  16  21
ENDBRANCH  10  11
ENDBRANCH   1   9
BRANCH   2  23
ATOM     23  O   UNL     1       0.777   1.575  -0.064  0.00  0.00    -0.399 OA
BRANCH  23  24
ATOM     24  P   UNL     1       1.304   3.068  -0.388  0.00  0.00    +0.528 P 
ATOM     25  O   UNL     1       1.691   3.887   0.810  0.00  0.00    -0.216 OA
BRANCH  24  26
ATOM     26  O   UNL     1       0.091   3.691  -1.259  0.00  0.00    -0.293 OA
ATOM     27  H   UNL     1      -0.100   3.109  -2.011  0.00  0.00    +0.223 HD
ENDBRANCH  24  26
BRANCH  24  28
ATOM     28  O   UNL     1       2.466   2.848  -1.492  0.00  0.00    -0.293 OA
ATOM     29  H   UNL     1       2.120   2.311  -2.222  0.00  0.00    +0.223 HD
ENDBRANCH  24  28
ENDBRANCH  23  24
ENDBRANCH   2  23
BRANCH   3  30
ATOM     30  O   UNL     1       2.341  -0.144  -1.533  0.00  0.00    -0.396 OA
BRANCH  30  31
ATOM     31  P   UNL     1       1.353  -0.897  -2.569  0.00  0.00    +0.528 P 
ATOM     32  O   UNL     1       1.385  -2.396  -2.512  0.00  0.00    -0.216 OA
BRANCH  31  33
ATOM     33  O   UNL     1       1.793  -0.273  -3.996  0.00  0.00    -0.293 OA
ATOM     34  H   UNL     1       1.746   0.695  -3.954  0.00  0.00    +0.223 HD
ENDBRANCH  31  33
BRANCH  31  35
ATOM     35  O   UNL     1      -0.090  -0.216  -2.305  0.00  0.00    -0.293 OA
ATOM     36  H   UNL     1      -0.008   0.749  -2.363  0.00  0.00    +0.223 HD
ENDBRANCH  31  35
ENDBRANCH  30  31
ENDBRANCH   3  30
TORSDOF 14
