REMARK  Name = 9935073
REMARK  7 active torsions:
REMARK  status: ('A' for Active; 'I' for Inactive)
REMARK    1  A    between atoms: C_6  and  C_24
REMARK    2  A    between atoms: C_6  and  O_28
REMARK    3  A    between atoms: C_9  and  O_21
REMARK    4  A    between atoms: C_24  and  O_25
REMARK    5  A    between atoms: O_25  and  C_26
REMARK    6  A    between atoms: O_28  and  C_30
REMARK    7  A    between atoms: C_30  and  C_33
REMARK                            x       y       z     vdW  Elec       q    Type
REMARK                         _______ _______ _______ _____ _____    ______ ____
ROOT
ATOM      1  O   UNL     1       6.555  -1.823   1.734  0.00  0.00    -0.287 OA
ATOM      2  C   UNL     1      -0.887   0.779  -0.612  0.00  0.00    +0.046 C 
ATOM      3  C   UNL     1       0.003  -0.302  -1.265  0.00  0.00    +0.004 C 
ATOM      4  C   UNL     1       1.484   0.093  -1.353  0.00  0.00    +0.003 C 
ATOM      5  C   UNL     1       2.027   0.340   0.099  0.00  0.00    +0.034 C 
ATOM      6  C   UNL     1      -2.271   0.086  -0.751  0.00  0.00    +0.224 C 
ATOM      7  C   UNL     1      -0.377   0.991   0.827  0.00  0.00    +0.033 C 
ATOM      8  C   UNL     1      -0.746  -0.648  -2.549  0.00  0.00    +0.004 C 
ATOM      9  C   UNL     1       1.128   1.338   0.895  0.00  0.00    +0.111 C 
ATOM     10  C   UNL     1       3.578   0.642   0.113  0.00  0.00    +0.036 C 
ATOM     11  C   UNL     1      -2.235  -0.554  -2.157  0.00  0.00    +0.051 C 
ATOM     12  C   UNL     1       2.292  -1.005  -2.070  0.00  0.00    +0.004 C 
ATOM     13  C   UNL     1      -0.897   2.121  -1.395  0.00  0.00    +0.004 C 
ATOM     14  C   UNL     1       3.788  -0.718  -2.067  0.00  0.00    +0.022 C 
ATOM     15  C   UNL     1       4.271  -0.487  -0.658  0.00  0.00    -0.038 C 
ATOM     16  C   UNL     1       3.964   1.984  -0.551  0.00  0.00    +0.009 C 
ATOM     17  C   UNL     1       4.082   0.718   1.547  0.00  0.00    -0.020 C 
ATOM     18  C   UNL     1       5.222  -1.276  -0.132  0.00  0.00    +0.034 C 
ATOM     19  C   UNL     1       5.026  -0.065   2.077  0.00  0.00    +0.038 C 
ATOM     20  C   UNL     1       5.674  -1.111   1.264  0.00  0.00    +0.195 C 
ENDROOT
BRANCH   9  21
ATOM     21  O   UNL     1       1.328   2.674   0.457  0.00  0.00    -0.384 OA
ATOM     22  H   UNL     1       2.272   2.891   0.500  0.00  0.00    +0.210 HD
ENDBRANCH   9  21
BRANCH   6  24
ATOM     23  O   UNL     1      -4.298   1.212  -1.399  0.00  0.00    -0.246 OA
ATOM     24  C   UNL     1      -3.447   0.993  -0.548  0.00  0.00    +0.354 C 
BRANCH  24  25
ATOM     25  O   UNL     1      -3.407   1.517   0.710  0.00  0.00    -0.446 OA
BRANCH  25  26
ATOM     26  C   UNL     1      -4.478   2.407   1.040  0.00  0.00    +0.209 C 
ATOM     27  C   UNL     1      -4.291   2.900   2.459  0.00  0.00    +0.051 C 
ENDBRANCH  25  26
ENDBRANCH  24  25
ENDBRANCH   6  24
BRANCH   6  28
ATOM     28  O   UNL     1      -2.439  -0.934   0.229  0.00  0.00    -0.443 OA
BRANCH  28  30
ATOM     29  O   UNL     1      -4.464  -1.507  -0.709  0.00  0.00    -0.247 OA
ATOM     30  C   UNL     1      -3.593  -1.667   0.136  0.00  0.00    +0.348 C 
BRANCH  30  33
ATOM     31 CL   UNL     1      -4.414  -1.915   2.647  0.00  0.00    -0.085 Cl
ATOM     32 CL   UNL     1      -4.540  -4.108   0.730  0.00  0.00    -0.085 Cl
ATOM     33  C   UNL     1      -3.637  -2.676   1.252  0.00  0.00    +0.257 C 
ENDBRANCH  30  33
ENDBRANCH  28  30
ENDBRANCH   6  28
TORSDOF 7
