REMARK  Name = 11414799
REMARK  2 active torsions:
REMARK  status: ('A' for Active; 'I' for Inactive)
REMARK    1  A    between atoms: N_1  and  C_14
REMARK    2  A    between atoms: C_19  and  O_20
REMARK                            x       y       z     vdW  Elec       q    Type
REMARK                         _______ _______ _______ _____ _____    ______ ____
ROOT
ATOM      1  N   UNL     1       0.120   0.242   1.329  0.00  0.00    -0.263 N 
ATOM      2  N   UNL     1      -1.374   1.824   0.435  0.00  0.00    -0.332 NA
ATOM      3  N   UNL     1      -3.336   1.117  -0.773  0.00  0.00    -0.347 NA
ATOM      4  C   UNL     1      -1.066   0.525   0.608  0.00  0.00    +0.186 C 
ATOM      5  C   UNL     1      -1.838  -0.527   0.123  0.00  0.00    +0.143 C 
ATOM      6  C   UNL     1      -2.998  -0.170  -0.582  0.00  0.00    +0.133 C 
ATOM      7  C   UNL     1       0.076   0.363   2.792  0.00  0.00    +0.119 C 
ATOM      8  C   UNL     1      -1.495  -1.877   0.316  0.00  0.00    -0.011 C 
ATOM      9  C   UNL     1      -2.505   2.045  -0.254  0.00  0.00    +0.115 C 
ATOM     10  C   UNL     1      -3.796  -1.196  -1.083  0.00  0.00    +0.029 C 
ATOM     11  C   UNL     1      -2.310  -2.881  -0.196  0.00  0.00    -0.004 C 
ATOM     12  C   UNL     1      -3.462  -2.540  -0.896  0.00  0.00    +0.002 C 
ATOM     13  C   UNL     1      -2.886   3.470  -0.469  0.00  0.00    +0.143 C 
ENDROOT
BRANCH   1  14
ATOM     14  C   UNL     1       1.420   0.086   0.781  0.00  0.00    +0.054 C 
ATOM     15  C   UNL     1       1.768   0.778  -0.373  0.00  0.00    +0.018 C 
ATOM     16  C   UNL     1       2.334  -0.757   1.404  0.00  0.00    +0.018 C 
ATOM     17  C   UNL     1       3.045   0.625  -0.913  0.00  0.00    +0.038 C 
ATOM     18  C   UNL     1       3.612  -0.909   0.865  0.00  0.00    +0.038 C 
ATOM     19  C   UNL     1       3.967  -0.218  -0.293  0.00  0.00    +0.139 C 
BRANCH  19  20
ATOM     20  O   UNL     1       5.213  -0.368  -0.819  0.00  0.00    -0.471 OA
ATOM     21  C   UNL     1       5.510   0.368  -2.005  0.00  0.00    +0.252 C 
ENDBRANCH  19  20
ENDBRANCH   1  14
TORSDOF 2
