REMARK  Name = 12041
REMARK  3 active torsions:
REMARK  status: ('A' for Active; 'I' for Inactive)
REMARK    1  A    between atoms: C_2  and  C_4
REMARK    2  A    between atoms: C_2  and  O_6
REMARK    3  A    between atoms: O_6  and  C_7
REMARK                            x       y       z     vdW  Elec       q    Type
REMARK                         _______ _______ _______ _____ _____    ______ ____
ROOT
ATOM      1  O   UNL     1      -0.247  -1.677   0.526  0.00  0.00    -0.242 OA
ATOM      2  C   UNL     1      -0.238  -0.516   0.167  0.00  0.00    +0.376 C 
ENDROOT
BRANCH   2   4
ATOM      3  O   UNL     1      -2.259  -0.212  -0.968  0.00  0.00    -0.284 OA
ATOM      4  C   UNL     1      -1.517   0.225  -0.100  0.00  0.00    +0.248 C 
ATOM      5  C   UNL     1      -1.783   1.452   0.718  0.00  0.00    +0.084 C 
ENDBRANCH   2   4
BRANCH   2   6
ATOM      6  O   UNL     1       0.800   0.296  -0.105  0.00  0.00    -0.443 OA
BRANCH   6   7
ATOM      7  C   UNL     1       2.092  -0.298   0.051  0.00  0.00    +0.209 C 
ATOM      8  C   UNL     1       3.151   0.730  -0.289  0.00  0.00    +0.051 C 
ENDBRANCH   6   7
ENDBRANCH   2   6
TORSDOF 3
