REMARK  Name = 6918653
REMARK  9 active torsions:
REMARK  status: ('A' for Active; 'I' for Inactive)
REMARK    1  A    between atoms: C_2  and  C_10
REMARK    2  A    between atoms: C_4  and  O_18
REMARK    3  A    between atoms: C_7  and  O_20
REMARK    4  A    between atoms: C_11  and  C_13
REMARK    5  A    between atoms: C_13  and  C_14
REMARK    6  A    between atoms: O_20  and  C_23
REMARK    7  A    between atoms: N_22  and  C_25
REMARK    8  A    between atoms: C_25  and  C_28
REMARK    9  A    between atoms: C_25  and  C_31
REMARK                            x       y       z     vdW  Elec       q    Type
REMARK                         _______ _______ _______ _____ _____    ______ ____
ROOT
ATOM      1  O   UNL     1       2.197   1.013  -2.503  0.00  0.00    -0.353 OA
ATOM      2  C   UNL     1       1.333   0.838  -0.168  0.00  0.00    +0.085 C 
ATOM      3  C   UNL     1       1.241   0.396  -1.626  0.00  0.00    +0.125 C 
ATOM      4  C   UNL     1       0.514   2.142   0.024  0.00  0.00    +0.160 C 
ATOM      5  C   UNL     1       2.335  -0.402  -2.305  0.00  0.00    +0.169 C 
ATOM      6  C   UNL     1      -0.146   0.312  -2.206  0.00  0.00    +0.034 C 
ATOM      7  C   UNL     1      -0.916   2.022  -0.521  0.00  0.00    +0.198 C 
ATOM      8  C   UNL     1      -0.909   1.619  -1.994  0.00  0.00    +0.049 C 
ENDROOT
BRANCH   2  10
ATOM      9  O   UNL     1       2.824   1.120   1.764  0.00  0.00    -0.356 OA
ATOM     10  C   UNL     1       2.747   1.019   0.347  0.00  0.00    +0.122 C 
ATOM     11  C   UNL     1       3.407  -0.040   1.157  0.00  0.00    +0.144 C 
ATOM     12  C   UNL     1       3.521   2.021  -0.400  0.00  0.00    +0.032 C 
BRANCH  11  13
ATOM     13  C   UNL     1       4.879  -0.116   1.309  0.00  0.00    +0.057 C 
BRANCH  13  14
ATOM     14  C   UNL     1       5.572  -1.041   0.337  0.00  0.00    -0.032 C 
ATOM     15  C   UNL     1       5.755  -2.370   0.451  0.00  0.00    -0.048 C 
ATOM     16  C   UNL     1       6.457  -3.234  -0.558  0.00  0.00    +0.026 C 
ATOM     17  C   UNL     1       5.229  -3.113   1.651  0.00  0.00    +0.026 C 
ENDBRANCH  13  14
ENDBRANCH  11  13
ENDBRANCH   2  10
BRANCH   4  18
ATOM     18  O   UNL     1       0.410   2.475   1.409  0.00  0.00    -0.350 OA
ATOM     19  C   UNL     1      -0.337   3.665   1.593  0.00  0.00    +0.174 C 
ENDBRANCH   4  18
BRANCH   7  20
ATOM     20  O   UNL     1      -1.631   1.042   0.234  0.00  0.00    -0.436 OA
BRANCH  20  23
ATOM     21  O   UNL     1      -3.664   1.702  -0.607  0.00  0.00    -0.226 OA
ATOM     22  N   UNL     1      -3.301  -0.465   0.139  0.00  0.00    -0.264 N 
ATOM     23  C   UNL     1      -2.938   0.839  -0.124  0.00  0.00    +0.402 C 
ATOM     24  H   UNL     1      -2.625  -1.065   0.529  0.00  0.00    +0.153 HD
BRANCH  22  25
ATOM     25  C   UNL     1      -4.617  -1.000  -0.126  0.00  0.00    +0.151 C 
BRANCH  25  28
ATOM     26  O   UNL     1      -3.384  -3.053  -0.547  0.00  0.00    -0.274 OA
ATOM     27  N   UNL     1      -5.634  -3.015  -1.000  0.00  0.00    -0.327 N 
ATOM     28  C   UNL     1      -4.456  -2.453  -0.558  0.00  0.00    +0.237 C 
ATOM     29  H   UNL     1      -5.649  -3.951  -1.305  0.00  0.00    +0.145 HD
ATOM     30  H   UNL     1      -6.461  -2.481  -1.011  0.00  0.00    +0.145 HD
ENDBRANCH  25  28
BRANCH  25  31
ATOM     31  C   UNL     1      -5.584  -0.848   1.067  0.00  0.00    +0.027 C 
ATOM     32  C   UNL     1      -5.786   0.609   1.498  0.00  0.00    +0.002 C 
ATOM     33  C   UNL     1      -5.116  -1.683   2.264  0.00  0.00    +0.002 C 
ENDBRANCH  25  31
ENDBRANCH  22  25
ENDBRANCH  20  23
ENDBRANCH   7  20
TORSDOF 9
