REMARK  Name = 9882189
REMARK  4 active torsions:
REMARK  status: ('A' for Active; 'I' for Inactive)
REMARK    1  A    between atoms: C_2  and  C_18
REMARK    2  A    between atoms: C_3  and  C_6
REMARK    3  A    between atoms: C_3  and  C_12
REMARK    4  A    between atoms: C_18  and  N_19
REMARK                            x       y       z     vdW  Elec       q    Type
REMARK                         _______ _______ _______ _____ _____    ______ ____
ROOT
ATOM      1  O   UNL     1       0.075  -0.456   1.869  0.00  0.00    -0.350 OA
ATOM      2  C   UNL     1      -0.946  -1.106  -0.144  0.00  0.00    +0.015 C 
ATOM      3  C   UNL     1       0.163  -0.176   0.442  0.00  0.00    +0.128 C 
ATOM      4  C   UNL     1      -0.793  -2.345   0.725  0.00  0.00    +0.033 C 
ATOM      5  C   UNL     1      -0.492  -1.756   2.085  0.00  0.00    +0.143 C 
ENDROOT
BRANCH   3   6
ATOM      6  C   UNL     1      -0.087   1.311   0.167  0.00  0.00    +0.006 C 
ATOM      7  C   UNL     1       0.031   1.811  -1.130  0.00  0.00    -0.002 C 
ATOM      8  C   UNL     1      -0.431   2.166   1.214  0.00  0.00    -0.002 C 
ATOM      9  C   UNL     1      -0.196   3.164  -1.380  0.00  0.00    -0.000 C 
ATOM     10  C   UNL     1      -0.658   3.520   0.965  0.00  0.00    -0.000 C 
ATOM     11  C   UNL     1      -0.540   4.019  -0.332  0.00  0.00    -0.000 C 
ENDBRANCH   3   6
BRANCH   3  12
ATOM     12  C   UNL     1       1.609  -0.522   0.026  0.00  0.00    +0.006 C 
ATOM     13  C   UNL     1       2.649  -0.409   0.950  0.00  0.00    -0.002 C 
ATOM     14  C   UNL     1       1.880  -0.948  -1.276  0.00  0.00    -0.002 C 
ATOM     15  C   UNL     1       3.955  -0.721   0.575  0.00  0.00    -0.000 C 
ATOM     16  C   UNL     1       3.186  -1.260  -1.651  0.00  0.00    -0.000 C 
ATOM     17  C   UNL     1       4.224  -1.147  -0.726  0.00  0.00    -0.000 C 
ENDBRANCH   3  12
BRANCH   2  18
ATOM     18  C   UNL     1      -2.380  -0.563   0.002  0.00  0.00    -0.074 C 
BRANCH  18  19
ATOM     19  N   UNL     1      -3.361  -1.565  -0.393  0.00  0.00    +0.384 N 
ATOM     20  C   UNL     1      -3.166  -1.958  -1.790  0.00  0.00    -0.101 C 
ATOM     21  C   UNL     1      -4.722  -1.061  -0.195  0.00  0.00    -0.101 C 
ATOM     22  H   UNL     1      -3.230  -2.386   0.197  0.00  0.00    -0.080 HD
ENDBRANCH  18  19
ENDBRANCH   2  18
TORSDOF 4
