REMARK  Name = 51003457
REMARK  11 active torsions:
REMARK  status: ('A' for Active; 'I' for Inactive)
REMARK    1  A    between atoms: N_3  and  C1*_14
REMARK    2  A    between atoms: C_10  and  O_23
REMARK    3  A    between atoms: C3*_15  and  O3*_18
REMARK    4  A    between atoms: C4*_17  and  C5*_20
REMARK    5  A    between atoms: C5*_20  and  O5*_21
REMARK    6  A    between atoms: O_23  and  C_24
REMARK    7  A    between atoms: C_24  and  C_25
REMARK    8  A    between atoms: C_25  and  C_26
REMARK    9  A    between atoms: C_26  and  C_27
REMARK   10  A    between atoms: C_27  and  C_28
REMARK   11  A    between atoms: C_28  and  C_29
REMARK                            x       y       z     vdW  Elec       q    Type
REMARK                         _______ _______ _______ _____ _____    ______ ____
ROOT
ATOM      1  O   UNL     1       3.402  -3.049   0.275  0.00  0.00    -0.252 OA
ATOM      2  O   UNL     1      -1.417   1.171   0.021  0.00  0.00    -0.226 OA
ATOM      3  N   UNL     1       3.349  -0.723   0.196  0.00  0.00    -0.220 N 
ATOM      4  N   UNL     1       1.382  -1.982   0.188  0.00  0.00    -0.241 N 
ATOM      5  N   UNL     1       1.099   0.353   0.102  0.00  0.00    -0.220 NA
ATOM      6  N   UNL     1      -0.719  -1.046   0.111  0.00  0.00    -0.223 N 
ATOM      7  C   UNL     1       2.553   0.500   0.127  0.00  0.00    +0.228 C 
ATOM      8  C   UNL     1       2.770  -1.992   0.223  0.00  0.00    +0.313 C 
ATOM      9  C   UNL     1       0.623  -0.838   0.133  0.00  0.00    +0.194 C 
ATOM     10  C   UNL     1      -1.661  -0.031   0.057  0.00  0.00    +0.407 C 
ATOM     11  H   UNL     1       0.913  -2.848   0.204  0.00  0.00    +0.159 HD
ATOM     12  H   UNL     1      -1.042  -1.975   0.136  0.00  0.00    +0.161 HD
ENDROOT
BRANCH   3  14
ATOM     13  O4* UNL     1       5.144   0.587   0.926  0.00  0.00    -0.335 OA
ATOM     14  C1* UNL     1       4.778  -0.616   0.236  0.00  0.00    +0.199 C 
ATOM     15  C3* UNL     1       6.606   0.334  -0.923  0.00  0.00    +0.144 C 
ATOM     16  C2* UNL     1       5.403  -0.552  -1.148  0.00  0.00    +0.083 C 
ATOM     17  C4* UNL     1       6.126   1.301   0.150  0.00  0.00    +0.173 C 
BRANCH  15  18
ATOM     18  O3* UNL     1       7.691  -0.446  -0.423  0.00  0.00    -0.382 OA
ATOM     19  H3* UNL     1       7.992  -1.059  -1.112  0.00  0.00    +0.210 HD
ENDBRANCH  15  18
BRANCH  17  20
ATOM     20  C5* UNL     1       5.456   2.541  -0.426  0.00  0.00    +0.169 C 
BRANCH  20  21
ATOM     21  O5* UNL     1       5.034   3.373   0.642  0.00  0.00    -0.379 OA
ATOM     22  H5* UNL     1       4.606   4.167   0.285  0.00  0.00    +0.211 HD
ENDBRANCH  20  21
ENDBRANCH  17  20
ENDBRANCH   3  14
BRANCH  10  23
ATOM     23  O   UNL     1      -2.925  -0.562   0.047  0.00  0.00    -0.434 OA
BRANCH  23  24
ATOM     24  C   UNL     1      -3.998   0.369  -0.008  0.00  0.00    +0.210 C 
BRANCH  24  25
ATOM     25  C   UNL     1      -5.314  -0.396  -0.010  0.00  0.00    +0.048 C 
BRANCH  25  26
ATOM     26  C   UNL     1      -6.514   0.548  -0.053  0.00  0.00    +0.004 C 
BRANCH  26  27
ATOM     27  C   UNL     1      -7.832  -0.229  -0.012  0.00  0.00    +0.000 C 
BRANCH  27  28
ATOM     28  C   UNL     1      -9.071   0.669  -0.076  0.00  0.00    +0.000 C 
BRANCH  28  29
ATOM     29  C   UNL     1     -10.386  -0.111  -0.110  0.00  0.00    +0.000 C 
ATOM     30  C   UNL     1     -11.580   0.822  -0.245  0.00  0.00    +0.000 C 
ENDBRANCH  28  29
ENDBRANCH  27  28
ENDBRANCH  26  27
ENDBRANCH  25  26
ENDBRANCH  24  25
ENDBRANCH  23  24
ENDBRANCH  10  23
TORSDOF 11
