REMARK  Name = 68470595
REMARK  3 active torsions:
REMARK  status: ('A' for Active; 'I' for Inactive)
REMARK    1  A    between atoms: C_4  and  C_19
REMARK    2  A    between atoms: C_5  and  C_13
REMARK    3  A    between atoms: C_19  and  O_20
REMARK                            x       y       z     vdW  Elec       q    Type
REMARK                         _______ _______ _______ _____ _____    ______ ____
ROOT
ATOM      1  N   UNL     1       2.703  -1.134  -0.942  0.00  0.00    +0.388 N 
ATOM      2  C   UNL     1       2.651   0.220  -0.354  0.00  0.00    -0.055 C 
ATOM      3  C   UNL     1       2.348  -1.998   0.197  0.00  0.00    -0.058 C 
ATOM      4  C   UNL     1       1.144   0.593  -0.263  0.00  0.00    +0.015 C 
ATOM      5  C   UNL     1       0.360  -0.416   0.631  0.00  0.00    +0.021 C 
ATOM      6  C   UNL     1       0.821  -1.874   0.379  0.00  0.00    -0.016 C 
ATOM      7  C   UNL     1       3.327   0.059   1.015  0.00  0.00    -0.023 C 
ATOM      8  C   UNL     1       3.116  -1.411   1.384  0.00  0.00    -0.023 C 
ATOM      9  C   UNL     1       4.010  -1.456  -1.510  0.00  0.00    -0.100 C 
ATOM     10  H   UNL     1       2.075  -1.246  -1.737  0.00  0.00    -0.080 HD
ENDROOT
BRANCH   5  13
ATOM     11 CL   UNL     1      -3.861  -0.729  -2.389  0.00  0.00    -0.081 Cl
ATOM     12 CL   UNL     1      -5.642   0.078   0.189  0.00  0.00    -0.081 Cl
ATOM     13  C   UNL     1      -1.151  -0.295   0.503  0.00  0.00    -0.022 C 
ATOM     14  C   UNL     1      -1.768  -0.531  -0.725  0.00  0.00    +0.008 C 
ATOM     15  C   UNL     1      -1.919   0.052   1.615  0.00  0.00    -0.003 C 
ATOM     16  C   UNL     1      -3.154  -0.421  -0.842  0.00  0.00    +0.068 C 
ATOM     17  C   UNL     1      -3.304   0.162   1.498  0.00  0.00    +0.012 C 
ATOM     18  C   UNL     1      -3.922  -0.074   0.270  0.00  0.00    +0.068 C 
ENDBRANCH   5  13
BRANCH   4  19
ATOM     19  C   UNL     1       0.957   2.037   0.219  0.00  0.00    +0.140 C 
BRANCH  19  20
ATOM     20  O   UNL     1       1.702   2.886  -0.629  0.00  0.00    -0.351 OA
ATOM     21  C   UNL     1       1.581   4.253  -0.249  0.00  0.00    +0.174 C 
ENDBRANCH  19  20
ENDBRANCH   4  19
TORSDOF 3
