REMARK  Name = 100154
REMARK  9 active torsions:
REMARK  status: ('A' for Active; 'I' for Inactive)
REMARK    1  A    between atoms: C_1  and  C_2
REMARK    2  A    between atoms: C_1  and  O_14
REMARK    3  A    between atoms: C_1  and  C_16
REMARK    4  A    between atoms: C_5  and  O_8
REMARK    5  A    between atoms: C_6  and  O_10
REMARK    6  A    between atoms: C_7  and  O_12
REMARK    7  A    between atoms: C_16  and  C_17
REMARK    8  A    between atoms: C_20  and  O_25
REMARK    9  A    between atoms: C_22  and  O_23
REMARK                            x       y       z     vdW  Elec       q    Type
REMARK                         _______ _______ _______ _____ _____    ______ ____
ROOT
ATOM      1  C   UNL     1       0.069  -2.555  -0.743  0.00  0.00    +0.137 C 
ENDROOT
BRANCH   1   2
ATOM      2  C   UNL     1       0.994  -1.391  -0.471  0.00  0.00    +0.011 C 
ATOM      3  C   UNL     1       1.604  -1.286   0.768  0.00  0.00    +0.038 C 
ATOM      4  C   UNL     1       1.212  -0.453  -1.466  0.00  0.00    +0.038 C 
ATOM      5  C   UNL     1       2.065   0.622  -1.215  0.00  0.00    +0.175 C 
ATOM      6  C   UNL     1       2.457  -0.212   1.019  0.00  0.00    +0.175 C 
ATOM      7  C   UNL     1       2.688   0.742   0.028  0.00  0.00    +0.206 C 
BRANCH   5   8
ATOM      8  O   UNL     1       2.283   1.545  -2.192  0.00  0.00    -0.468 OA
ATOM      9  C   UNL     1       1.607   1.348  -3.433  0.00  0.00    +0.253 C 
ENDBRANCH   5   8
BRANCH   6  10
ATOM     10  O   UNL     1       3.061  -0.107   2.235  0.00  0.00    -0.468 OA
ATOM     11  C   UNL     1       2.366   0.626   3.243  0.00  0.00    +0.253 C 
ENDBRANCH   6  10
BRANCH   7  12
ATOM     12  O   UNL     1       3.524   1.791   0.272  0.00  0.00    -0.465 OA
ATOM     13  C   UNL     1       4.902   1.606  -0.041  0.00  0.00    +0.253 C 
ENDBRANCH   7  12
ENDBRANCH   1   2
BRANCH   1  14
ATOM     14  O   UNL     1       0.835  -3.760  -0.693  0.00  0.00    -0.380 OA
ATOM     15  H   UNL     1       0.256  -4.519  -0.866  0.00  0.00    +0.211 HD
ENDBRANCH   1  14
BRANCH   1  16
ATOM     16  C   UNL     1      -1.101  -2.648   0.261  0.00  0.00    +0.060 C 
BRANCH  16  17
ATOM     17  C   UNL     1      -2.021  -1.474   0.232  0.00  0.00    -0.016 C 
ATOM     18  C   UNL     1      -1.777  -0.376   1.056  0.00  0.00    +0.036 C 
ATOM     19  C   UNL     1      -3.127  -1.476  -0.618  0.00  0.00    -0.001 C 
ATOM     20  C   UNL     1      -2.638   0.721   1.030  0.00  0.00    +0.167 C 
ATOM     21  C   UNL     1      -3.988  -0.379  -0.645  0.00  0.00    +0.040 C 
ATOM     22  C   UNL     1      -3.743   0.720   0.179  0.00  0.00    +0.172 C 
BRANCH  22  23
ATOM     23  O   UNL     1      -4.591   1.785   0.144  0.00  0.00    -0.468 OA
ATOM     24  C   UNL     1      -4.291   2.822  -0.789  0.00  0.00    +0.253 C 
ENDBRANCH  22  23
BRANCH  20  25
ATOM     25  O   UNL     1      -2.388   1.789   1.838  0.00  0.00    -0.503 OA
ATOM     26  H   UNL     1      -1.643   1.782   2.407  0.00  0.00    +0.292 HD
ENDBRANCH  20  25
ENDBRANCH  16  17
ENDBRANCH   1  16
TORSDOF 9
