REMARK  Name = 11667893
REMARK  4 active torsions:
REMARK  status: ('A' for Active; 'I' for Inactive)
REMARK    1  A    between atoms: N_2  and  C_14
REMARK    2  A    between atoms: C_3  and  C_18
REMARK    3  A    between atoms: N_23  and  C_25
REMARK    4  A    between atoms: C_25  and  C_27
REMARK                            x       y       z     vdW  Elec       q    Type
REMARK                         _______ _______ _______ _____ _____    ______ ____
ROOT
ATOM      1  O   UNL     1       0.371  -1.547   1.779  0.00  0.00    -0.270 OA
ATOM      2  N   UNL     1      -0.273  -1.587  -0.481  0.00  0.00    -0.280 N 
ATOM      3  C   UNL     1       0.596  -1.791   0.599  0.00  0.00    +0.252 C 
ATOM      4  H   UNL     1       0.073  -1.841  -1.367  0.00  0.00    +0.155 HD
ENDROOT
BRANCH   2  14
ATOM      5  N   UNL     1      -4.134   0.310   1.853  0.00  0.00    -0.333 N 
ATOM      6  C   UNL     1      -5.471   0.607  -0.154  0.00  0.00    +0.038 C 
ATOM      7  C   UNL     1      -5.504   0.533   1.405  0.00  0.00    +0.091 C 
ATOM      8  C   UNL     1      -4.133  -0.030  -0.440  0.00  0.00    -0.008 C 
ATOM      9  C   UNL     1      -3.426  -0.179   0.758  0.00  0.00    +0.042 C 
ATOM     10  C   UNL     1      -6.637  -0.170  -0.768  0.00  0.00    +0.006 C 
ATOM     11  C   UNL     1      -5.484   2.064  -0.634  0.00  0.00    +0.006 C 
ATOM     12  C   UNL     1      -3.579  -0.411  -1.652  0.00  0.00    -0.002 C 
ATOM     13  C   UNL     1      -2.134  -0.677   0.760  0.00  0.00    +0.029 C 
ATOM     14  C   UNL     1      -1.568  -1.069  -0.456  0.00  0.00    +0.052 C 
ATOM     15  C   UNL     1      -2.288  -0.940  -1.653  0.00  0.00    +0.014 C 
ATOM     16  H   UNL     1      -3.778   0.473   2.756  0.00  0.00    +0.147 HD
ENDBRANCH   2  14
BRANCH   3  18
ATOM     17  N   UNL     1       4.216  -1.986  -0.373  0.00  0.00    -0.229 NA
ATOM     18  C   UNL     1       1.933  -2.337   0.247  0.00  0.00    +0.085 C 
ATOM     19  C   UNL     1       2.990  -1.518  -0.049  0.00  0.00    +0.133 C 
ATOM     20  C   UNL     1       2.092  -3.703   0.222  0.00  0.00    +0.009 C 
ATOM     21  C   UNL     1       3.340  -4.223  -0.106  0.00  0.00    +0.021 C 
ATOM     22  C   UNL     1       4.359  -3.330  -0.393  0.00  0.00    +0.100 C 
ATOM     23  N   UNL     1       2.808  -0.112  -0.018  0.00  0.00    -0.314 N 
ATOM     24  H   UNL     1       1.921   0.244   0.217  0.00  0.00    +0.149 HD
BRANCH  23  25
ATOM     25  C   UNL     1       3.859   0.806  -0.313  0.00  0.00    +0.115 C 
BRANCH  25  27
ATOM     26  N   UNL     1       2.599   4.880   0.119  0.00  0.00    -0.242 NA
ATOM     27  C   UNL     1       3.417   2.233  -0.162  0.00  0.00    +0.000 C 
ATOM     28  C   UNL     1       3.554   2.869   1.061  0.00  0.00    +0.018 C 
ATOM     29  C   UNL     1       2.877   2.904  -1.246  0.00  0.00    +0.018 C 
ATOM     30  C   UNL     1       3.132   4.186   1.149  0.00  0.00    +0.099 C 
ATOM     31  C   UNL     1       2.485   4.220  -1.055  0.00  0.00    +0.099 C 
ENDBRANCH  25  27
ENDBRANCH  23  25
ENDBRANCH   3  18
TORSDOF 4
