REMARK  Name = 10131000
REMARK  4 active torsions:
REMARK  status: ('A' for Active; 'I' for Inactive)
REMARK    1  A    between atoms: N_1  and  O_11
REMARK    2  A    between atoms: C_4  and  O_13
REMARK    3  A    between atoms: O_13  and  C_15
REMARK    4  A    between atoms: C_15  and  C_16
REMARK                            x       y       z     vdW  Elec       q    Type
REMARK                         _______ _______ _______ _____ _____    ______ ____
ROOT
ATOM      1  N   UNL     1       2.516  -0.057  -0.385  0.00  0.00    -0.175 NA
ATOM      2  C   UNL     1       2.075   1.273   0.071  0.00  0.00    +0.073 C 
ATOM      3  C   UNL     1       1.711  -1.261  -0.112  0.00  0.00    +0.073 C 
ATOM      4  C   UNL     1      -0.297   0.309   0.138  0.00  0.00    +0.172 C 
ATOM      5  C   UNL     1       0.586   1.475  -0.297  0.00  0.00    +0.061 C 
ATOM      6  C   UNL     1       0.233  -0.984  -0.474  0.00  0.00    +0.061 C 
ATOM      7  C   UNL     1       2.282   1.562   1.572  0.00  0.00    +0.019 C 
ATOM      8  C   UNL     1       2.891   2.329  -0.713  0.00  0.00    +0.019 C 
ATOM      9  C   UNL     1       1.797  -1.803   1.330  0.00  0.00    +0.019 C 
ATOM     10  C   UNL     1       2.215  -2.382  -1.052  0.00  0.00    +0.019 C 
ENDROOT
BRANCH   1  11
ATOM     11  O   UNL     1       3.905  -0.281  -0.048  0.00  0.00    -0.311 OA
ATOM     12  H   UNL     1       4.417   0.522  -0.235  0.00  0.00    +0.237 HD
ENDBRANCH   1  11
BRANCH   4  13
ATOM     13  O   UNL     1      -1.623   0.548  -0.327  0.00  0.00    -0.452 OA
BRANCH  13  15
ATOM     14  O   UNL     1      -2.335  -1.441   0.613  0.00  0.00    -0.250 OA
ATOM     15  C   UNL     1      -2.539  -0.413  -0.016  0.00  0.00    +0.316 C 
BRANCH  15  16
ATOM     16  C   UNL     1      -3.887  -0.076  -0.541  0.00  0.00    +0.099 C 
ATOM     17  C   UNL     1      -5.037  -0.035   0.411  0.00  0.00    +0.012 C 
ATOM     18  C   UNL     1      -4.494   1.238  -0.170  0.00  0.00    +0.012 C 
ENDBRANCH  15  16
ENDBRANCH  13  15
ENDBRANCH   4  13
TORSDOF 4
