REMARK  Name = 456199
REMARK  5 active torsions:
REMARK  status: ('A' for Active; 'I' for Inactive)
REMARK    1  A    between atoms: O_1  and  C_5
REMARK    2  A    between atoms: O_1  and  C_14
REMARK    3  A    between atoms: C_14  and  C_15
REMARK    4  A    between atoms: C_20  and  O_21
REMARK    5  A    between atoms: O_21  and  C_25
REMARK                            x       y       z     vdW  Elec       q    Type
REMARK                         _______ _______ _______ _____ _____    ______ ____
ROOT
ATOM      1  O   UNL     1       0.131   0.955  -0.076  0.00  0.00    -0.346 OA
ENDROOT
BRANCH   1   5
ATOM      2  O   UNL     1       3.612   2.152  -0.271  0.00  0.00    -0.438 OA
ATOM      3  N   UNL     1       3.593  -0.217  -0.009  0.00  0.00    -0.242 N 
ATOM      4  N   UNL     1       5.544   0.831  -0.117  0.00  0.00    -0.333 NA
ATOM      5  C   UNL     1       1.505   0.997   0.278  0.00  0.00    +0.179 C 
ATOM      6  C   UNL     1       2.156  -0.359   0.025  0.00  0.00    +0.130 C 
ATOM      7  C   UNL     1       2.210   2.069  -0.554  0.00  0.00    +0.241 C 
ATOM      8  C   UNL     1       4.239   0.981  -0.156  0.00  0.00    +0.345 C 
ATOM      9  C   UNL     1       4.532  -1.194   0.111  0.00  0.00    +0.181 C 
ATOM     10  C   UNL     1       5.733  -0.523   0.040  0.00  0.00    +0.274 C 
ATOM     11  O   UNL     1       7.195  -2.290   0.238  0.00  0.00    -0.124 OA
ATOM     12  O   UNL     1       8.020  -0.265   0.017  0.00  0.00    -0.124 OA
ATOM     13  N   UNL     1       7.031  -1.046   0.101  0.00  0.00    +0.085 N 
ENDBRANCH   1   5
BRANCH   1  14
ATOM     14  C   UNL     1      -0.568  -0.021   0.682  0.00  0.00    +0.169 C 
BRANCH  14  15
ATOM     15  C   UNL     1      -2.010  -0.022   0.267  0.00  0.00    +0.007 C 
ATOM     16  C   UNL     1      -2.428  -0.852  -0.766  0.00  0.00    +0.001 C 
ATOM     17  C   UNL     1      -2.914   0.808   0.920  0.00  0.00    +0.001 C 
ATOM     18  C   UNL     1      -3.769  -0.853  -1.152  0.00  0.00    +0.037 C 
ATOM     19  C   UNL     1      -4.255   0.808   0.535  0.00  0.00    +0.037 C 
ATOM     20  C   UNL     1      -4.682  -0.023  -0.501  0.00  0.00    +0.147 C 
BRANCH  20  21
ATOM     21  O   UNL     1      -5.990  -0.024  -0.878  0.00  0.00    -0.404 OA
BRANCH  21  25
ATOM     22  F   UNL     1      -6.467  -1.254   0.990  0.00  0.00    -0.133 F 
ATOM     23  F   UNL     1      -8.005  -0.984  -0.539  0.00  0.00    -0.133 F 
ATOM     24  F   UNL     1      -7.447   0.709   0.726  0.00  0.00    -0.133 F 
ATOM     25  C   UNL     1      -6.969  -0.383   0.090  0.00  0.00    +0.575 C 
ENDBRANCH  21  25
ENDBRANCH  20  21
ENDBRANCH  14  15
ENDBRANCH   1  14
TORSDOF 5
