REMARK  Name = 3025803
REMARK  8 active torsions:
REMARK  status: ('A' for Active; 'I' for Inactive)
REMARK    1  A    between atoms: C_3  and  C_16
REMARK    2  A    between atoms: C_4  and  C_7
REMARK    3  A    between atoms: CA_9  and  C_13
REMARK    4  A    between atoms: C_13  and  O_14
REMARK    5  A    between atoms: C_17  and  O_22
REMARK    6  A    between atoms: C_19  and  O_25
REMARK    7  A    between atoms: O_22  and  C_23
REMARK    8  A    between atoms: O_25  and  C_26
REMARK                            x       y       z     vdW  Elec       q    Type
REMARK                         _______ _______ _______ _____ _____    ______ ____
ROOT
ATOM      1  S   UNL     1      -0.198  -1.992  -0.250  0.00  0.00    -0.075 S 
ATOM      2  N   UNL     1      -0.829   0.489   0.109  0.00  0.00    -0.397 NA
ATOM      3  C   UNL     1       0.188  -0.338   0.004  0.00  0.00    +0.157 C 
ATOM      4  C   UNL     1      -2.004  -0.226  -0.020  0.00  0.00    +0.146 C 
ATOM      5  C   UNL     1      -1.864  -1.583  -0.219  0.00  0.00    +0.126 C 
ENDROOT
BRANCH   4   7
ATOM      6  N   UNL     1      -4.356  -0.399  -0.090  0.00  0.00    -0.397 NA
ATOM      7  C   UNL     1      -3.285   0.415   0.051  0.00  0.00    +0.140 C 
ATOM      8  C   UNL     1      -3.373   1.783   0.254  0.00  0.00    +0.087 C 
ATOM      9  CA  UNL     1      -5.571   0.191  -0.025  0.00  0.00    +0.206 C 
ATOM     10  C   UNL     1      -4.640   2.352   0.316  0.00  0.00    -0.016 C 
ATOM     11  C   UNL     1      -5.765   1.548   0.174  0.00  0.00    +0.035 C 
BRANCH   9  13
ATOM     12  OXT UNL     1      -7.897  -0.352  -0.154  0.00  0.00    -0.242 OA
ATOM     13  C   UNL     1      -6.710  -0.697  -0.181  0.00  0.00    +0.368 C 
BRANCH  13  14
ATOM     14  O   UNL     1      -6.340  -1.994  -0.369  0.00  0.00    -0.475 OA
ATOM     15  H   UNL     1      -5.432  -2.224  -0.385  0.00  0.00    +0.295 HD
ENDBRANCH  13  14
ENDBRANCH   9  13
ENDBRANCH   4   7
BRANCH   3  16
ATOM     16  C   UNL     1       1.576   0.043   0.088  0.00  0.00    +0.039 C 
ATOM     17  C   UNL     1       3.890  -0.547   0.460  0.00  0.00    +0.172 C 
ATOM     18  C   UNL     1       2.547  -0.916   0.380  0.00  0.00    +0.043 C 
ATOM     19  C   UNL     1       4.262   0.781   0.247  0.00  0.00    +0.172 C 
ATOM     20  C   UNL     1       1.949   1.370  -0.125  0.00  0.00    +0.006 C 
ATOM     21  C   UNL     1       3.291   1.739  -0.045  0.00  0.00    +0.040 C 
BRANCH  17  22
ATOM     22  O   UNL     1       4.828  -1.492   0.746  0.00  0.00    -0.472 OA
BRANCH  22  23
ATOM     23  C   UNL     1       4.940  -2.589  -0.159  0.00  0.00    +0.206 C 
ATOM     24  C   UNL     1       6.375  -3.073  -0.171  0.00  0.00    +0.051 C 
ENDBRANCH  22  23
ENDBRANCH  17  22
BRANCH  19  25
ATOM     25  O   UNL     1       5.570   1.154   0.323  0.00  0.00    -0.472 OA
BRANCH  25  26
ATOM     26  C   UNL     1       5.979   2.251  -0.492  0.00  0.00    +0.206 C 
ATOM     27  C   UNL     1       7.439   2.080  -0.853  0.00  0.00    +0.051 C 
ENDBRANCH  25  26
ENDBRANCH  19  25
ENDBRANCH   3  16
TORSDOF 8
