REMARK  Name = 2146
REMARK  2 active torsions:
REMARK  status: ('A' for Active; 'I' for Inactive)
REMARK    1  A    between atoms: N_3  and  C_4
REMARK    2  A    between atoms: N_3  and  N_9
REMARK                            x       y       z     vdW  Elec       q    Type
REMARK                         _______ _______ _______ _____ _____    ______ ____
ROOT
ATOM      1  N   UNL     1      -1.696  -0.569   0.000  0.00  0.00    -0.369 N 
ATOM      2  N   UNL     1      -0.411   1.317   0.001  0.00  0.00    -0.369 N 
ATOM      3  C   UNL     1      -0.416  -0.058  -0.001  0.00  0.00    +0.205 C 
ATOM      4  H   UNL     1      -2.470   0.040  -0.002  0.00  0.00    +0.159 HD
ATOM      5  H   UNL     1      -1.837  -1.543   0.003  0.00  0.00    +0.159 HD
ATOM      6  H   UNL     1      -1.262   1.813  -0.001  0.00  0.00    +0.159 HD
ATOM      7  H   UNL     1       0.444   1.806   0.004  0.00  0.00    +0.159 HD
ENDROOT
BRANCH   3   8
ATOM      8  N   UNL     1       0.707  -0.728   0.001  0.00  0.00    -0.168 NA
BRANCH   8   9
ATOM      9  N   UNL     1       1.817   0.037  -0.001  0.00  0.00    -0.223 NA
ATOM     10  H   UNL     1       2.706  -0.386   0.001  0.00  0.00    +0.145 HD
ATOM     11  H   UNL     1       1.738   1.018  -0.004  0.00  0.00    +0.145 HD
ENDBRANCH   8   9
ENDBRANCH   3   8
TORSDOF 2
