REMARK  Name = 156414
REMARK  8 active torsions:
REMARK  status: ('A' for Active; 'I' for Inactive)
REMARK    1  A    between atoms: N_1  and  C_15
REMARK    2  A    between atoms: C_4  and  O_27
REMARK    3  A    between atoms: C_5  and  N_22
REMARK    4  A    between atoms: C_23  and  C_25
REMARK    5  A    between atoms: O_27  and  C_28
REMARK    6  A    between atoms: C_28  and  C_29
REMARK    7  A    between atoms: C_29  and  C_30
REMARK    8  A    between atoms: C_30  and  N_32
REMARK                            x       y       z     vdW  Elec       q    Type
REMARK                         _______ _______ _______ _____ _____    ______ ____
ROOT
ATOM      1  N   UNL     1      -3.746   0.061   0.615  0.00  0.00    -0.301 N 
ATOM      2  N   UNL     1      -1.403  -3.298   1.213  0.00  0.00    -0.248 NA
ATOM      3  N   UNL     1      -3.551  -2.274   0.832  0.00  0.00    -0.233 NA
ATOM      4  C   UNL     1       1.190  -0.717   1.365  0.00  0.00    +0.153 C 
ATOM      5  C   UNL     1       0.443   0.439   1.168  0.00  0.00    +0.081 C 
ATOM      6  C   UNL     1      -1.559  -0.914   0.999  0.00  0.00    +0.117 C 
ATOM      7  C   UNL     1       0.560  -1.965   1.379  0.00  0.00    +0.053 C 
ATOM      8  C   UNL     1      -0.815  -2.089   1.197  0.00  0.00    +0.070 C 
ATOM      9  C   UNL     1      -0.933   0.344   0.984  0.00  0.00    +0.005 C 
ATOM     10  C   UNL     1      -2.930  -1.079   0.821  0.00  0.00    +0.115 C 
ATOM     11  C   UNL     1      -2.739  -3.325   1.030  0.00  0.00    +0.251 C 
ATOM     12  H   UNL     1      -3.407   0.876   1.052  0.00  0.00    +0.153 HD
ENDROOT
BRANCH   1  15
ATOM     13 CL   UNL     1      -6.754  -1.296  -3.303  0.00  0.00    -0.080 Cl
ATOM     14  F   UNL     1      -8.473   0.831  -2.158  0.00  0.00    -0.203 F 
ATOM     15  C   UNL     1      -4.944   0.253  -0.091  0.00  0.00    +0.050 C 
ATOM     16  C   UNL     1      -5.224  -0.524  -1.215  0.00  0.00    +0.028 C 
ATOM     17  C   UNL     1      -5.854   1.222   0.331  0.00  0.00    +0.017 C 
ATOM     18  C   UNL     1      -6.414  -0.333  -1.917  0.00  0.00    +0.086 C 
ATOM     19  C   UNL     1      -7.045   1.413  -0.371  0.00  0.00    +0.032 C 
ATOM     20  C   UNL     1      -7.325   0.636  -1.494  0.00  0.00    +0.151 C 
ENDBRANCH   1  15
BRANCH   5  22
ATOM     21  O   UNL     1      -0.735   3.175   0.781  0.00  0.00    -0.270 OA
ATOM     22  N   UNL     1       1.056   1.694   1.151  0.00  0.00    -0.278 N 
ATOM     23  C   UNL     1       0.455   2.945   0.966  0.00  0.00    +0.250 C 
ATOM     24  H   UNL     1       2.032   1.699   1.287  0.00  0.00    +0.155 HD
BRANCH  23  25
ATOM     25  C   UNL     1       1.457   4.049   1.016  0.00  0.00    +0.058 C 
ATOM     26  C   UNL     1       1.077   5.321   0.860  0.00  0.00    +0.005 C 
ENDBRANCH  23  25
ENDBRANCH   5  22
BRANCH   4  27
ATOM     27  O   UNL     1       2.547  -0.656   1.548  0.00  0.00    -0.474 OA
BRANCH  27  28
ATOM     28  C   UNL     1       3.353  -1.347   0.604  0.00  0.00    +0.203 C 
BRANCH  28  29
ATOM     29  C   UNL     1       4.680  -0.613   0.459  0.00  0.00    +0.025 C 
BRANCH  29  30
ATOM     30  C   UNL     1       5.602  -1.314  -0.534  0.00  0.00    -0.073 C 
BRANCH  30  32
ATOM     31  O   UNL     1       9.108   0.375  -2.104  0.00  0.00    -0.358 OA
ATOM     32  N   UNL     1       6.873  -0.601  -0.636  0.00  0.00    +0.390 N 
ATOM     33  C   UNL     1       6.754   0.549  -1.543  0.00  0.00    -0.045 C 
ATOM     34  C   UNL     1       7.939  -1.499  -1.100  0.00  0.00    -0.045 C 
ATOM     35  C   UNL     1       8.095   1.270  -1.644  0.00  0.00    +0.119 C 
ATOM     36  C   UNL     1       9.253  -0.730  -1.210  0.00  0.00    +0.119 C 
ATOM     37  H   UNL     1       7.116  -0.259   0.294  0.00  0.00    -0.079 HD
ENDBRANCH  30  32
ENDBRANCH  29  30
ENDBRANCH  28  29
ENDBRANCH  27  28
ENDBRANCH   4  27
TORSDOF 8
