REMARK  Name = 47938
REMARK  7 active torsions:
REMARK  status: ('A' for Active; 'I' for Inactive)
REMARK    1  A    between atoms: C_1  and  O_7
REMARK    2  A    between atoms: C_2  and  O_15
REMARK    3  A    between atoms: O_7  and  C_8
REMARK    4  A    between atoms: C_8  and  C_11
REMARK    5  A    between atoms: C_11  and  O_12
REMARK    6  A    between atoms: O_12  and  C_13
REMARK    7  A    between atoms: O_15  and  C_21
REMARK                            x       y       z     vdW  Elec       q    Type
REMARK                         _______ _______ _______ _____ _____    ______ ____
ROOT
ATOM      1  C   UNL     1       2.327   1.404  -0.335  0.00  0.00    +0.139 C 
ATOM      2  C   UNL     1      -0.334   1.698   0.411  0.00  0.00    +0.151 C 
ATOM      3  C   UNL     1       1.452   2.090  -1.168  0.00  0.00    +0.040 C 
ATOM      4  C   UNL     1       1.887   0.862   0.867  0.00  0.00    +0.040 C 
ATOM      5  C   UNL     1       0.117   2.238  -0.793  0.00  0.00    +0.041 C 
ATOM      6  C   UNL     1       0.551   1.010   1.241  0.00  0.00    +0.041 C 
ENDROOT
BRANCH   1   7
ATOM      7  O   UNL     1       3.640   1.259  -0.703  0.00  0.00    -0.468 OA
BRANCH   7   8
ATOM      8  C   UNL     1       4.122  -0.067  -0.856  0.00  0.00    +0.263 C 
ATOM      9  C   UNL     1       4.605  -0.233  -2.286  0.00  0.00    +0.060 C 
BRANCH   8  11
ATOM     10  O   UNL     1       5.676   0.560   0.902  0.00  0.00    -0.246 OA
ATOM     11  C   UNL     1       5.245  -0.292   0.137  0.00  0.00    +0.358 C 
BRANCH  11  12
ATOM     12  O   UNL     1       5.672  -1.587   0.061  0.00  0.00    -0.446 OA
BRANCH  12  13
ATOM     13  C   UNL     1       6.718  -1.946   0.970  0.00  0.00    +0.209 C 
ATOM     14  C   UNL     1       7.076  -3.402   0.761  0.00  0.00    +0.051 C 
ENDBRANCH  12  13
ENDBRANCH  11  12
ENDBRANCH   8  11
ENDBRANCH   7   8
ENDBRANCH   1   7
BRANCH   2  15
ATOM     15  O   UNL     1      -1.637   1.840   0.776  0.00  0.00    -0.400 OA
BRANCH  15  21
ATOM     16 CL   UNL     1      -8.066  -1.635   0.066  0.00  0.00    -0.082 Cl
ATOM     17  O   UNL     1      -3.832   1.212   0.870  0.00  0.00    -0.397 OA
ATOM     18  N   UNL     1      -2.405  -0.144  -0.255  0.00  0.00    -0.336 NA
ATOM     19  C   UNL     1      -4.548   0.155   0.387  0.00  0.00    +0.178 C 
ATOM     20  C   UNL     1      -3.673  -0.672  -0.300  0.00  0.00    +0.154 C 
ATOM     21  C   UNL     1      -2.584   0.938   0.436  0.00  0.00    +0.460 C 
ATOM     22  C   UNL     1      -5.909  -0.083   0.537  0.00  0.00    +0.051 C 
ATOM     23  C   UNL     1      -4.170  -1.840  -0.897  0.00  0.00    +0.089 C 
ATOM     24  C   UNL     1      -6.389  -1.251  -0.064  0.00  0.00    +0.057 C 
ATOM     25  C   UNL     1      -5.540  -2.114  -0.767  0.00  0.00    -0.007 C 
ENDBRANCH  15  21
ENDBRANCH   2  15
TORSDOF 7
