REMARK  Name = 59227
REMARK  7 active torsions:
REMARK  status: ('A' for Active; 'I' for Inactive)
REMARK    1  A    between atoms: N_1  and  C_3
REMARK    2  A    between atoms: N_1  and  C_15
REMARK    3  A    between atoms: N_1  and  C_22
REMARK    4  A    between atoms: C_10  and  O_13
REMARK    5  A    between atoms: C_15  and  C_16
REMARK    6  A    between atoms: C_16  and  C_18
REMARK    7  A    between atoms: C_22  and  C_23
REMARK                            x       y       z     vdW  Elec       q    Type
REMARK                         _______ _______ _______ _____ _____    ______ ____
ROOT
ATOM      1  N   UNL     1      -0.720   1.320  -0.800  0.00  0.00    +0.389 N 
ATOM      2  H   UNL     1      -0.478   1.655  -1.733  0.00  0.00    -0.080 HD
ENDROOT
BRANCH   1   3
ATOM      3  C   UNL     1       0.397   0.527  -0.288  0.00  0.00    -0.053 C 
ATOM      4  C   UNL     1       0.655  -0.669  -1.206  0.00  0.00    -0.016 C 
ATOM      5  C   UNL     1       1.662   1.390  -0.183  0.00  0.00    +0.005 C 
ATOM      6  C   UNL     1       1.746  -1.564  -0.617  0.00  0.00    +0.027 C 
ATOM      7  C   UNL     1       2.906   0.583   0.102  0.00  0.00    -0.025 C 
ATOM      8  C   UNL     1       2.957  -0.801  -0.143  0.00  0.00    +0.007 C 
ATOM      9  C   UNL     1       4.054   1.244   0.564  0.00  0.00    -0.004 C 
ATOM     10  C   UNL     1       4.144  -1.503   0.115  0.00  0.00    +0.129 C 
ATOM     11  C   UNL     1       5.232   0.537   0.806  0.00  0.00    +0.003 C 
ATOM     12  C   UNL     1       5.276  -0.836   0.584  0.00  0.00    +0.036 C 
BRANCH  10  13
ATOM     13  O   UNL     1       4.219  -2.851  -0.081  0.00  0.00    -0.506 OA
ATOM     14  H   UNL     1       3.472  -3.321  -0.396  0.00  0.00    +0.292 HD
ENDBRANCH  10  13
ENDBRANCH   1   3
BRANCH   1  15
ATOM     15  C   UNL     1      -1.926   0.500  -0.902  0.00  0.00    -0.072 C 
BRANCH  15  16
ATOM     16  C   UNL     1      -2.299  -0.099   0.456  0.00  0.00    +0.010 C 
BRANCH  16  18
ATOM     17  S   UNL     1      -4.876  -0.582   1.318  0.00  0.00    -0.091 S 
ATOM     18  C   UNL     1      -3.530  -0.966   0.356  0.00  0.00    +0.005 C 
ATOM     19  C   UNL     1      -3.711  -2.057  -0.434  0.00  0.00    +0.003 C 
ATOM     20  C   UNL     1      -5.010  -2.613  -0.250  0.00  0.00    +0.007 C 
ATOM     21  C   UNL     1      -5.748  -1.908   0.675  0.00  0.00    +0.035 C 
ENDBRANCH  16  18
ENDBRANCH  15  16
ENDBRANCH   1  15
BRANCH   1  22
ATOM     22  C   UNL     1      -0.961   2.479   0.059  0.00  0.00    -0.077 C 
BRANCH  22  23
ATOM     23  C   UNL     1      -2.104   3.323  -0.498  0.00  0.00    -0.023 C 
ATOM     24  C   UNL     1      -2.361   4.548   0.367  0.00  0.00    -0.002 C 
ENDBRANCH  22  23
ENDBRANCH   1  22
TORSDOF 7
