REMARK  Name = 3025986
REMARK  5 active torsions:
REMARK  status: ('A' for Active; 'I' for Inactive)
REMARK    1  A    between atoms: C_5  and  C_11
REMARK    2  A    between atoms: C_7  and  S_18
REMARK    3  A    between atoms: S_18  and  C_19
REMARK    4  A    between atoms: C_19  and  C_24
REMARK    5  A    between atoms: C_22  and  C_25
REMARK                            x       y       z     vdW  Elec       q    Type
REMARK                         _______ _______ _______ _____ _____    ______ ____
ROOT
ATOM      1  S   UNL     1       0.672   1.993  -1.365  0.00  0.00    -0.045 S 
ATOM      2  O   UNL     1      -3.029   1.233   1.346  0.00  0.00    -0.275 OA
ATOM      3  N   UNL     1      -1.772   1.382  -0.643  0.00  0.00    -0.264 N 
ATOM      4  N   UNL     1      -0.195   2.002   1.070  0.00  0.00    -0.222 NA
ATOM      5  C   UNL     1      -2.901   1.144   0.130  0.00  0.00    +0.227 C 
ATOM      6  C   UNL     1      -0.521   1.783  -0.167  0.00  0.00    +0.166 C 
ATOM      7  C   UNL     1       1.771   2.430  -0.123  0.00  0.00    +0.077 C 
ATOM      8  C   UNL     1       1.134   2.377   1.099  0.00  0.00    +0.114 C 
ATOM      9  H   UNL     1      -1.862   1.257  -1.616  0.00  0.00    +0.157 HD
ENDROOT
BRANCH   5  11
ATOM     10  N   UNL     1      -5.009  -1.936   0.031  0.00  0.00    +0.384 N 
ATOM     11  C   UNL     1      -4.062   0.733  -0.733  0.00  0.00    +0.073 C 
ATOM     12  C   UNL     1      -3.723  -0.522  -1.540  0.00  0.00    -0.014 C 
ATOM     13  C   UNL     1      -5.319   0.517   0.113  0.00  0.00    -0.014 C 
ATOM     14  C   UNL     1      -3.739  -1.787  -0.679  0.00  0.00    -0.081 C 
ATOM     15  C   UNL     1      -5.268  -0.791   0.904  0.00  0.00    -0.081 C 
ATOM     16  H   UNL     1      -4.976  -2.784   0.596  0.00  0.00    -0.085 HD
ATOM     17  H   UNL     1      -5.759  -1.991  -0.658  0.00  0.00    -0.085 HD
ENDBRANCH   5  11
BRANCH   7  18
ATOM     18  S   UNL     1       3.435   2.865  -0.428  0.00  0.00    -0.096 S 
BRANCH  18  19
ATOM     19  C   UNL     1       4.297   1.595   0.536  0.00  0.00    +0.148 C 
BRANCH  19  24
ATOM     20  O   UNL     1       2.922  -0.375   0.582  0.00  0.00    -0.442 OA
ATOM     21  N   UNL     1       4.637  -0.441  -0.891  0.00  0.00    -0.210 NA
ATOM     22  C   UNL     1       2.884  -1.576  -0.058  0.00  0.00    +0.143 C 
ATOM     23  C   UNL     1       3.926  -1.612  -0.951  0.00  0.00    +0.135 C 
ATOM     24  C   UNL     1       3.993   0.219   0.018  0.00  0.00    +0.217 C 
BRANCH  22  25
ATOM     25  C   UNL     1       1.814  -2.504   0.321  0.00  0.00    +0.053 C 
ATOM     26  C   UNL     1       2.234  -4.012   0.158  0.00  0.00    +0.008 C 
ATOM     27  C   UNL     1       0.511  -2.310  -0.540  0.00  0.00    +0.008 C 
ATOM     28  C   UNL     1       1.307  -2.405   1.813  0.00  0.00    +0.008 C 
ENDBRANCH  22  25
ENDBRANCH  19  24
ENDBRANCH  18  19
ENDBRANCH   7  18
TORSDOF 5
