REMARK  Name = 10016012
REMARK  3 active torsions:
REMARK  status: ('A' for Active; 'I' for Inactive)
REMARK    1  A    between atoms: C_4  and  C_15
REMARK    2  A    between atoms: C_9  and  O_13
REMARK    3  A    between atoms: C_15  and  N_16
REMARK                            x       y       z     vdW  Elec       q    Type
REMARK                         _______ _______ _______ _____ _____    ______ ____
ROOT
ATOM      1 CL   UNL     1       2.937   2.892   0.466  0.00  0.00    -0.086 Cl
ATOM      2 CL   UNL     1       3.933  -2.339   0.137  0.00  0.00    -0.079 Cl
ATOM      3  N   UNL     1      -0.801  -0.561  -0.477  0.00  0.00    -0.409 NA
ATOM      4  C   UNL     1      -1.679   0.466  -0.525  0.00  0.00    +0.088 C 
ATOM      5  C   UNL     1       0.945   1.041  -0.037  0.00  0.00    +0.110 C 
ATOM      6  C   UNL     1       0.494  -0.281  -0.237  0.00  0.00    +0.151 C 
ATOM      7  C   UNL     1      -1.333   1.790  -0.344  0.00  0.00    +0.022 C 
ATOM      8  C   UNL     1       0.002   2.076  -0.096  0.00  0.00    -0.012 C 
ATOM      9  C   UNL     1       1.432  -1.308  -0.179  0.00  0.00    +0.170 C 
ATOM     10  C   UNL     1       2.304   1.297   0.211  0.00  0.00    +0.047 C 
ATOM     11  C   UNL     1       2.783  -1.054   0.068  0.00  0.00    +0.094 C 
ATOM     12  C   UNL     1       3.220   0.250   0.264  0.00  0.00    +0.022 C 
ENDROOT
BRANCH   9  13
ATOM     13  O   UNL     1       1.011  -2.598  -0.370  0.00  0.00    -0.503 OA
ATOM     14  H   UNL     1       0.106  -2.775  -0.536  0.00  0.00    +0.292 HD
ENDBRANCH   9  13
BRANCH   4  15
ATOM     15  C   UNL     1      -3.104   0.112  -0.794  0.00  0.00    -0.017 C 
BRANCH  15  16
ATOM     16  N   UNL     1      -3.788  -0.130   0.472  0.00  0.00    +0.389 N 
ATOM     17  C   UNL     1      -3.152  -1.230   1.198  0.00  0.00    -0.100 C 
ATOM     18  C   UNL     1      -5.204  -0.422   0.243  0.00  0.00    -0.100 C 
ATOM     19  H   UNL     1      -3.720   0.715   1.040  0.00  0.00    -0.079 HD
ENDBRANCH  15  16
ENDBRANCH   4  15
TORSDOF 3
