REMARK  Name = 6918638
REMARK  6 active torsions:
REMARK  status: ('A' for Active; 'I' for Inactive)
REMARK    1  A    between atoms: C_1  and  S_7
REMARK    2  A    between atoms: C_3  and  C_18
REMARK    3  A    between atoms: S_7  and  N_10
REMARK    4  A    between atoms: N_10  and  C_12
REMARK    5  A    between atoms: C_19  and  C_22
REMARK    6  A    between atoms: N_21  and  O_24
REMARK                            x       y       z     vdW  Elec       q    Type
REMARK                         _______ _______ _______ _____ _____    ______ ____
ROOT
ATOM      1  C   UNL     1      -1.729  -1.336  -0.260  0.00  0.00    +0.125 C 
ATOM      2  C   UNL     1      -0.357  -1.110  -0.366  0.00  0.00    +0.020 C 
ATOM      3  C   UNL     1       0.530  -1.812   0.451  0.00  0.00    +0.001 C 
ATOM      4  C   UNL     1      -2.214  -2.263   0.663  0.00  0.00    +0.020 C 
ATOM      5  C   UNL     1       0.045  -2.738   1.374  0.00  0.00    +0.000 C 
ATOM      6  C   UNL     1      -1.327  -2.964   1.480  0.00  0.00    +0.001 C 
ENDROOT
BRANCH   1   7
ATOM      7  S   UNL     1      -2.841  -0.459  -1.282  0.00  0.00    +0.074 S 
ATOM      8  O   UNL     1      -4.061  -1.249  -1.391  0.00  0.00    -0.150 OA
ATOM      9  O   UNL     1      -2.144  -0.069  -2.502  0.00  0.00    -0.150 OA
BRANCH   7  10
ATOM     10  N   UNL     1      -3.194   0.944  -0.346  0.00  0.00    -0.215 N 
ATOM     11  H   UNL     1      -4.124   1.210  -0.164  0.00  0.00    +0.174 HD
BRANCH  10  12
ATOM     12  C   UNL     1      -2.090   1.715   0.160  0.00  0.00    +0.065 C 
ATOM     13  C   UNL     1      -1.181   2.279  -0.728  0.00  0.00    +0.016 C 
ATOM     14  C   UNL     1      -1.946   1.890   1.531  0.00  0.00    +0.016 C 
ATOM     15  C   UNL     1      -0.111   3.027  -0.237  0.00  0.00    +0.001 C 
ATOM     16  C   UNL     1      -0.876   2.638   2.022  0.00  0.00    +0.001 C 
ATOM     17  C   UNL     1       0.041   3.207   1.138  0.00  0.00    +0.000 C 
ENDBRANCH  10  12
ENDBRANCH   7  10
ENDBRANCH   1   7
BRANCH   3  18
ATOM     18  C   UNL     1       1.962  -1.577   0.341  0.00  0.00    +0.005 C 
ATOM     19  C   UNL     1       2.533  -0.480  -0.205  0.00  0.00    +0.060 C 
BRANCH  19  22
ATOM     20  O   UNL     1       4.777  -1.203   0.171  0.00  0.00    -0.268 OA
ATOM     21  N   UNL     1       4.393   0.844  -0.832  0.00  0.00    -0.193 N 
ATOM     22  C   UNL     1       4.015  -0.342  -0.255  0.00  0.00    +0.268 C 
ATOM     23  H   UNL     1       3.737   1.501  -1.157  0.00  0.00    +0.183 HD
BRANCH  21  24
ATOM     24  O   UNL     1       5.775   1.058  -0.926  0.00  0.00    -0.295 OA
ATOM     25  H   UNL     1       5.941   1.917  -1.345  0.00  0.00    +0.241 HD
ENDBRANCH  21  24
ENDBRANCH  19  22
ENDBRANCH   3  18
TORSDOF 6
