REMARK  Name = 65632
REMARK  6 active torsions:
REMARK  status: ('A' for Active; 'I' for Inactive)
REMARK    1  A    between atoms: N_2  and  C_7
REMARK    2  A    between atoms: C_3  and  C_11
REMARK    3  A    between atoms: C_11  and  S_12
REMARK    4  A    between atoms: S_12  and  C_13
REMARK    5  A    between atoms: C_13  and  C_15
REMARK    6  A    between atoms: C_15  and  O_16
REMARK                            x       y       z     vdW  Elec       q    Type
REMARK                         _______ _______ _______ _____ _____    ______ ____
ROOT
ATOM      1  O   UNL     1       0.453   1.490   1.886  0.00  0.00    -0.274 OA
ATOM      2  N   UNL     1       1.135   0.497  -0.104  0.00  0.00    -0.298 N 
ATOM      3  C   UNL     1       0.224   1.139   0.730  0.00  0.00    +0.234 C 
ATOM      4  H   UNL     1       0.845   0.260  -1.015  0.00  0.00    +0.150 HD
ENDROOT
BRANCH   2   7
ATOM      5  S   UNL     1       4.593  -1.059  -0.839  0.00  0.00    -0.075 S 
ATOM      6  O   UNL     1       3.334   1.042  -1.815  0.00  0.00    -0.283 OA
ATOM      7  C   UNL     1       2.472   0.163   0.292  0.00  0.00    +0.141 C 
ATOM      8  C   UNL     1       2.576  -1.260   0.830  0.00  0.00    +0.040 C 
ATOM      9  C   UNL     1       4.041  -1.653   0.784  0.00  0.00    +0.067 C 
ATOM     10  C   UNL     1       3.376   0.216  -0.917  0.00  0.00    +0.216 C 
ENDBRANCH   2   7
BRANCH   3  11
ATOM     11  C   UNL     1      -1.124   1.363   0.085  0.00  0.00    +0.143 C 
BRANCH  11  12
ATOM     12  S   UNL     1      -2.189  -0.054   0.444  0.00  0.00    -0.119 S 
BRANCH  12  13
ATOM     13  C   UNL     1      -3.673   0.495  -0.432  0.00  0.00    +0.167 C 
BRANCH  13  15
ATOM     14  O   UNL     1      -4.862  -1.280   0.683  0.00  0.00    -0.249 OA
ATOM     15  C   UNL     1      -4.751  -0.540  -0.286  0.00  0.00    +0.325 C 
BRANCH  15  16
ATOM     16  O   UNL     1      -5.605  -0.560  -1.341  0.00  0.00    -0.480 OA
ATOM     17  H   UNL     1      -5.476   0.028  -2.059  0.00  0.00    +0.295 HD
ENDBRANCH  15  16
ENDBRANCH  13  15
ENDBRANCH  12  13
ENDBRANCH  11  12
ENDBRANCH   3  11
TORSDOF 6
