REMARK  Name = 56841552
REMARK  5 active torsions:
REMARK  status: ('A' for Active; 'I' for Inactive)
REMARK    1  A    between atoms: N_2  and  C_21
REMARK    2  A    between atoms: C_21  and  C_24
REMARK    3  A    between atoms: N_23  and  C_26
REMARK    4  A    between atoms: C_26  and  C_27
REMARK    5  A    between atoms: C_27  and  N_28
REMARK                            x       y       z     vdW  Elec       q    Type
REMARK                         _______ _______ _______ _____ _____    ______ ____
ROOT
ATOM      1 CL   UNL     1       1.098   5.815  -0.659  0.00  0.00    -0.082 Cl
ATOM      2  N   UNL     1       0.334   0.231   0.901  0.00  0.00    -0.292 N 
ATOM      3  N   UNL     1      -1.677  -1.096   0.698  0.00  0.00    -0.379 NA
ATOM      4  N   UNL     1      -2.735   1.308  -0.410  0.00  0.00    -0.395 NA
ATOM      5  C   UNL     1       0.709   1.524   0.602  0.00  0.00    +0.065 A 
ATOM      6  C   UNL     1      -0.973   0.035   0.554  0.00  0.00    +0.225 A 
ATOM      7  C   UNL     1      -0.404   2.166   0.046  0.00  0.00    +0.050 A 
ATOM      8  C   UNL     1      -1.456   1.213   0.022  0.00  0.00    +0.179 A 
ATOM      9  C   UNL     1      -2.944  -0.999   0.269  0.00  0.00    +0.162 C 
ATOM     10  C   UNL     1      -3.469   0.194  -0.281  0.00  0.00    +0.161 C 
ATOM     11  C   UNL     1       1.938   2.169   0.780  0.00  0.00    +0.018 C 
ATOM     12  C   UNL     1      -0.282   3.513  -0.350  0.00  0.00    +0.016 C 
ATOM     13  C   UNL     1      -3.771  -2.114   0.369  0.00  0.00    +0.030 C 
ATOM     14  C   UNL     1      -4.794   0.213  -0.704  0.00  0.00    +0.030 C 
ATOM     15  C   UNL     1      -5.097  -2.080  -0.058  0.00  0.00    -0.023 C 
ATOM     16  C   UNL     1      -5.611  -0.911  -0.597  0.00  0.00    -0.023 C 
ATOM     17  C   UNL     1       2.034   3.505   0.379  0.00  0.00    +0.013 C 
ATOM     18  C   UNL     1       0.942   4.168  -0.177  0.00  0.00    +0.058 C 
ATOM     19  C   UNL     1      -5.938  -3.306   0.075  0.00  0.00    +0.031 C 
ATOM     20  C   UNL     1      -7.025  -0.833  -1.067  0.00  0.00    +0.031 C 
ENDROOT
BRANCH   2  21
ATOM     21  C   UNL     1       1.192  -0.772   1.494  0.00  0.00    +0.194 C 
BRANCH  21  24
ATOM     22  O   UNL     1       1.976  -1.444  -0.696  0.00  0.00    -0.273 OA
ATOM     23  N   UNL     1       3.329  -1.816   1.155  0.00  0.00    -0.305 N 
ATOM     24  C   UNL     1       2.181  -1.373   0.513  0.00  0.00    +0.246 C 
ATOM     25  H   UNL     1       3.390  -1.711   2.132  0.00  0.00    +0.149 HD
BRANCH  23  26
ATOM     26  C   UNL     1       4.438  -2.424   0.457  0.00  0.00    +0.067 C 
BRANCH  26  27
ATOM     27  C   UNL     1       5.451  -1.378   0.017  0.00  0.00    -0.056 C 
BRANCH  27  28
ATOM     28  N   UNL     1       6.575  -2.014  -0.659  0.00  0.00    +0.385 N 
ATOM     29  C   UNL     1       7.753  -1.145  -0.632  0.00  0.00    -0.101 C 
ATOM     30  C   UNL     1       6.224  -2.348  -2.041  0.00  0.00    -0.101 C 
ATOM     31  H   UNL     1       6.796  -2.877  -0.163  0.00  0.00    -0.080 HD
ENDBRANCH  27  28
ENDBRANCH  26  27
ENDBRANCH  23  26
ENDBRANCH  21  24
ENDBRANCH   2  21
TORSDOF 5
