REMARK  Name = 9905233
REMARK  8 active torsions:
REMARK  status: ('A' for Active; 'I' for Inactive)
REMARK    1  A    between atoms: C_2  and  C_18
REMARK    2  A    between atoms: C_5  and  C_6
REMARK    3  A    between atoms: C_7  and  C_8
REMARK    4  A    between atoms: C_8  and  C_9
REMARK    5  A    between atoms: C_9  and  N_11
REMARK    6  A    between atoms: N_11  and  O_16
REMARK    7  A    between atoms: C_18  and  O_19
REMARK    8  A    between atoms: O_19  and  C_21
REMARK                            x       y       z     vdW  Elec       q    Type
REMARK                         _______ _______ _______ _____ _____    ______ ____
ROOT
ATOM      1  O   UNL     1       0.128  -1.311  -0.183  0.00  0.00    -0.342 OA
ATOM      2  C   UNL     1      -0.803  -0.564   0.618  0.00  0.00    +0.160 C 
ATOM      3  C   UNL     1      -0.563   0.897   0.283  0.00  0.00    +0.037 C 
ATOM      4  C   UNL     1       0.930   0.910   0.061  0.00  0.00    +0.046 C 
ATOM      5  C   UNL     1       1.157  -0.417  -0.646  0.00  0.00    +0.178 C 
ENDROOT
BRANCH   5   6
ATOM      6  C   UNL     1       2.479  -0.979  -0.368  0.00  0.00    -0.062 C 
ATOM      7  C   UNL     1       3.565  -1.441  -0.141  0.00  0.00    -0.087 C 
BRANCH   7   8
ATOM      8  C   UNL     1       4.893  -2.008   0.136  0.00  0.00    +0.100 C 
BRANCH   8   9
ATOM      9  C   UNL     1       6.014  -1.107  -0.367  0.00  0.00    +0.139 C 
BRANCH   9  11
ATOM     10  O   UNL     1       5.719   1.389  -1.723  0.00  0.00    -0.251 OA
ATOM     11  N   UNL     1       5.971   0.201   0.230  0.00  0.00    -0.155 N 
ATOM     12  N   UNL     1       5.815   2.521   0.257  0.00  0.00    -0.312 N 
ATOM     13  C   UNL     1       5.826   1.363  -0.495  0.00  0.00    +0.323 C 
ATOM     14  H   UNL     1       5.715   3.394  -0.186  0.00  0.00    +0.147 HD
ATOM     15  H   UNL     1       5.908   2.473   1.236  0.00  0.00    +0.147 HD
BRANCH  11  16
ATOM     16  O   UNL     1       6.093   0.171   1.629  0.00  0.00    -0.291 OA
ATOM     17  H   UNL     1       6.185  -0.748   1.926  0.00  0.00    +0.242 HD
ENDBRANCH  11  16
ENDBRANCH   9  11
ENDBRANCH   8   9
ENDBRANCH   7   8
ENDBRANCH   5   6
BRANCH   2  18
ATOM     18  C   UNL     1      -2.217  -1.027   0.328  0.00  0.00    +0.235 C 
BRANCH  18  19
ATOM     19  O   UNL     1      -3.121  -0.260   1.108  0.00  0.00    -0.473 OA
BRANCH  19  21
ATOM     20  F   UNL     1      -8.114   0.609  -1.005  0.00  0.00    -0.204 F 
ATOM     21  C   UNL     1      -4.368  -0.044   0.580  0.00  0.00    +0.139 C 
ATOM     22  C   UNL     1      -4.929  -0.990  -0.270  0.00  0.00    +0.039 C 
ATOM     23  C   UNL     1      -5.057   1.119   0.901  0.00  0.00    +0.039 C 
ATOM     24  C   UNL     1      -6.197  -0.769  -0.807  0.00  0.00    +0.033 C 
ATOM     25  C   UNL     1      -6.326   1.340   0.364  0.00  0.00    +0.033 C 
ATOM     26  C   UNL     1      -6.896   0.396  -0.490  0.00  0.00    +0.140 C 
ENDBRANCH  19  21
ENDBRANCH  18  19
ENDBRANCH   2  18
TORSDOF 8
