REMARK  Name = 774
REMARK  3 active torsions:
REMARK  status: ('A' for Active; 'I' for Inactive)
REMARK    1  A    between atoms: C_3  and  C_8
REMARK    2  A    between atoms: C_8  and  C_9
REMARK    3  A    between atoms: C_9  and  N_10
REMARK                            x       y       z     vdW  Elec       q    Type
REMARK                         _______ _______ _______ _____ _____    ______ ____
ROOT
ATOM      1  N   UNL     1      -1.120   1.114  -0.089  0.00  0.00    -0.319 N 
ATOM      2  N   UNL     1      -2.243  -0.802  -0.089  0.00  0.00    -0.315 N 
ATOM      3  C   UNL     1      -0.248   0.141   0.234  0.00  0.00    +0.035 C 
ATOM      4  C   UNL     1      -0.928  -1.025   0.234  0.00  0.00    +0.069 C 
ATOM      5  C   UNL     1      -2.325   0.496  -0.277  0.00  0.00    +0.182 C 
ATOM      6  H   UNL     1      -0.929   2.077  -0.172  0.00  0.00    +0.148 HD
ATOM      7  H   UNL     1      -2.964  -1.467  -0.164  0.00  0.00    +0.148 HD
ENDROOT
BRANCH   3   8
ATOM      8  C   UNL     1       1.201   0.447   0.517  0.00  0.00    +0.018 C 
BRANCH   8   9
ATOM      9  C   UNL     1       2.132  -0.330  -0.414  0.00  0.00    -0.080 C 
BRANCH   9  10
ATOM     10  N   UNL     1       3.531  -0.042  -0.115  0.00  0.00    +0.381 N 
ATOM     11  H   UNL     1       4.130  -0.571  -0.749  0.00  0.00    -0.089 HD
ATOM     12  H   UNL     1       3.734  -0.309   0.848  0.00  0.00    -0.089 HD
ATOM     13  H   UNL     1       3.706   0.956  -0.235  0.00  0.00    -0.089 HD
ENDBRANCH   9  10
ENDBRANCH   8   9
ENDBRANCH   3   8
TORSDOF 3
