REMARK  Name = 3671
REMARK  3 active torsions:
REMARK  status: ('A' for Active; 'I' for Inactive)
REMARK    1  A    between atoms: C_3  and  C_14
REMARK    2  A    between atoms: C_4  and  C_10
REMARK    3  A    between atoms: C_14  and  C_15
REMARK                            x       y       z     vdW  Elec       q    Type
REMARK                         _______ _______ _______ _____ _____    ______ ____
ROOT
ATOM      1  N   UNL     1      -1.710  -0.784   0.065  0.00  0.00    -0.228 N 
ATOM      2  N   UNL     1      -0.909  -1.884   0.102  0.00  0.00    -0.169 NA
ATOM      3  C   UNL     1       0.370  -0.003  -0.113  0.00  0.00    +0.068 A 
ATOM      4  C   UNL     1       0.329  -1.401  -0.006  0.00  0.00    +0.083 A 
ATOM      5  C   UNL     1      -0.948   0.381  -0.067  0.00  0.00    +0.087 A 
ATOM      6  C   UNL     1      -1.631   1.628  -0.122  0.00  0.00    +0.019 C 
ATOM      7  C   UNL     1      -3.107  -0.746   0.142  0.00  0.00    +0.100 C 
ATOM      8  C   UNL     1      -2.975   1.653  -0.046  0.00  0.00    +0.003 C 
ATOM      9  C   UNL     1      -3.748   0.432   0.090  0.00  0.00    +0.021 C 
ENDROOT
BRANCH   4  10
ATOM     10  C   UNL     1       1.469  -2.336   0.002  0.00  0.00    +0.042 C 
ATOM     11  C   UNL     1       1.464  -3.323  -1.190  0.00  0.00    +0.006 C 
ATOM     12  C   UNL     1       1.605  -3.134   1.320  0.00  0.00    +0.006 C 
ENDBRANCH   4  10
BRANCH   3  14
ATOM     13  O   UNL     1       2.566   0.494  -0.797  0.00  0.00    -0.291 OA
ATOM     14  C   UNL     1       1.502   0.866  -0.242  0.00  0.00    +0.175 C 
BRANCH  14  15
ATOM     15  C   UNL     1       1.488   2.318   0.314  0.00  0.00    +0.062 C 
ATOM     16  C   UNL     1       2.599   2.484   1.347  0.00  0.00    +0.008 C 
ATOM     17  C   UNL     1       1.638   3.356  -0.800  0.00  0.00    +0.008 C 
ENDBRANCH  14  15
ENDBRANCH   3  14
TORSDOF 3
