REMARK  Name = 9942725
REMARK  4 active torsions:
REMARK  status: ('A' for Active; 'I' for Inactive)
REMARK    1  A    between atoms: N_2  and  C_11
REMARK    2  A    between atoms: C_3  and  C_9
REMARK    3  A    between atoms: C_11  and  C_14
REMARK    4  A    between atoms: C_11  and  C_17
REMARK                            x       y       z     vdW  Elec       q    Type
REMARK                         _______ _______ _______ _____ _____    ______ ____
ROOT
ATOM      1  O   UNL     1       1.044   1.787  -2.006  0.00  0.00    -0.275 OA
ATOM      2  N   UNL     1       0.875   0.452  -0.076  0.00  0.00    -0.273 N 
ATOM      3  C   UNL     1      -1.354   0.880   0.481  0.00  0.00    +0.056 C 
ATOM      4  C   UNL     1      -0.055   0.292   1.019  0.00  0.00    +0.099 C 
ATOM      5  C   UNL     1      -0.881   1.923  -0.537  0.00  0.00    +0.091 C 
ATOM      6  C   UNL     1       0.455   1.396  -1.009  0.00  0.00    +0.226 C 
ENDROOT
BRANCH   3   9
ATOM      7  F   UNL     1      -4.151  -1.428  -0.411  0.00  0.00    -0.172 F 
ATOM      8  F   UNL     1      -4.046   0.214   1.244  0.00  0.00    -0.172 F 
ATOM      9  C   UNL     1      -2.214  -0.173  -0.151  0.00  0.00    +0.036 C 
ATOM     10  C   UNL     1      -3.464  -0.458   0.229  0.00  0.00    +0.275 C 
ENDBRANCH   3   9
BRANCH   2  11
ATOM     11  C   UNL     1       2.154  -0.225  -0.087  0.00  0.00    +0.151 C 
BRANCH  11  14
ATOM     12  O   UNL     1       2.345  -2.587   0.447  0.00  0.00    -0.274 OA
ATOM     13  N   UNL     1       1.197  -1.982  -1.448  0.00  0.00    -0.327 N 
ATOM     14  C   UNL     1       1.916  -1.713  -0.303  0.00  0.00    +0.237 C 
ATOM     15  H   UNL     1       0.984  -2.913  -1.688  0.00  0.00    +0.145 HD
ATOM     16  H   UNL     1       0.896  -1.244  -2.025  0.00  0.00    +0.145 HD
ENDBRANCH  11  14
BRANCH  11  17
ATOM     17  C   UNL     1       2.975   0.069   1.172  0.00  0.00    +0.029 C 
ATOM     18  C   UNL     1       3.204   1.553   1.437  0.00  0.00    +0.002 C 
ENDBRANCH  11  17
ENDBRANCH   2  11
TORSDOF 4
