REMARK  Name = 100094
REMARK  11 active torsions:
REMARK  status: ('A' for Active; 'I' for Inactive)
REMARK    1  A    between atoms: CA_1  and  N_3
REMARK    2  A    between atoms: CA_1  and  C_18
REMARK    3  A    between atoms: CA_1  and  CB_21
REMARK    4  A    between atoms: C_4  and  CA_6
REMARK    5  A    between atoms: CA_6  and  N_7
REMARK    6  A    between atoms: CA_6  and  CB_11
REMARK    7  A    between atoms: CB_11  and  CG_12
REMARK    8  A    between atoms: CG_12  and  CD_14
REMARK    9  A    between atoms: CD_14  and  OE1_15
REMARK   10  A    between atoms: C_18  and  O_19
REMARK   11  A    between atoms: CB_21  and  CG_23
REMARK                            x       y       z     vdW  Elec       q    Type
REMARK                         _______ _______ _______ _____ _____    ______ ____
ROOT
ATOM      1  CA  TRP A   2      -0.325  -1.962  -0.183  0.00  0.00    +0.176 C 
ENDROOT
BRANCH   1   3
ATOM      2  O   GLU A   1      -0.855  -0.038  -2.277  0.00  0.00    -0.277 OA
ATOM      3  N   TRP A   2      -0.726  -0.582  -0.023  0.00  0.00    -0.298 N 
ATOM      4  C   GLU A   1      -0.959   0.270  -1.092  0.00  0.00    +0.202 C 
ATOM      5  H   TRP A   2      -0.838  -0.231   0.890  0.00  0.00    +0.150 HD
BRANCH   4   6
ATOM      6  CA  GLU A   1      -1.337   1.678  -0.641  0.00  0.00    +0.013 C 
BRANCH   6   7
ATOM      7  N   GLU A   1      -0.272   2.564  -1.114  0.00  0.00    +0.387 N 
ATOM      8  H1  GLU A   1      -0.480   3.523  -0.836  0.00  0.00    -0.089 HD
ATOM      9  H2  GLU A   1      -0.212   2.510  -2.131  0.00  0.00    -0.089 HD
ATOM     10  H3  GLU A   1       0.617   2.276  -0.706  0.00  0.00    -0.089 HD
ENDBRANCH   6   7
BRANCH   6  11
ATOM     11  CB  GLU A   1      -2.679   2.138  -1.229  0.00  0.00    -0.001 C 
BRANCH  11  12
ATOM     12  CG  GLU A   1      -3.849   1.221  -0.874  0.00  0.00    +0.108 C 
BRANCH  12  14
ATOM     13  OE2 GLU A   1      -3.849   2.089   1.379  0.00  0.00    -0.250 OA
ATOM     14  CD  GLU A   1      -4.090   1.164   0.614  0.00  0.00    +0.314 C 
BRANCH  14  15
ATOM     15  OE1 GLU A   1      -4.579  -0.032   1.024  0.00  0.00    -0.480 OA
ATOM     16  HE1 GLU A   1      -4.747  -0.709   0.399  0.00  0.00    +0.295 HD
ENDBRANCH  14  15
ENDBRANCH  12  14
ENDBRANCH  11  12
ENDBRANCH   6  11
ENDBRANCH   4   6
ENDBRANCH   1   3
BRANCH   1  18
ATOM     17  OXT TRP A   2      -1.316  -4.125   0.255  0.00  0.00    -0.248 OA
ATOM     18  C   TRP A   2      -1.391  -2.905   0.356  0.00  0.00    +0.332 C 
BRANCH  18  19
ATOM     19  O   TRP A   2      -2.441  -2.294   0.955  0.00  0.00    -0.479 OA
ATOM     20  H   TRP A   2      -2.467  -1.359   1.016  0.00  0.00    +0.295 HD
ENDBRANCH  18  19
ENDBRANCH   1  18
BRANCH   1  21
ATOM     21  CB  TRP A   2       1.019  -2.239   0.504  0.00  0.00    +0.059 C 
BRANCH  21  23
ATOM     22  NE1 TRP A   2       3.833  -0.648  -1.195  0.00  0.00    -0.312 N 
ATOM     23  CG  TRP A   2       2.136  -1.371  -0.004  0.00  0.00    -0.004 C 
ATOM     24  CD2 TRP A   2       2.501  -0.114   0.514  0.00  0.00    +0.011 C 
ATOM     25  CE2 TRP A   2       3.580   0.327  -0.256  0.00  0.00    +0.048 C 
ATOM     26  CD1 TRP A   2       2.954  -1.687  -1.045  0.00  0.00    +0.058 C 
ATOM     27  CE3 TRP A   2       2.034   0.707   1.559  0.00  0.00    +0.001 C 
ATOM     28  CZ2 TRP A   2       4.217   1.553  -0.032  0.00  0.00    +0.015 C 
ATOM     29  CZ3 TRP A   2       2.661   1.936   1.795  0.00  0.00    +0.000 C 
ATOM     30  CH2 TRP A   2       3.736   2.350   1.010  0.00  0.00    +0.001 C 
ATOM     31  HE1 TRP A   2       4.543  -0.604  -1.875  0.00  0.00    +0.152 HD
ENDBRANCH  21  23
ENDBRANCH   1  21
TORSDOF 11
