REMARK  Name = 9821217
REMARK  7 active torsions:
REMARK  status: ('A' for Active; 'I' for Inactive)
REMARK    1  A    between atoms: N_1  and  C_5
REMARK    2  A    between atoms: N_1  and  C_18
REMARK    3  A    between atoms: C_6  and  C_12
REMARK    4  A    between atoms: C_18  and  C_19
REMARK    5  A    between atoms: C_20  and  O_25
REMARK    6  A    between atoms: C_22  and  O_27
REMARK    7  A    between atoms: O_27  and  C_31
REMARK                            x       y       z     vdW  Elec       q    Type
REMARK                         _______ _______ _______ _____ _____    ______ ____
ROOT
ATOM      1  N   UNL     1      -0.679   0.591  -0.124  0.00  0.00    +0.387 N 
ATOM      2  H   UNL     1      -1.008  -0.342  -0.373  0.00  0.00    -0.084 HD
ATOM      3  H   UNL     1      -0.376   0.610   0.850  0.00  0.00    -0.084 HD
ENDROOT
BRANCH   1   5
ATOM      4  N   UNL     1      -4.012   2.301   0.480  0.00  0.00    +0.386 N 
ATOM      5  C   UNL     1      -1.771   1.548  -0.296  0.00  0.00    -0.077 C 
ATOM      6  C   UNL     1      -2.914   1.343   0.738  0.00  0.00    -0.058 C 
ATOM      7  C   UNL     1      -2.249   1.576  -1.755  0.00  0.00    -0.025 C 
ATOM      8  C   UNL     1      -3.441   2.513  -1.916  0.00  0.00    -0.026 C 
ATOM      9  C   UNL     1      -4.526   2.211  -0.889  0.00  0.00    -0.081 C 
ATOM     10  H   UNL     1      -3.664   3.247   0.637  0.00  0.00    -0.084 HD
ATOM     11  H   UNL     1      -4.778   2.072   1.113  0.00  0.00    -0.084 HD
BRANCH   6  12
ATOM     12  C   UNL     1      -3.463  -0.053   1.021  0.00  0.00    -0.044 C 
ATOM     13  C   UNL     1      -3.973  -0.352   2.280  0.00  0.00    -0.006 C 
ATOM     14  C   UNL     1      -3.450  -1.017   0.017  0.00  0.00    -0.006 C 
ATOM     15  C   UNL     1      -4.475  -1.627   2.539  0.00  0.00    -0.000 C 
ATOM     16  C   UNL     1      -3.951  -2.293   0.277  0.00  0.00    -0.000 C 
ATOM     17  C   UNL     1      -4.464  -2.598   1.537  0.00  0.00    -0.000 C 
ENDBRANCH   6  12
ENDBRANCH   1   5
BRANCH   1  18
ATOM     18  C   UNL     1       0.449   0.941  -0.972  0.00  0.00    -0.051 C 
BRANCH  18  19
ATOM     19  C   UNL     1       1.589  -0.023  -0.817  0.00  0.00    -0.007 C 
ATOM     20  C   UNL     1       1.673  -1.151  -1.626  0.00  0.00    +0.133 C 
ATOM     21  C   UNL     1       2.560   0.232   0.146  0.00  0.00    +0.034 C 
ATOM     22  C   UNL     1       3.627  -0.653   0.302  0.00  0.00    +0.147 C 
ATOM     23  C   UNL     1       2.739  -2.036  -1.469  0.00  0.00    +0.040 C 
ATOM     24  C   UNL     1       3.716  -1.787  -0.505  0.00  0.00    +0.040 C 
BRANCH  20  25
ATOM     25  O   UNL     1       0.726  -1.409  -2.571  0.00  0.00    -0.472 OA
ATOM     26  C   UNL     1      -0.396  -2.193  -2.168  0.00  0.00    +0.252 C 
ENDBRANCH  20  25
BRANCH  22  27
ATOM     27  O   UNL     1       4.580  -0.411   1.242  0.00  0.00    -0.404 OA
BRANCH  27  31
ATOM     28  F   UNL     1       5.450   1.194  -0.136  0.00  0.00    -0.133 F 
ATOM     29  F   UNL     1       6.570   0.580   1.637  0.00  0.00    -0.133 F 
ATOM     30  F   UNL     1       4.758   1.778   1.880  0.00  0.00    -0.133 F 
ATOM     31  C   UNL     1       5.327   0.797   1.148  0.00  0.00    +0.575 C 
ENDBRANCH  27  31
ENDBRANCH  22  27
ENDBRANCH  18  19
ENDBRANCH   1  18
TORSDOF 7
