REMARK  Name = 3080768
REMARK  10 active torsions:
REMARK  status: ('A' for Active; 'I' for Inactive)
REMARK    1  A    between atoms: N_2  and  CA_17
REMARK    2  A    between atoms: C_3  and  CA_7
REMARK    3  A    between atoms: C_11  and  CA_12
REMARK    4  A    between atoms: CA_12  and  N_13
REMARK    5  A    between atoms: CA_17  and  C_19
REMARK    6  A    between atoms: CA_17  and  CB_22
REMARK    7  A    between atoms: C_19  and  O_20
REMARK    8  A    between atoms: CB_22  and  CG_23
REMARK    9  A    between atoms: CG_23  and  CD_25
REMARK   10  A    between atoms: CD_25  and  OE1_26
REMARK                            x       y       z     vdW  Elec       q    Type
REMARK                         _______ _______ _______ _____ _____    ______ ____
ROOT
ATOM      1  O   PRO A   2       0.888   0.825  -1.549  0.00  0.00    -0.273 OA
ATOM      2  N   GLU A   3      -0.614   1.108   0.207  0.00  0.00    -0.295 N 
ATOM      3  C   PRO A   2       0.641   0.933  -0.351  0.00  0.00    +0.241 C 
ATOM      4  H   GLU A   3      -0.685   1.181   1.186  0.00  0.00    +0.150 HD
ENDROOT
BRANCH   3   7
ATOM      5  O   GLY A   1       1.764  -1.959   0.534  0.00  0.00    -0.277 OA
ATOM      6  N   PRO A   2       2.800   0.077   0.162  0.00  0.00    -0.275 N 
ATOM      7  CA  PRO A   2       1.724   0.909   0.685  0.00  0.00    +0.152 C 
ATOM      8  CB  PRO A   2       2.356   2.284   0.875  0.00  0.00    +0.031 C 
ATOM      9  CG  PRO A   2       3.449   2.323  -0.190  0.00  0.00    +0.024 C 
ATOM     10  CD  PRO A   2       3.951   0.887  -0.228  0.00  0.00    +0.094 C 
ATOM     11  C   GLY A   1       2.755  -1.308   0.198  0.00  0.00    +0.204 C 
BRANCH  11  12
ATOM     12  CA  GLY A   1       4.022  -2.010  -0.220  0.00  0.00    +0.001 C 
BRANCH  12  13
ATOM     13  N   GLY A   1       3.752  -3.428  -0.117  0.00  0.00    +0.386 N 
ATOM     14  H1  GLY A   1       4.583  -3.953  -0.390  0.00  0.00    -0.089 HD
ATOM     15  H2  GLY A   1       2.977  -3.672  -0.733  0.00  0.00    -0.089 HD
ATOM     16  H3  GLY A   1       3.506  -3.658   0.846  0.00  0.00    -0.089 HD
ENDBRANCH  12  13
ENDBRANCH  11  12
ENDBRANCH   3   7
BRANCH   2  17
ATOM     17  CA  GLU A   3      -1.824   1.188  -0.579  0.00  0.00    +0.172 C 
BRANCH  17  19
ATOM     18  OXT GLU A   3      -2.554   2.679   1.203  0.00  0.00    -0.248 OA
ATOM     19  C   GLU A   3      -2.751   2.171   0.107  0.00  0.00    +0.332 C 
BRANCH  19  20
ATOM     20  O   GLU A   3      -3.834   2.465  -0.659  0.00  0.00    -0.479 OA
ATOM     21  H   GLU A   3      -3.945   2.052  -1.493  0.00  0.00    +0.295 HD
ENDBRANCH  19  20
ENDBRANCH  17  19
BRANCH  17  22
ATOM     22  CB  GLU A   3      -2.457  -0.185  -0.834  0.00  0.00    +0.043 C 
BRANCH  22  23
ATOM     23  CG  GLU A   3      -2.922  -0.949   0.413  0.00  0.00    +0.112 C 
BRANCH  23  25
ATOM     24  OE2 GLU A   3      -3.648  -2.792  -1.005  0.00  0.00    -0.250 OA
ATOM     25  CD  GLU A   3      -3.527  -2.302   0.109  0.00  0.00    +0.314 C 
BRANCH  25  26
ATOM     26  OE1 GLU A   3      -3.971  -2.916   1.238  0.00  0.00    -0.480 OA
ATOM     27  HE1 GLU A   3      -3.857  -2.503   2.071  0.00  0.00    +0.295 HD
ENDBRANCH  25  26
ENDBRANCH  23  25
ENDBRANCH  22  23
ENDBRANCH  17  22
ENDBRANCH   2  17
TORSDOF 10
