REMARK  Name = 54682876
REMARK  5 active torsions:
REMARK  status: ('A' for Active; 'I' for Inactive)
REMARK    1  A    between atoms: C_5  and  C_15
REMARK    2  A    between atoms: C_6  and  O_27
REMARK    3  A    between atoms: C_8  and  O_29
REMARK    4  A    between atoms: N_14  and  C_17
REMARK    5  A    between atoms: C_20  and  C_26
REMARK                            x       y       z     vdW  Elec       q    Type
REMARK                         _______ _______ _______ _____ _____    ______ ____
ROOT
ATOM      1  O   UNL     1       1.128   2.842  -0.383  0.00  0.00    -0.267 OA
ATOM      2  N   UNL     1       3.263   2.003  -0.049  0.00  0.00    -0.293 N 
ATOM      3  C   UNL     1       4.115   0.865   0.093  0.00  0.00    +0.068 A 
ATOM      4  C   UNL     1       3.559  -0.421   0.027  0.00  0.00    +0.084 A 
ATOM      5  C   UNL     1       1.314   0.495  -0.325  0.00  0.00    +0.144 A 
ATOM      6  C   UNL     1       2.110  -0.581  -0.188  0.00  0.00    +0.147 A 
ATOM      7  C   UNL     1       1.889   1.880  -0.255  0.00  0.00    +0.268 A 
ATOM      8  C   UNL     1       4.402  -1.541   0.168  0.00  0.00    +0.143 C 
ATOM      9  C   UNL     1       5.502   1.001   0.299  0.00  0.00    +0.018 C 
ATOM     10  C   UNL     1       3.850   3.340   0.024  0.00  0.00    +0.134 C 
ATOM     11  C   UNL     1       5.772  -1.390   0.372  0.00  0.00    +0.037 C 
ATOM     12  C   UNL     1       6.322  -0.118   0.437  0.00  0.00    +0.005 C 
ENDROOT
BRANCH   5  15
ATOM     13  O   UNL     1      -0.507   0.279  -1.737  0.00  0.00    -0.269 OA
ATOM     14  N   UNL     1      -0.962   0.289   0.573  0.00  0.00    -0.253 N 
ATOM     15  C   UNL     1      -0.137   0.346  -0.564  0.00  0.00    +0.260 C 
ATOM     16  C   UNL     1      -0.404   0.381   1.933  0.00  0.00    +0.120 C 
BRANCH  14  17
ATOM     17  C   UNL     1      -2.397   0.136   0.403  0.00  0.00    +0.054 C 
ATOM     18  C   UNL     1      -3.024   0.650  -0.732  0.00  0.00    +0.015 C 
ATOM     19  C   UNL     1      -3.148  -0.525   1.375  0.00  0.00    +0.015 C 
ATOM     20  C   UNL     1      -5.152  -0.159   0.077  0.00  0.00    +0.072 C 
ATOM     21  C   UNL     1      -4.402   0.502  -0.895  0.00  0.00    +0.005 C 
ATOM     22  C   UNL     1      -4.525  -0.673   1.212  0.00  0.00    +0.005 C 
BRANCH  20  26
ATOM     23  F   UNL     1      -7.078   0.240  -1.259  0.00  0.00    -0.166 F 
ATOM     24  F   UNL     1      -7.035  -1.619  -0.133  0.00  0.00    -0.166 F 
ATOM     25  F   UNL     1      -7.359   0.262   0.896  0.00  0.00    -0.166 F 
ATOM     26  C   UNL     1      -6.625  -0.317  -0.099  0.00  0.00    +0.419 C 
ENDBRANCH  20  26
ENDBRANCH  14  17
ENDBRANCH   5  15
BRANCH   6  27
ATOM     27  O   UNL     1       1.655  -1.884  -0.221  0.00  0.00    -0.505 OA
ATOM     28  H   UNL     1       2.258  -2.593  -0.120  0.00  0.00    +0.292 HD
ENDBRANCH   6  27
BRANCH   8  29
ATOM     29  O   UNL     1       3.950  -2.830   0.116  0.00  0.00    -0.471 OA
ATOM     30  C   UNL     1       3.928  -3.452  -1.165  0.00  0.00    +0.252 C 
ENDBRANCH   8  29
TORSDOF 5
