REMARK  Name = 3035442
REMARK  10 active torsions:
REMARK  status: ('A' for Active; 'I' for Inactive)
REMARK    1  A    between atoms: C_1  and  N_11
REMARK    2  A    between atoms: C_9  and  O_25
REMARK    3  A    between atoms: N_11  and  C_14
REMARK    4  A    between atoms: C_14  and  C_15
REMARK    5  A    between atoms: C_15  and  C_17
REMARK    6  A    between atoms: C_15  and  O_23
REMARK    7  A    between atoms: O_25  and  C_26
REMARK    8  A    between atoms: C_26  and  C_28
REMARK    9  A    between atoms: C_28  and  O_29
REMARK   10  A    between atoms: O_29  and  C_30
REMARK                            x       y       z     vdW  Elec       q    Type
REMARK                         _______ _______ _______ _____ _____    ______ ____
ROOT
ATOM      1  C   UNL     1      -1.355  -2.101  -0.080  0.00  0.00    -0.057 C 
ATOM      2  C   UNL     1      -0.744  -3.465  -0.408  0.00  0.00    -0.016 C 
ATOM      3  C   UNL     1      -0.359  -0.984  -0.422  0.00  0.00    +0.005 C 
ATOM      4  C   UNL     1       0.498  -3.710   0.450  0.00  0.00    +0.024 C 
ATOM      5  C   UNL     1       1.028  -1.244   0.115  0.00  0.00    -0.025 C 
ATOM      6  C   UNL     1       1.443  -2.536   0.486  0.00  0.00    -0.026 C 
ATOM      7  C   UNL     1       1.940  -0.180   0.188  0.00  0.00    +0.032 C 
ATOM      8  C   UNL     1       2.751  -2.730   0.957  0.00  0.00    -0.001 C 
ATOM      9  C   UNL     1       3.239  -0.388   0.648  0.00  0.00    +0.139 C 
ATOM     10  C   UNL     1       3.644  -1.662   1.035  0.00  0.00    +0.037 C 
ENDROOT
BRANCH   1  11
ATOM     11  N   UNL     1      -2.601  -1.917  -0.823  0.00  0.00    +0.387 N 
ATOM     12  H   UNL     1      -3.108  -2.802  -0.850  0.00  0.00    -0.084 HD
ATOM     13  H   UNL     1      -2.376  -1.609  -1.769  0.00  0.00    -0.084 HD
BRANCH  11  14
ATOM     14  C   UNL     1      -3.436  -0.909  -0.189  0.00  0.00    -0.047 C 
BRANCH  14  15
ATOM     15  C   UNL     1      -4.730  -0.693  -0.984  0.00  0.00    +0.112 C 
BRANCH  15  17
ATOM     16 CL   UNL     1      -5.326   4.197   0.736  0.00  0.00    -0.082 Cl
ATOM     17  C   UNL     1      -5.609   0.354  -0.337  0.00  0.00    +0.003 C 
ATOM     18  C   UNL     1      -5.119   1.642  -0.123  0.00  0.00    +0.009 C 
ATOM     19  C   UNL     1      -6.911   0.031   0.046  0.00  0.00    -0.002 C 
ATOM     20  C   UNL     1      -5.930   2.607   0.473  0.00  0.00    +0.057 C 
ATOM     21  C   UNL     1      -7.722   0.996   0.643  0.00  0.00    +0.001 C 
ATOM     22  C   UNL     1      -7.232   2.284   0.856  0.00  0.00    +0.011 C 
ENDBRANCH  15  17
BRANCH  15  23
ATOM     23  O   UNL     1      -4.430  -0.265  -2.312  0.00  0.00    -0.382 OA
ATOM     24  H   UNL     1      -3.865  -0.925  -2.744  0.00  0.00    +0.211 HD
ENDBRANCH  15  23
ENDBRANCH  14  15
ENDBRANCH  11  14
ENDBRANCH   1  11
BRANCH   9  25
ATOM     25  O   UNL     1       4.112   0.654   0.719  0.00  0.00    -0.464 OA
BRANCH  25  26
ATOM     26  C   UNL     1       5.496   0.356   0.544  0.00  0.00    +0.314 C 
BRANCH  26  28
ATOM     27  O   UNL     1       5.624   2.603  -0.355  0.00  0.00    -0.246 OA
ATOM     28  C   UNL     1       6.181   1.556  -0.053  0.00  0.00    +0.362 C 
BRANCH  28  29
ATOM     29  O   UNL     1       7.511   1.282  -0.199  0.00  0.00    -0.446 OA
BRANCH  29  30
ATOM     30  C   UNL     1       8.300   2.337  -0.758  0.00  0.00    +0.209 C 
ATOM     31  C   UNL     1       9.739   1.879  -0.853  0.00  0.00    +0.051 C 
ENDBRANCH  29  30
ENDBRANCH  28  29
ENDBRANCH  26  28
ENDBRANCH  25  26
ENDBRANCH   9  25
TORSDOF 10
