REMARK  Name = 6918446
REMARK  10 active torsions:
REMARK  status: ('A' for Active; 'I' for Inactive)
REMARK    1  A    between atoms: N_1  and  C_4
REMARK    2  A    between atoms: N_1  and  C_18
REMARK    3  A    between atoms: C_4  and  C_7
REMARK    4  A    between atoms: C_7  and  C_8
REMARK    5  A    between atoms: C_18  and  C_19
REMARK    6  A    between atoms: C_19  and  O_20
REMARK    7  A    between atoms: C_19  and  C_22
REMARK    8  A    between atoms: C_22  and  O_23
REMARK    9  A    between atoms: O_23  and  C_25
REMARK   10  A    between atoms: C_26  and  C_32
REMARK                            x       y       z     vdW  Elec       q    Type
REMARK                         _______ _______ _______ _____ _____    ______ ____
ROOT
ATOM      1  N   UNL     1       1.173   2.329  -1.102  0.00  0.00    +0.388 N 
ATOM      2  H   UNL     1       1.390   3.064  -1.775  0.00  0.00    -0.084 HD
ATOM      3  H   UNL     1       1.598   1.450  -1.396  0.00  0.00    -0.084 HD
ENDROOT
BRANCH   1   4
ATOM      4  C   UNL     1      -0.289   2.153  -1.030  0.00  0.00    -0.042 C 
ATOM      5  C   UNL     1      -0.889   3.511  -0.642  0.00  0.00    -0.021 C 
ATOM      6  C   UNL     1      -0.767   1.756  -2.434  0.00  0.00    -0.021 C 
BRANCH   4   7
ATOM      7  C   UNL     1      -0.602   1.050   0.028  0.00  0.00    +0.007 C 
BRANCH   7   8
ATOM      8  C   UNL     1      -2.035   0.687   0.223  0.00  0.00    -0.024 C 
ATOM      9  C   UNL     1      -2.606  -0.332  -0.540  0.00  0.00    -0.004 C 
ATOM     10  C   UNL     1      -2.802   1.363   1.167  0.00  0.00    -0.004 C 
ATOM     11  C   UNL     1      -3.955  -0.686  -0.368  0.00  0.00    -0.000 C 
ATOM     12  C   UNL     1      -4.734   0.002   0.592  0.00  0.00    -0.000 C 
ATOM     13  C   UNL     1      -4.142   1.025   1.351  0.00  0.00    -0.000 C 
ATOM     14  C   UNL     1      -4.546  -1.708  -1.128  0.00  0.00    -0.000 C 
ATOM     15  C   UNL     1      -6.082  -0.352   0.763  0.00  0.00    -0.000 C 
ATOM     16  C   UNL     1      -5.887  -2.047  -0.944  0.00  0.00    -0.000 C 
ATOM     17  C   UNL     1      -6.654  -1.370   0.000  0.00  0.00    -0.000 C 
ENDBRANCH   7   8
ENDBRANCH   4   7
ENDBRANCH   1   4
BRANCH   1  18
ATOM     18  C   UNL     1       1.700   2.698   0.198  0.00  0.00    -0.048 C 
BRANCH  18  19
ATOM     19  C   UNL     1       3.216   2.905   0.166  0.00  0.00    +0.133 C 
BRANCH  19  20
ATOM     20  O   UNL     1       3.652   3.225   1.490  0.00  0.00    -0.383 OA
ATOM     21  H   UNL     1       3.171   4.006   1.808  0.00  0.00    +0.210 HD
ENDBRANCH  19  20
BRANCH  19  22
ATOM     22  C   UNL     1       3.985   1.675  -0.314  0.00  0.00    +0.232 C 
BRANCH  22  23
ATOM     23  O   UNL     1       3.736   0.598   0.584  0.00  0.00    -0.472 OA
BRANCH  23  25
ATOM     24 CL   UNL     1       2.088  -4.275   0.645  0.00  0.00    -0.081 Cl
ATOM     25  C   UNL     1       3.759  -0.664   0.053  0.00  0.00    +0.149 C 
ATOM     26  C   UNL     1       2.980  -1.686   0.588  0.00  0.00    +0.113 C 
ATOM     27  C   UNL     1       4.585  -0.907  -1.041  0.00  0.00    +0.038 C 
ATOM     28  C   UNL     1       3.028  -2.962   0.026  0.00  0.00    +0.070 C 
ATOM     29  C   UNL     1       4.633  -2.183  -1.604  0.00  0.00    +0.004 C 
ATOM     30  C   UNL     1       3.854  -3.210  -1.071  0.00  0.00    +0.012 C 
BRANCH  26  32
ATOM     31  N   UNL     1       1.461  -1.186   2.627  0.00  0.00    -0.191 NA
ATOM     32  C   UNL     1       2.139  -1.409   1.717  0.00  0.00    +0.104 C 
ENDBRANCH  26  32
ENDBRANCH  23  25
ENDBRANCH  22  23
ENDBRANCH  19  22
ENDBRANCH  18  19
ENDBRANCH   1  18
TORSDOF 10
