REMARK  Name = 4644
REMARK  0 active torsions:
REMARK  status: ('A' for Active; 'I' for Inactive)
REMARK                            x       y       z     vdW  Elec       q    Type
REMARK                         _______ _______ _______ _____ _____    ______ ____
ROOT
ATOM      1  O   UNL     1      -0.321  -2.693  -0.009  0.00  0.00    -0.269 OA
ATOM      2  O   UNL     1      -2.911   1.133   0.014  0.00  0.00    -0.193 OA
ATOM      3  N   UNL     1       1.770   1.508  -0.023  0.00  0.00    -0.239 N 
ATOM      4  N   UNL     1       2.671   0.514   0.021  0.00  0.00    -0.262 N 
ATOM      5  N   UNL     1      -1.621  -0.752  -0.002  0.00  0.00    -0.198 N 
ATOM      6  N   UNL     1      -0.648   1.466  -0.005  0.00  0.00    -0.304 NA
ATOM      7  C   UNL     1       0.704  -0.566   0.005  0.00  0.00    +0.116 C 
ATOM      8  C   UNL     1       0.522   0.918  -0.009  0.00  0.00    +0.216 C 
ATOM      9  C   UNL     1       2.038  -0.704   0.010  0.00  0.00    +0.084 C 
ATOM     10  C   UNL     1      -0.430  -1.476  -0.004  0.00  0.00    +0.264 C 
ATOM     11  C   UNL     1      -1.775   0.653   0.003  0.00  0.00    +0.273 C 
ATOM     12  H   UNL     1       1.963   2.473  -0.058  0.00  0.00    +0.172 HD
ATOM     13  H   UNL     1       3.647   0.641   0.055  0.00  0.00    +0.170 HD
ATOM     14  H   UNL     1      -2.452  -1.281  -0.005  0.00  0.00    +0.169 HD
ENDROOT
TORSDOF 0
