REMARK  Name = 3081361
REMARK  5 active torsions:
REMARK  status: ('A' for Active; 'I' for Inactive)
REMARK    1  A    between atoms: N_2  and  C_15
REMARK    2  A    between atoms: C_4  and  O_23
REMARK    3  A    between atoms: C_5  and  O_21
REMARK    4  A    between atoms: O_23  and  C_24
REMARK    5  A    between atoms: C_24  and  C_26
REMARK                            x       y       z     vdW  Elec       q    Type
REMARK                         _______ _______ _______ _____ _____    ______ ____
ROOT
ATOM      1  N   UNL     1      -0.794  -3.198  -0.194  0.00  0.00    -0.248 NA
ATOM      2  N   UNL     1      -3.089   0.236  -0.452  0.00  0.00    -0.296 N 
ATOM      3  N   UNL     1      -2.895  -2.102  -0.630  0.00  0.00    -0.230 NA
ATOM      4  C   UNL     1       1.728  -0.708   0.701  0.00  0.00    +0.156 C 
ATOM      5  C   UNL     1       1.006   0.471   0.630  0.00  0.00    +0.169 C 
ATOM      6  C   UNL     1       1.124  -1.933   0.426  0.00  0.00    +0.112 C 
ATOM      7  C   UNL     1      -0.220  -2.010   0.071  0.00  0.00    +0.066 C 
ATOM      8  C   UNL     1      -0.949  -0.812  -0.001  0.00  0.00    +0.048 C 
ATOM      9  C   UNL     1      -0.339   0.423   0.277  0.00  0.00    +0.044 C 
ATOM     10  C   UNL     1      -2.290  -0.930  -0.359  0.00  0.00    +0.131 C 
ATOM     11  C   UNL     1      -2.100  -3.179  -0.529  0.00  0.00    +0.252 C 
ATOM     12  H   UNL     1      -2.587   1.042  -0.712  0.00  0.00    +0.154 HD
ENDROOT
BRANCH   2  15
ATOM     13 BR   UNL     1      -9.031   1.219   0.449  0.00  0.00    -0.049 Br
ATOM     14  F   UNL     1      -4.455   2.224  -1.841  0.00  0.00    -0.203 F 
ATOM     15  C   UNL     1      -4.459   0.465  -0.245  0.00  0.00    +0.077 C 
ATOM     16  C   UNL     1      -5.122   1.470  -0.956  0.00  0.00    +0.154 C 
ATOM     17  C   UNL     1      -5.169  -0.314   0.673  0.00  0.00    +0.017 C 
ATOM     18  C   UNL     1      -6.484   1.694  -0.749  0.00  0.00    +0.038 C 
ATOM     19  C   UNL     1      -6.530  -0.089   0.880  0.00  0.00    +0.008 C 
ATOM     20  C   UNL     1      -7.187   0.915   0.169  0.00  0.00    +0.037 C 
ENDBRANCH   2  15
BRANCH   5  21
ATOM     21  O   UNL     1       1.591   1.671   0.897  0.00  0.00    -0.469 OA
ATOM     22  C   UNL     1       1.554   2.125   2.249  0.00  0.00    +0.253 C 
ENDBRANCH   5  21
BRANCH   4  23
ATOM     23  O   UNL     1       3.057  -0.684   1.047  0.00  0.00    -0.476 OA
BRANCH  23  24
ATOM     24  C   UNL     1       3.976  -1.198   0.101  0.00  0.00    +0.205 C 
BRANCH  24  26
ATOM     25  N   UNL     1       7.436   1.200  -0.869  0.00  0.00    +0.386 N 
ATOM     26  C   UNL     1       5.303  -0.462   0.265  0.00  0.00    +0.040 C 
ATOM     27  C   UNL     1       5.133   1.042   0.021  0.00  0.00    -0.019 C 
ATOM     28  C   UNL     1       6.366  -1.023  -0.685  0.00  0.00    -0.019 C 
ATOM     29  C   UNL     1       6.476   1.772   0.085  0.00  0.00    -0.077 C 
ATOM     30  C   UNL     1       7.668  -0.225  -0.598  0.00  0.00    -0.077 C 
ATOM     31  C   UNL     1       8.696   1.941  -0.833  0.00  0.00    -0.101 C 
ATOM     32  H   UNL     1       7.036   1.281  -1.804  0.00  0.00    -0.080 HD
ENDBRANCH  24  26
ENDBRANCH  23  24
ENDBRANCH   4  23
TORSDOF 5
