REMARK  Name = 16739648
REMARK  4 active torsions:
REMARK  status: ('A' for Active; 'I' for Inactive)
REMARK    1  A    between atoms: C_8  and  O_20
REMARK    2  A    between atoms: C_8  and  C_26
REMARK    3  A    between atoms: C_10  and  O_22
REMARK    4  A    between atoms: C_19  and  O_24
REMARK                            x       y       z     vdW  Elec       q    Type
REMARK                         _______ _______ _______ _____ _____    ______ ____
ROOT
ATOM      1  C   UNL     1       1.687   0.680   0.150  0.00  0.00    +0.006 C 
ATOM      2  C   UNL     1       2.433  -0.491  -0.528  0.00  0.00    +0.033 C 
ATOM      3  C   UNL     1       0.208   0.793  -0.276  0.00  0.00    +0.032 C 
ATOM      4  C   UNL     1      -0.518  -0.551   0.041  0.00  0.00    +0.006 C 
ATOM      5  C   UNL     1      -2.038  -0.518  -0.395  0.00  0.00    +0.015 C 
ATOM      6  C   UNL     1       1.741  -1.800  -0.113  0.00  0.00    +0.003 C 
ATOM      7  C   UNL     1       0.250  -1.794  -0.485  0.00  0.00    +0.001 C 
ATOM      8  C   UNL     1       3.878  -0.268   0.010  0.00  0.00    +0.142 C 
ATOM      9  C   UNL     1       2.622   1.868  -0.074  0.00  0.00    +0.004 C 
ATOM     10  C   UNL     1      -0.500   1.960   0.444  0.00  0.00    +0.132 C 
ATOM     11  C   UNL     1       4.043   1.270  -0.072  0.00  0.00    +0.039 C 
ATOM     12  C   UNL     1      -2.699   0.789   0.055  0.00  0.00    -0.044 C 
ATOM     13  C   UNL     1       2.439  -0.402  -2.083  0.00  0.00    +0.003 C 
ATOM     14  C   UNL     1      -2.766  -1.722   0.278  0.00  0.00    +0.006 C 
ATOM     15  C   UNL     1      -1.994   1.865   0.441  0.00  0.00    -0.006 C 
ATOM     16  C   UNL     1      -2.188  -0.623  -1.931  0.00  0.00    +0.004 C 
ATOM     17  C   UNL     1      -4.210   0.842   0.049  0.00  0.00    +0.051 C 
ATOM     18  C   UNL     1      -4.290  -1.669   0.193  0.00  0.00    +0.030 C 
ATOM     19  C   UNL     1      -4.825  -0.359   0.760  0.00  0.00    +0.115 C 
ENDROOT
BRANCH   8  20
ATOM     20  O   UNL     1       4.844  -0.915  -0.808  0.00  0.00    -0.375 OA
ATOM     21  H   UNL     1       4.734  -0.627  -1.728  0.00  0.00    +0.211 HD
ENDBRANCH   8  20
BRANCH  10  22
ATOM     22  O   UNL     1      -0.168   3.188  -0.206  0.00  0.00    -0.380 OA
ATOM     23  H   UNL     1       0.796   3.291  -0.227  0.00  0.00    +0.211 HD
ENDBRANCH  10  22
BRANCH  19  24
ATOM     24  O   UNL     1      -6.241  -0.323   0.619  0.00  0.00    -0.384 OA
ATOM     25  H   UNL     1      -6.581   0.511   0.980  0.00  0.00    +0.210 HD
ENDBRANCH  19  24
BRANCH   8  26
ATOM     26  C   UNL     1       4.069  -0.725   1.401  0.00  0.00    -0.053 C 
ATOM     27  C   UNL     1       4.223  -1.096   2.532  0.00  0.00    -0.012 C 
ENDBRANCH   8  26
TORSDOF 4
