REMARK  Name = 5274428
REMARK  9 active torsions:
REMARK  status: ('A' for Active; 'I' for Inactive)
REMARK    1  A    between atoms: C_1  and  N_2
REMARK    2  A    between atoms: C_1  and  C_15
REMARK    3  A    between atoms: N_2  and  C_9
REMARK    4  A    between atoms: C_15  and  N_16
REMARK    5  A    between atoms: N_16  and  C_19
REMARK    6  A    between atoms: C_19  and  C_20
REMARK    7  A    between atoms: C_21  and  C_23
REMARK    8  A    between atoms: C_23  and  C_24
REMARK    9  A    between atoms: C_24  and  C_25
REMARK                            x       y       z     vdW  Elec       q    Type
REMARK                         _______ _______ _______ _____ _____    ______ ____
ROOT
ATOM      1  C   UNL     1      -0.431  -1.154   0.947  0.00  0.00    -0.106 C 
ENDROOT
BRANCH   1   2
ATOM      2  N   UNL     1      -1.213  -0.388  -0.017  0.00  0.00    +0.384 N 
ATOM      3  H   UNL     1      -0.668   0.418  -0.324  0.00  0.00    -0.085 HD
ATOM      4  H   UNL     1      -1.434  -0.991  -0.810  0.00  0.00    -0.085 HD
BRANCH   2   9
ATOM      5  C   UNL     1      -3.541  -1.029   0.621  0.00  0.00    -0.019 C 
ATOM      6  C   UNL     1      -3.025   1.312  -0.163  0.00  0.00    -0.019 C 
ATOM      7  C   UNL     1      -5.372   0.711   0.552  0.00  0.00    -0.000 C 
ATOM      8  C   UNL     1      -4.436  -0.215  -1.597  0.00  0.00    -0.000 C 
ATOM      9  C   UNL     1      -2.458   0.076   0.577  0.00  0.00    -0.062 C 
ATOM     10  C   UNL     1      -4.821  -0.511   1.309  0.00  0.00    -0.002 C 
ATOM     11  C   UNL     1      -3.890  -1.430  -0.827  0.00  0.00    -0.002 C 
ATOM     12  C   UNL     1      -4.307   1.821   0.528  0.00  0.00    -0.002 C 
ATOM     13  C   UNL     1      -3.376   0.900  -1.607  0.00  0.00    -0.002 C 
ATOM     14  C   UNL     1      -5.703   0.300  -0.893  0.00  0.00    -0.000 C 
ENDBRANCH   2   9
ENDBRANCH   1   2
BRANCH   1  15
ATOM     15  C   UNL     1       0.857  -1.656   0.301  0.00  0.00    -0.105 C 
BRANCH  15  16
ATOM     16  N   UNL     1       1.645  -2.405   1.268  0.00  0.00    +0.385 N 
ATOM     17  H   UNL     1       1.109  -3.214   1.581  0.00  0.00    -0.084 HD
ATOM     18  H   UNL     1       1.860  -1.795   2.057  0.00  0.00    -0.084 HD
BRANCH  16  19
ATOM     19  C   UNL     1       2.899  -2.861   0.673  0.00  0.00    -0.055 C 
BRANCH  19  20
ATOM     20  C   UNL     1       3.917  -1.759   0.632  0.00  0.00    -0.058 C 
ATOM     21  C   UNL     1       4.543  -1.247  -0.447  0.00  0.00    -0.050 C 
ATOM     22  C   UNL     1       4.242  -1.790  -1.820  0.00  0.00    +0.026 C 
BRANCH  21  23
ATOM     23  C   UNL     1       5.539  -0.107  -0.411  0.00  0.00    +0.026 C 
BRANCH  23  24
ATOM     24  C   UNL     1       5.062   1.155  -1.142  0.00  0.00    +0.030 C 
BRANCH  24  25
ATOM     25  C   UNL     1       3.723   1.636  -0.656  0.00  0.00    -0.034 C 
ATOM     26  C   UNL     1       3.463   2.517   0.328  0.00  0.00    -0.048 C 
ATOM     27  C   UNL     1       4.591   3.167   1.084  0.00  0.00    +0.026 C 
ATOM     28  C   UNL     1       2.094   2.954   0.764  0.00  0.00    +0.026 C 
ENDBRANCH  24  25
ENDBRANCH  23  24
ENDBRANCH  21  23
ENDBRANCH  19  20
ENDBRANCH  16  19
ENDBRANCH  15  16
ENDBRANCH   1  15
TORSDOF 9
