REMARK  Name = 69532
REMARK  13 active torsions:
REMARK  status: ('A' for Active; 'I' for Inactive)
REMARK    1  A    between atoms: S_1  and  S_2
REMARK    2  A    between atoms: S_1  and  C_15
REMARK    3  A    between atoms: S_2  and  C_3
REMARK    4  A    between atoms: C_3  and  C_4
REMARK    5  A    between atoms: C_4  and  N_6
REMARK    6  A    between atoms: C_7  and  C_9
REMARK    7  A    between atoms: C_9  and  C_10
REMARK    8  A    between atoms: C_10  and  N_11
REMARK    9  A    between atoms: C_15  and  C_16
REMARK   10  A    between atoms: C_16  and  N_18
REMARK   11  A    between atoms: C_19  and  C_21
REMARK   12  A    between atoms: C_21  and  C_22
REMARK   13  A    between atoms: C_22  and  N_23
REMARK                            x       y       z     vdW  Elec       q    Type
REMARK                         _______ _______ _______ _____ _____    ______ ____
ROOT
ATOM      1  S   UNL     1       0.782   0.301   0.660  0.00  0.00    -0.080 S 
ENDROOT
BRANCH   1   2
ATOM      2  S   UNL     1      -0.779   0.302  -0.675  0.00  0.00    -0.080 S 
BRANCH   2   3
ATOM      3  C   UNL     1      -1.875   1.559   0.051  0.00  0.00    +0.090 C 
BRANCH   3   4
ATOM      4  C   UNL     1      -2.699   1.006   1.207  0.00  0.00    +0.102 C 
BRANCH   4   6
ATOM      5  O   UNL     1      -5.399   1.262   0.281  0.00  0.00    -0.275 OA
ATOM      6  N   UNL     1      -3.575  -0.071   0.812  0.00  0.00    -0.303 N 
ATOM      7  C   UNL     1      -4.872   0.157   0.376  0.00  0.00    +0.220 C 
ATOM      8  H   UNL     1      -3.241  -0.996   0.853  0.00  0.00    +0.149 HD
BRANCH   7   9
ATOM      9  C   UNL     1      -5.580  -1.139   0.021  0.00  0.00    +0.061 C 
BRANCH   9  10
ATOM     10  C   UNL     1      -7.008  -0.905  -0.461  0.00  0.00    -0.077 C 
BRANCH  10  11
ATOM     11  N   UNL     1      -7.651  -2.174  -0.776  0.00  0.00    +0.381 N 
ATOM     12  H   UNL     1      -8.604  -2.002  -1.096  0.00  0.00    -0.089 HD
ATOM     13  H   UNL     1      -7.673  -2.761   0.058  0.00  0.00    -0.089 HD
ATOM     14  H   UNL     1      -7.126  -2.648  -1.511  0.00  0.00    -0.089 HD
ENDBRANCH  10  11
ENDBRANCH   9  10
ENDBRANCH   7   9
ENDBRANCH   4   6
ENDBRANCH   3   4
ENDBRANCH   2   3
ENDBRANCH   1   2
BRANCH   1  15
ATOM     15  C   UNL     1       1.874   1.557  -0.049  0.00  0.00    +0.090 C 
BRANCH  15  16
ATOM     16  C   UNL     1       2.702   1.013  -1.205  0.00  0.00    +0.102 C 
BRANCH  16  18
ATOM     17  O   UNL     1       5.399   1.263  -0.269  0.00  0.00    -0.275 OA
ATOM     18  N   UNL     1       3.574  -0.063  -0.816  0.00  0.00    -0.303 N 
ATOM     19  C   UNL     1       4.872   0.159  -0.372  0.00  0.00    +0.220 C 
ATOM     20  H   UNL     1       3.239  -0.987  -0.865  0.00  0.00    +0.149 HD
BRANCH  19  21
ATOM     21  C   UNL     1       5.580  -1.139  -0.023  0.00  0.00    +0.061 C 
BRANCH  21  22
ATOM     22  C   UNL     1       7.006  -0.908   0.465  0.00  0.00    -0.077 C 
BRANCH  22  23
ATOM     23  N   UNL     1       7.648  -2.179   0.774  0.00  0.00    +0.381 N 
ATOM     24  H   UNL     1       8.600  -2.009   1.098  0.00  0.00    -0.089 HD
ATOM     25  H   UNL     1       7.674  -2.760  -0.064  0.00  0.00    -0.089 HD
ATOM     26  H   UNL     1       7.121  -2.659   1.503  0.00  0.00    -0.089 HD
ENDBRANCH  22  23
ENDBRANCH  21  22
ENDBRANCH  19  21
ENDBRANCH  16  18
ENDBRANCH  15  16
ENDBRANCH   1  15
TORSDOF 13
