REMARK  Name = 3081349
REMARK  5 active torsions:
REMARK  status: ('A' for Active; 'I' for Inactive)
REMARK    1  A    between atoms: N_2  and  S_7
REMARK    2  A    between atoms: N_2  and  N_11
REMARK    3  A    between atoms: N_11  and  S_12
REMARK    4  A    between atoms: N_11  and  C_16
REMARK    5  A    between atoms: C_16  and  C_18
REMARK                            x       y       z     vdW  Elec       q    Type
REMARK                         _______ _______ _______ _____ _____    ______ ____
ROOT
ATOM      1  O   UNL     1      -2.801  -0.742   0.208  0.00  0.00    -0.250 OA
ATOM      2  N   UNL     1      -0.635   0.118   0.139  0.00  0.00    -0.065 N 
ATOM      3  N   UNL     1      -1.157  -2.109  -0.623  0.00  0.00    -0.285 N 
ATOM      4  C   UNL     1      -1.617  -0.919  -0.078  0.00  0.00    +0.338 C 
ATOM      5  C   UNL     1      -2.023  -3.231  -0.897  0.00  0.00    +0.112 C 
ATOM      6  H   UNL     1      -0.198  -2.191  -0.832  0.00  0.00    +0.151 HD
ENDROOT
BRANCH   2   7
ATOM      7  S   UNL     1      -1.003   1.659   0.802  0.00  0.00    +0.076 S 
ATOM      8  O   UNL     1       0.214   2.409   1.049  0.00  0.00    -0.153 OA
ATOM      9  O   UNL     1      -2.092   2.259   0.055  0.00  0.00    -0.153 OA
ATOM     10  C   UNL     1      -1.651   1.166   2.382  0.00  0.00    +0.202 C 
ENDBRANCH   2   7
BRANCH   2  11
ATOM     11  N   UNL     1       0.694  -0.015  -0.160  0.00  0.00    -0.062 NA
BRANCH  11  12
ATOM     12  S   UNL     1       1.125   0.561  -1.708  0.00  0.00    +0.062 S 
ATOM     13  O   UNL     1       0.321   1.720  -2.048  0.00  0.00    -0.156 OA
ATOM     14  O   UNL     1       1.241  -0.553  -2.630  0.00  0.00    -0.156 OA
ATOM     15  C   UNL     1       2.769   1.150  -1.376  0.00  0.00    +0.198 C 
ENDBRANCH  11  12
BRANCH  11  16
ATOM     16  C   UNL     1       1.469  -1.083   0.502  0.00  0.00    +0.136 C 
BRANCH  16  18
ATOM     17 CL   UNL     1       3.047  -1.828   2.600  0.00  0.00    -0.112 Cl
ATOM     18  C   UNL     1       2.098  -0.562   1.782  0.00  0.00    +0.116 C 
ENDBRANCH  16  18
ENDBRANCH  11  16
ENDBRANCH   2  11
TORSDOF 5
