REMARK  Name = 5310967
REMARK  4 active torsions:
REMARK  status: ('A' for Active; 'I' for Inactive)
REMARK    1  A    between atoms: C_1  and  C_9
REMARK    2  A    between atoms: C_2  and  C_4
REMARK    3  A    between atoms: C_9  and  C_10
REMARK    4  A    between atoms: C_10  and  N_11
REMARK                            x       y       z     vdW  Elec       q    Type
REMARK                         _______ _______ _______ _____ _____    ______ ____
ROOT
ATOM      1  C   UNL     1      -0.920   0.144  -0.605  0.00  0.00    -0.028 C 
ATOM      2  C   UNL     1       0.089   0.789   0.001  0.00  0.00    -0.003 C 
ENDROOT
BRANCH   2   4
ATOM      3  N   UNL     1       3.046  -1.487  -0.149  0.00  0.00    -0.242 NA
ATOM      4  C   UNL     1       1.486   0.326   0.048  0.00  0.00    +0.019 C 
ATOM      5  C   UNL     1       2.506   1.216   0.318  0.00  0.00    +0.003 C 
ATOM      6  C   UNL     1       1.787  -0.997  -0.177  0.00  0.00    +0.099 C 
ATOM      7  C   UNL     1       3.815   0.749   0.355  0.00  0.00    +0.021 C 
ATOM      8  C   UNL     1       4.030  -0.599   0.117  0.00  0.00    +0.099 C 
ENDBRANCH   2   4
BRANCH   1   9
ATOM      9  C   UNL     1      -2.330   0.661  -0.639  0.00  0.00    +0.003 C 
BRANCH   9  10
ATOM     10  C   UNL     1      -3.289  -0.313   0.043  0.00  0.00    -0.077 C 
BRANCH  10  11
ATOM     11  N   UNL     1      -4.650   0.208   0.008  0.00  0.00    +0.383 N 
ATOM     12  C   UNL     1      -5.571  -0.697   0.681  0.00  0.00    -0.106 C 
ATOM     13  H   UNL     1      -4.941   0.318  -0.964  0.00  0.00    -0.085 HD
ATOM     14  H   UNL     1      -4.667   1.108   0.488  0.00  0.00    -0.085 HD
ENDBRANCH  10  11
ENDBRANCH   9  10
ENDBRANCH   1   9
TORSDOF 4
