REMARK  Name = 208924
REMARK  7 active torsions:
REMARK  status: ('A' for Active; 'I' for Inactive)
REMARK    1  A    between atoms: C_1  and  O_2
REMARK    2  A    between atoms: C_1  and  C_13
REMARK    3  A    between atoms: O_2  and  N_4
REMARK    4  A    between atoms: C_5  and  C_8
REMARK    5  A    between atoms: C_13  and  O_14
REMARK    6  A    between atoms: C_13  and  C_16
REMARK    7  A    between atoms: C_16  and  N_17
REMARK                            x       y       z     vdW  Elec       q    Type
REMARK                         _______ _______ _______ _____ _____    ______ ____
ROOT
ATOM      1  C   UNL     1       1.292   1.321   1.102  0.00  0.00    +0.265 C 
ENDROOT
BRANCH   1   2
ATOM      2  O   UNL     1       0.318   1.303   0.064  0.00  0.00    -0.374 OA
BRANCH   2   4
ATOM      3 CL   UNL     1      -1.558   1.264  -1.918  0.00  0.00    -0.058 Cl
ATOM      4  N   UNL     1      -0.836   0.692   0.567  0.00  0.00    -0.071 NA
ATOM      5  C   UNL     1      -1.792   0.628  -0.313  0.00  0.00    +0.178 C 
BRANCH   5   8
ATOM      6  O   UNL     1      -6.252  -0.720  -1.342  0.00  0.00    -0.163 OA
ATOM      7  N   UNL     1      -5.303  -0.646  -0.495  0.00  0.00    -0.127 N 
ATOM      8  C   UNL     1      -3.090  -0.001   0.085  0.00  0.00    +0.052 C 
ATOM      9  C   UNL     1      -4.097  -0.069  -0.842  0.00  0.00    +0.124 C 
ATOM     10  C   UNL     1      -3.226  -0.486   1.359  0.00  0.00    +0.006 C 
ATOM     11  C   UNL     1      -4.436  -1.069   1.718  0.00  0.00    +0.022 C 
ATOM     12  C   UNL     1      -5.465  -1.143   0.784  0.00  0.00    +0.121 C 
ENDBRANCH   5   8
ENDBRANCH   2   4
ENDBRANCH   1   2
BRANCH   1  13
ATOM     13  C   UNL     1       2.563   1.984   0.575  0.00  0.00    +0.136 C 
BRANCH  13  14
ATOM     14  O   UNL     1       2.240   3.311   0.147  0.00  0.00    -0.383 OA
ATOM     15  H   UNL     1       3.039   3.745  -0.191  0.00  0.00    +0.210 HD
ENDBRANCH  13  14
BRANCH  13  16
ATOM     16  C   UNL     1       3.190   1.240  -0.607  0.00  0.00    -0.044 C 
BRANCH  16  17
ATOM     17  N   UNL     1       3.519  -0.145  -0.272  0.00  0.00    +0.389 N 
ATOM     18  C   UNL     1       4.521  -0.190   0.802  0.00  0.00    -0.077 C 
ATOM     19  C   UNL     1       3.987  -0.864  -1.465  0.00  0.00    -0.077 C 
ATOM     20  C   UNL     1       4.840  -1.632   1.199  0.00  0.00    -0.023 C 
ATOM     21  C   UNL     1       4.290  -2.329  -1.143  0.00  0.00    -0.023 C 
ATOM     22  C   UNL     1       5.296  -2.449  -0.004  0.00  0.00    -0.004 C 
ATOM     23  H   UNL     1       2.676  -0.610   0.064  0.00  0.00    -0.080 HD
ENDBRANCH  16  17
ENDBRANCH  13  16
ENDBRANCH   1  13
TORSDOF 7
