REMARK  Name = 157692
REMARK  14 active torsions:
REMARK  status: ('A' for Active; 'I' for Inactive)
REMARK    1  A    between atoms: O_1  and  C_2
REMARK    2  A    between atoms: O_1  and  C_13
REMARK    3  A    between atoms: C_2  and  C_3
REMARK    4  A    between atoms: C_3  and  C_4
REMARK    5  A    between atoms: C_4  and  C_5
REMARK    6  A    between atoms: C_5  and  C_6
REMARK    7  A    between atoms: C_6  and  C_10
REMARK    8  A    between atoms: C_10  and  O_11
REMARK    9  A    between atoms: C_13  and  C_14
REMARK   10  A    between atoms: C_14  and  C_15
REMARK   11  A    between atoms: C_15  and  C_16
REMARK   12  A    between atoms: C_16  and  C_17
REMARK   13  A    between atoms: C_17  and  C_21
REMARK   14  A    between atoms: C_21  and  O_22
REMARK                            x       y       z     vdW  Elec       q    Type
REMARK                         _______ _______ _______ _____ _____    ______ ____
ROOT
ATOM      1  O   UNL     1       0.000   0.000  -0.635  0.00  0.00    -0.354 OA
ENDROOT
BRANCH   1   2
ATOM      2  C   UNL     1      -1.171   0.102   0.164  0.00  0.00    +0.142 C 
BRANCH   2   3
ATOM      3  C   UNL     1      -2.383   0.207  -0.750  0.00  0.00    +0.032 C 
BRANCH   3   4
ATOM      4  C   UNL     1      -3.684   0.304   0.047  0.00  0.00    +0.003 C 
BRANCH   4   5
ATOM      5  C   UNL     1      -4.894   0.452  -0.886  0.00  0.00    +0.011 C 
BRANCH   5   6
ATOM      6  C   UNL     1      -6.271   0.503  -0.170  0.00  0.00    +0.089 C 
ATOM      7  C   UNL     1      -6.386   1.771   0.692  0.00  0.00    +0.011 C 
ATOM      8  C   UNL     1      -7.379   0.516  -1.237  0.00  0.00    +0.011 C 
BRANCH   6  10
ATOM      9  O   UNL     1      -6.688  -0.788   1.869  0.00  0.00    -0.250 OA
ATOM     10  C   UNL     1      -6.475  -0.766   0.664  0.00  0.00    +0.313 C 
BRANCH  10  11
ATOM     11  O   UNL     1      -6.330  -1.894  -0.076  0.00  0.00    -0.480 OA
ATOM     12  H   UNL     1      -6.168  -1.833  -0.997  0.00  0.00    +0.295 HD
ENDBRANCH  10  11
ENDBRANCH   6  10
ENDBRANCH   5   6
ENDBRANCH   4   5
ENDBRANCH   3   4
ENDBRANCH   2   3
ENDBRANCH   1   2
BRANCH   1  13
ATOM     13  C   UNL     1       1.171  -0.102   0.164  0.00  0.00    +0.142 C 
BRANCH  13  14
ATOM     14  C   UNL     1       2.383  -0.207  -0.750  0.00  0.00    +0.032 C 
BRANCH  14  15
ATOM     15  C   UNL     1       3.684  -0.304   0.047  0.00  0.00    +0.003 C 
BRANCH  15  16
ATOM     16  C   UNL     1       4.894  -0.452  -0.886  0.00  0.00    +0.011 C 
BRANCH  16  17
ATOM     17  C   UNL     1       6.271  -0.503  -0.170  0.00  0.00    +0.089 C 
ATOM     18  C   UNL     1       6.386  -1.771   0.692  0.00  0.00    +0.011 C 
ATOM     19  C   UNL     1       7.379  -0.516  -1.237  0.00  0.00    +0.011 C 
BRANCH  17  21
ATOM     20  O   UNL     1       6.688   0.788   1.869  0.00  0.00    -0.250 OA
ATOM     21  C   UNL     1       6.475   0.766   0.663  0.00  0.00    +0.313 C 
BRANCH  21  22
ATOM     22  O   UNL     1       6.330   1.894  -0.076  0.00  0.00    -0.480 OA
ATOM     23  H   UNL     1       6.168   1.833  -0.997  0.00  0.00    +0.295 HD
ENDBRANCH  21  22
ENDBRANCH  17  21
ENDBRANCH  16  17
ENDBRANCH  15  16
ENDBRANCH  14  15
ENDBRANCH  13  14
ENDBRANCH   1  13
TORSDOF 14
