REMARK  Name = 208925
REMARK  9 active torsions:
REMARK  status: ('A' for Active; 'I' for Inactive)
REMARK    1  A    between atoms: C_1  and  C_3
REMARK    2  A    between atoms: C_1  and  C_6
REMARK    3  A    between atoms: C_1  and  C_12
REMARK    4  A    between atoms: C_3  and  O_4
REMARK    5  A    between atoms: C_6  and  C_7
REMARK    6  A    between atoms: C_7  and  C_8
REMARK    7  A    between atoms: C_8  and  C_9
REMARK    8  A    between atoms: C_9  and  C_10
REMARK    9  A    between atoms: C_12  and  C_13
REMARK                            x       y       z     vdW  Elec       q    Type
REMARK                         _______ _______ _______ _____ _____    ______ ____
ROOT
ATOM      1  C   UNL     1      -1.457  -0.203  -0.310  0.00  0.00    +0.099 C 
ENDROOT
BRANCH   1   3
ATOM      2  O   UNL     1      -1.686   1.608   1.319  0.00  0.00    -0.250 OA
ATOM      3  C   UNL     1      -1.608   1.242   0.154  0.00  0.00    +0.313 C 
BRANCH   3   4
ATOM      4  O   UNL     1      -1.654   2.113  -0.889  0.00  0.00    -0.480 OA
ATOM      5  H   UNL     1      -1.591   1.795  -1.768  0.00  0.00    +0.295 HD
ENDBRANCH   3   4
ENDBRANCH   1   3
BRANCH   1   6
ATOM      6  C   UNL     1      -0.102  -0.800   0.127  0.00  0.00    +0.011 C 
BRANCH   6   7
ATOM      7  C   UNL     1       1.144  -0.046  -0.360  0.00  0.00    +0.001 C 
BRANCH   7   8
ATOM      8  C   UNL     1       2.422  -0.697   0.179  0.00  0.00    +0.000 C 
BRANCH   8   9
ATOM      9  C   UNL     1       3.701   0.030  -0.245  0.00  0.00    +0.000 C 
BRANCH   9  10
ATOM     10  C   UNL     1       4.975  -0.605   0.313  0.00  0.00    +0.000 C 
ATOM     11  C   UNL     1       6.214   0.160  -0.127  0.00  0.00    +0.000 C 
ENDBRANCH   9  10
ENDBRANCH   8   9
ENDBRANCH   7   8
ENDBRANCH   6   7
ENDBRANCH   1   6
BRANCH   1  12
ATOM     12  C   UNL     1      -2.688  -1.018   0.120  0.00  0.00    +0.011 C 
BRANCH  12  13
ATOM     13  C   UNL     1      -4.033  -0.494  -0.394  0.00  0.00    +0.001 C 
ATOM     14  C   UNL     1      -5.226  -1.290   0.111  0.00  0.00    +0.000 C 
ENDBRANCH  12  13
ENDBRANCH   1  12
TORSDOF 9
