REMARK  Name = 10341154
REMARK  3 active torsions:
REMARK  status: ('A' for Active; 'I' for Inactive)
REMARK    1  A    between atoms: N_2  and  C_23
REMARK    2  A    between atoms: C_5  and  C_15
REMARK    3  A    between atoms: C_7  and  C_31
REMARK                            x       y       z     vdW  Elec       q    Type
REMARK                         _______ _______ _______ _____ _____    ______ ____
ROOT
ATOM      1  O   UNL     1       0.799  -2.882  -0.121  0.00  0.00    -0.252 OA
ATOM      2  N   UNL     1       1.982  -0.818  -0.063  0.00  0.00    -0.196 N 
ATOM      3  N   UNL     1      -0.356  -0.460  -0.099  0.00  0.00    -0.390 NA
ATOM      4  N   UNL     1       3.070  -2.921  -0.098  0.00  0.00    -0.313 N 
ATOM      5  C   UNL     1      -1.376   0.427  -0.094  0.00  0.00    +0.139 C 
ATOM      6  C   UNL     1       0.891   0.061  -0.061  0.00  0.00    +0.175 C 
ATOM      7  C   UNL     1      -1.210   1.802  -0.053  0.00  0.00    +0.079 C 
ATOM      8  C   UNL     1       1.165   1.419  -0.019  0.00  0.00    +0.102 C 
ATOM      9  C   UNL     1       0.088   2.299  -0.015  0.00  0.00    -0.010 C 
ATOM     10  C   UNL     1       1.859  -2.249  -0.104  0.00  0.00    +0.310 C 
ATOM     11  H   UNL     1       3.087  -3.905  -0.124  0.00  0.00    +0.147 HD
ATOM     12  H   UNL     1       3.914  -2.414  -0.067  0.00  0.00    +0.147 HD
ENDROOT
BRANCH   5  15
ATOM     13  F   UNL     1      -2.768  -0.276   2.244  0.00  0.00    -0.204 F 
ATOM     14  F   UNL     1      -6.423  -1.939  -0.255  0.00  0.00    -0.204 F 
ATOM     15  C   UNL     1      -2.686  -0.186  -0.132  0.00  0.00    +0.057 C 
ATOM     16  C   UNL     1      -3.340  -0.517   1.055  0.00  0.00    +0.145 C 
ATOM     17  C   UNL     1      -3.294  -0.447  -1.360  0.00  0.00    +0.007 C 
ATOM     18  C   UNL     1      -4.602  -1.109   1.014  0.00  0.00    +0.059 C 
ATOM     19  C   UNL     1      -4.557  -1.039  -1.401  0.00  0.00    +0.030 C 
ATOM     20  C   UNL     1      -5.211  -1.370  -0.214  0.00  0.00    +0.142 C 
ENDBRANCH   5  15
BRANCH   2  23
ATOM     21  F   UNL     1       3.251  -0.321   2.353  0.00  0.00    -0.203 F 
ATOM     22  F   UNL     1       3.347  -0.191  -2.395  0.00  0.00    -0.203 F 
ATOM     23  C   UNL     1       3.327  -0.244  -0.020  0.00  0.00    +0.116 C 
ATOM     24  C   UNL     1       3.881  -0.030   1.206  0.00  0.00    +0.156 C 
ATOM     25  C   UNL     1       3.930   0.035  -1.209  0.00  0.00    +0.156 C 
ATOM     26  C   UNL     1       5.164   0.517   1.247  0.00  0.00    +0.031 C 
ATOM     27  C   UNL     1       5.213   0.582  -1.168  0.00  0.00    +0.031 C 
ATOM     28  C   UNL     1       5.830   0.823   0.060  0.00  0.00    +0.005 C 
ENDBRANCH   2  23
BRANCH   7  31
ATOM     29  O   UNL     1      -2.837   3.124   1.019  0.00  0.00    -0.270 OA
ATOM     30  N   UNL     1      -2.806   3.179  -1.274  0.00  0.00    -0.325 N 
ATOM     31  C   UNL     1      -2.331   2.731  -0.045  0.00  0.00    +0.245 C 
ATOM     32  H   UNL     1      -3.563   3.808  -1.309  0.00  0.00    +0.145 HD
ATOM     33  H   UNL     1      -2.386   2.868  -2.107  0.00  0.00    +0.145 HD
ENDBRANCH   7  31
TORSDOF 3
