REMARK  Name = 100427
REMARK  7 active torsions:
REMARK  status: ('A' for Active; 'I' for Inactive)
REMARK    1  A    between atoms: P_1  and  O_3
REMARK    2  A    between atoms: P_1  and  N_5
REMARK    3  A    between atoms: P_1  and  N_10
REMARK    4  A    between atoms: N_5  and  C_7
REMARK    5  A    between atoms: C_7  and  C_9
REMARK    6  A    between atoms: N_10  and  C_12
REMARK    7  A    between atoms: C_12  and  C_14
REMARK                            x       y       z     vdW  Elec       q    Type
REMARK                         _______ _______ _______ _____ _____    ______ ____
ROOT
ATOM      1  P   UNL     1       0.000  -0.518  -0.056  0.00  0.00    +0.342 P 
ATOM      2  O   UNL     1       0.007  -1.224  -1.390  0.00  0.00    -0.255 OA
ENDROOT
BRANCH   1   3
ATOM      3  O   UNL     1       0.003  -1.605   1.159  0.00  0.00    -0.321 OA
ATOM      4  H   UNL     1      -0.749  -2.208   1.054  0.00  0.00    +0.220 HD
ENDBRANCH   1   3
BRANCH   1   5
ATOM      5  N   UNL     1      -1.324   0.448   0.224  0.00  0.00    -0.221 NA
ATOM      6  H   UNL     1      -1.252   1.243  -0.412  0.00  0.00    +0.133 HD
BRANCH   5   7
ATOM      7  C   UNL     1      -2.657  -0.111   0.058  0.00  0.00    +0.095 C 
BRANCH   7   9
ATOM      8 CL   UNL     1      -5.324   0.328  -0.165  0.00  0.00    -0.112 Cl
ATOM      9  C   UNL     1      -3.688   1.005   0.019  0.00  0.00    +0.112 C 
ENDBRANCH   7   9
ENDBRANCH   5   7
ENDBRANCH   1   5
BRANCH   1  10
ATOM     10  N   UNL     1       1.321   0.451   0.230  0.00  0.00    -0.221 NA
ATOM     11  H   UNL     1       1.249   0.779   1.193  0.00  0.00    +0.133 HD
BRANCH  10  12
ATOM     12  C   UNL     1       2.655  -0.110   0.069  0.00  0.00    +0.095 C 
BRANCH  12  14
ATOM     13 CL   UNL     1       5.319   0.329  -0.182  0.00  0.00    -0.112 Cl
ATOM     14  C   UNL     1       3.688   1.006   0.034  0.00  0.00    +0.112 C 
ENDBRANCH  12  14
ENDBRANCH  10  12
ENDBRANCH   1  10
TORSDOF 7
