REMARK  Name = 9886917
REMARK  9 active torsions:
REMARK  status: ('A' for Active; 'I' for Inactive)
REMARK    1  A    between atoms: N_1  and  C_25
REMARK    2  A    between atoms: C_2  and  C_17
REMARK    3  A    between atoms: C_5  and  C_11
REMARK    4  A    between atoms: C_6  and  O_19
REMARK    5  A    between atoms: C_11  and  C_14
REMARK    6  A    between atoms: O_19  and  C_20
REMARK    7  A    between atoms: C_20  and  C_22
REMARK    8  A    between atoms: C_22  and  O_23
REMARK    9  A    between atoms: C_25  and  C_26
REMARK                            x       y       z     vdW  Elec       q    Type
REMARK                         _______ _______ _______ _____ _____    ______ ____
ROOT
ATOM      1  N   UNL     1      -1.731  -0.031   1.036  0.00  0.00    -0.326 N 
ATOM      2  C   UNL     1      -1.124   1.147   0.693  0.00  0.00    +0.041 A 
ATOM      3  C   UNL     1      -0.795  -1.035   1.142  0.00  0.00    +0.063 A 
ATOM      4  C   UNL     1       0.449  -0.469   0.854  0.00  0.00    +0.054 A 
ATOM      5  C   UNL     1       0.226   0.908   0.573  0.00  0.00    +0.060 A 
ATOM      6  C   UNL     1       1.593  -1.290   0.892  0.00  0.00    +0.141 C 
ATOM      7  C   UNL     1      -0.952  -2.387   1.467  0.00  0.00    +0.017 C 
ATOM      8  C   UNL     1       1.451  -2.644   1.216  0.00  0.00    +0.037 C 
ATOM      9  C   UNL     1       0.197  -3.182   1.498  0.00  0.00    +0.005 C 
ENDROOT
BRANCH   5  11
ATOM     10  O   UNL     1       2.377   1.913   0.607  0.00  0.00    -0.282 OA
ATOM     11  C   UNL     1       1.197   1.908   0.222  0.00  0.00    +0.249 C 
BRANCH  11  14
ATOM     12  O   UNL     1       0.990   4.215  -0.208  0.00  0.00    -0.267 OA
ATOM     13  N   UNL     1       0.445   2.721  -1.911  0.00  0.00    -0.323 N 
ATOM     14  C   UNL     1       0.864   3.089  -0.659  0.00  0.00    +0.282 C 
ATOM     15  H   UNL     1       0.201   3.409  -2.570  0.00  0.00    +0.145 HD
ATOM     16  H   UNL     1       0.388   1.767  -2.150  0.00  0.00    +0.145 HD
ENDBRANCH  11  14
ENDBRANCH   5  11
BRANCH   2  17
ATOM     17  C   UNL     1      -1.893   2.397   0.509  0.00  0.00    +0.044 C 
ATOM     18  C   UNL     1      -2.022   3.206   1.803  0.00  0.00    +0.007 C 
ENDBRANCH   2  17
BRANCH   6  19
ATOM     19  O   UNL     1       2.842  -0.798   0.620  0.00  0.00    -0.464 OA
BRANCH  19  20
ATOM     20  C   UNL     1       3.538  -1.384  -0.474  0.00  0.00    +0.314 C 
BRANCH  20  22
ATOM     21  O   UNL     1       5.295   0.180   0.112  0.00  0.00    -0.246 OA
ATOM     22  C   UNL     1       4.886  -0.726  -0.602  0.00  0.00    +0.362 C 
BRANCH  22  23
ATOM     23  O   UNL     1       5.566  -1.303  -1.636  0.00  0.00    -0.442 OA
ATOM     24  C   UNL     1       6.875  -0.779  -1.882  0.00  0.00    +0.256 C 
ENDBRANCH  22  23
ENDBRANCH  20  22
ENDBRANCH  19  20
ENDBRANCH   6  19
BRANCH   1  25
ATOM     25  C   UNL     1      -3.153  -0.201   1.256  0.00  0.00    +0.132 C 
BRANCH  25  26
ATOM     26  C   UNL     1      -3.865  -0.569  -0.017  0.00  0.00    +0.000 C 
ATOM     27  C   UNL     1      -3.322  -1.540  -0.849  0.00  0.00    -0.002 C 
ATOM     28  C   UNL     1      -5.056   0.065  -0.344  0.00  0.00    -0.002 C 
ATOM     29  C   UNL     1      -3.982  -1.882  -2.029  0.00  0.00    -0.000 C 
ATOM     30  C   UNL     1      -5.717  -0.277  -1.524  0.00  0.00    -0.000 C 
ATOM     31  C   UNL     1      -5.180  -1.250  -2.366  0.00  0.00    -0.000 C 
ENDBRANCH  25  26
ENDBRANCH   1  25
TORSDOF 9
