REMARK  Name = 6918532
REMARK  8 active torsions:
REMARK  status: ('A' for Active; 'I' for Inactive)
REMARK    1  A    between atoms: C_1  and  O_12
REMARK    2  A    between atoms: C_2  and  N_8
REMARK    3  A    between atoms: O_12  and  C_14
REMARK    4  A    between atoms: C_14  and  C_15
REMARK    5  A    between atoms: C_15  and  C_16
REMARK    6  A    between atoms: C_16  and  C_17
REMARK    7  A    between atoms: C_17  and  O_18
REMARK    8  A    between atoms: O_18  and  N_21
REMARK                            x       y       z     vdW  Elec       q    Type
REMARK                         _______ _______ _______ _____ _____    ______ ____
ROOT
ATOM      1  C   UNL     1      -1.285  -0.803   0.457  0.00  0.00    +0.149 C 
ATOM      2  C   UNL     1      -3.917  -0.366  -0.224  0.00  0.00    +0.051 C 
ATOM      3  C   UNL     1      -1.971   0.212   1.086  0.00  0.00    +0.039 C 
ATOM      4  C   UNL     1      -1.863  -1.608  -0.499  0.00  0.00    +0.039 C 
ATOM      5  C   UNL     1      -3.304   0.433   0.741  0.00  0.00    +0.018 C 
ATOM      6  C   UNL     1      -3.196  -1.386  -0.845  0.00  0.00    +0.018 C 
ENDROOT
BRANCH   2   8
ATOM      7  O   UNL     1      -5.887   1.671   0.794  0.00  0.00    -0.275 OA
ATOM      8  N   UNL     1      -5.251  -0.145  -0.569  0.00  0.00    -0.284 N 
ATOM      9  C   UNL     1      -6.127   0.823  -0.059  0.00  0.00    +0.227 C 
ATOM     10  C   UNL     1      -7.491   0.732  -0.696  0.00  0.00    +0.095 C 
ATOM     11  H   UNL     1      -5.623  -0.743  -1.256  0.00  0.00    +0.155 HD
ENDBRANCH   2   8
BRANCH   1  12
ATOM     12  O   UNL     1       0.050  -1.025   0.803  0.00  0.00    -0.424 OA
BRANCH  12  14
ATOM     13  O   UNL     1       0.653   0.498  -0.865  0.00  0.00    -0.250 OA
ATOM     14  C   UNL     1       0.942  -0.292   0.023  0.00  0.00    +0.322 C 
BRANCH  14  15
ATOM     15  C   UNL     1       2.347  -0.613   0.487  0.00  0.00    +0.114 C 
BRANCH  15  16
ATOM     16  C   UNL     1       3.420   0.154  -0.281  0.00  0.00    +0.062 C 
BRANCH  16  17
ATOM     17  C   UNL     1       4.825  -0.113   0.245  0.00  0.00    +0.244 C 
BRANCH  17  18
ATOM     18  O   UNL     1       5.754   0.628  -0.536  0.00  0.00    -0.336 OA
BRANCH  18  21
ATOM     19  O   UNL     1       7.222  -0.314   0.827  0.00  0.00    -0.090 OA
ATOM     20  O   UNL     1       7.974   1.062  -0.758  0.00  0.00    -0.090 OA
ATOM     21  N   UNL     1       7.106   0.452  -0.131  0.00  0.00    +0.218 N 
ENDBRANCH  18  21
ENDBRANCH  17  18
ENDBRANCH  16  17
ENDBRANCH  15  16
ENDBRANCH  14  15
ENDBRANCH  12  14
ENDBRANCH   1  12
TORSDOF 8
