REMARK  Name = 22128
REMARK  7 active torsions:
REMARK  status: ('A' for Active; 'I' for Inactive)
REMARK    1  A    between atoms: CA_1  and  N_2
REMARK    2  A    between atoms: CA_1  and  C_7
REMARK    3  A    between atoms: CA_1  and  C_10
REMARK    4  A    between atoms: C_7  and  O_8
REMARK    5  A    between atoms: C_10  and  N_11
REMARK    6  A    between atoms: N_11  and  O_12
REMARK    7  A    between atoms: N_11  and  N_15
REMARK                            x       y       z     vdW  Elec       q    Type
REMARK                         _______ _______ _______ _____ _____    ______ ____
ROOT
ATOM      1  CA  UNL     1       1.089   0.661   0.404  0.00  0.00    +0.056 C 
ENDROOT
BRANCH   1   2
ATOM      2  N   UNL     1       2.115   1.672   0.148  0.00  0.00    +0.390 N 
ATOM      3  H1  UNL     1       1.781   2.582   0.464  0.00  0.00    -0.088 HD
ATOM      4  H2  UNL     1       2.312   1.710  -0.852  0.00  0.00    -0.088 HD
ATOM      5  H3  UNL     1       2.966   1.428   0.654  0.00  0.00    -0.088 HD
ENDBRANCH   1   2
BRANCH   1   7
ATOM      6  OXT UNL     1       2.424  -0.787  -1.037  0.00  0.00    -0.253 OA
ATOM      7  C   UNL     1       1.658  -0.659  -0.091  0.00  0.00    +0.294 C 
BRANCH   7   8
ATOM      8  O   UNL     1       1.212  -1.713   0.643  0.00  0.00    -0.482 OA
ATOM      9  H   UNL     1       0.626  -1.571   1.360  0.00  0.00    +0.295 HD
ENDBRANCH   7   8
ENDBRANCH   1   7
BRANCH   1  10
ATOM     10  C   UNL     1      -0.218   1.049  -0.299  0.00  0.00    +0.112 C 
BRANCH  10  11
ATOM     11  N   UNL     1      -1.252   0.039  -0.083  0.00  0.00    -0.069 NA
BRANCH  11  12
ATOM     12  O   UNL     1      -1.394  -0.005   1.365  0.00  0.00    -0.294 OA
ATOM     13  H   UNL     1      -2.070  -0.658   1.603  0.00  0.00    +0.238 HD
ENDBRANCH  11  12
BRANCH  11  15
ATOM     14  O   UNL     1      -3.229  -0.576  -0.413  0.00  0.00    -0.080 OA
ATOM     15  N   UNL     1      -2.406   0.319  -0.637  0.00  0.00    +0.057 NA
ENDBRANCH  11  15
ENDBRANCH  10  11
ENDBRANCH   1  10
TORSDOF 7
