REMARK  Name = 6918554
REMARK  8 active torsions:
REMARK  status: ('A' for Active; 'I' for Inactive)
REMARK    1  A    between atoms: C_1  and  N_2
REMARK    2  A    between atoms: C_1  and  C_18
REMARK    3  A    between atoms: N_2  and  C_5
REMARK    4  A    between atoms: C_12  and  C_14
REMARK    5  A    between atoms: C_13  and  C_16
REMARK    6  A    between atoms: C_18  and  C_21
REMARK    7  A    between atoms: C_18  and  O_33
REMARK    8  A    between atoms: C_27  and  O_31
REMARK                            x       y       z     vdW  Elec       q    Type
REMARK                         _______ _______ _______ _____ _____    ______ ____
ROOT
ATOM      1  C   UNL     1       0.826  -1.296  -0.185  0.00  0.00    -0.047 C 
ENDROOT
BRANCH   1   2
ATOM      2  N   UNL     1      -0.329  -1.725  -0.963  0.00  0.00    +0.387 N 
ATOM      3  H   UNL     1      -0.327  -1.238  -1.859  0.00  0.00    -0.084 HD
ATOM      4  H   UNL     1      -0.270  -2.733  -1.103  0.00  0.00    -0.084 HD
BRANCH   2   5
ATOM      5  C   UNL     1      -1.569  -1.426  -0.263  0.00  0.00    -0.053 C 
ATOM      6  C   UNL     1      -1.748   0.079   0.028  0.00  0.00    +0.005 C 
ATOM      7  C   UNL     1      -2.815  -1.863  -1.061  0.00  0.00    +0.005 C 
ATOM      8  C   UNL     1      -3.240   0.177   0.104  0.00  0.00    -0.029 C 
ATOM      9  C   UNL     1      -3.845  -0.924  -0.514  0.00  0.00    -0.029 C 
ATOM     10  C   UNL     1      -4.001   1.200   0.645  0.00  0.00    -0.009 C 
ATOM     11  C   UNL     1      -5.223  -1.025  -0.603  0.00  0.00    -0.009 C 
ATOM     12  C   UNL     1      -5.392   1.101   0.571  0.00  0.00    -0.026 C 
ATOM     13  C   UNL     1      -5.999  -0.004  -0.049  0.00  0.00    -0.026 C 
BRANCH  12  14
ATOM     14  C   UNL     1      -6.223   2.196   1.157  0.00  0.00    +0.026 C 
ATOM     15  C   UNL     1      -6.526   3.296   0.145  0.00  0.00    +0.005 C 
ENDBRANCH  12  14
BRANCH  13  16
ATOM     16  C   UNL     1      -7.487  -0.105  -0.133  0.00  0.00    +0.026 C 
ATOM     17  C   UNL     1      -8.085  -0.832   1.068  0.00  0.00    +0.005 C 
ENDBRANCH  13  16
ENDBRANCH   2   5
ENDBRANCH   1   2
BRANCH   1  18
ATOM     18  C   UNL     1       2.132  -1.639  -0.912  0.00  0.00    +0.112 C 
BRANCH  18  21
ATOM     19  O   UNL     1       5.713   3.683  -0.802  0.00  0.00    -0.270 OA
ATOM     20  N   UNL     1       5.647   1.648   0.274  0.00  0.00    -0.278 N 
ATOM     21  C   UNL     1       3.341  -1.200  -0.117  0.00  0.00    +0.004 C 
ATOM     22  C   UNL     1       3.926   0.045  -0.309  0.00  0.00    +0.015 C 
ATOM     23  C   UNL     1       3.845  -2.096   0.817  0.00  0.00    +0.001 C 
ATOM     24  C   UNL     1       5.044   0.391   0.459  0.00  0.00    +0.084 C 
ATOM     25  C   UNL     1       4.961  -1.743   1.578  0.00  0.00    +0.038 C 
ATOM     26  C   UNL     1       3.413   1.004  -1.284  0.00  0.00    +0.006 C 
ATOM     27  C   UNL     1       5.564  -0.498   1.401  0.00  0.00    +0.147 C 
ATOM     28  C   UNL     1       4.002   2.195  -1.443  0.00  0.00    +0.058 C 
ATOM     29  C   UNL     1       5.192   2.582  -0.637  0.00  0.00    +0.250 C 
ATOM     30  H   UNL     1       6.432   1.875   0.823  0.00  0.00    +0.155 HD
BRANCH  27  31
ATOM     31  O   UNL     1       6.652  -0.173   2.152  0.00  0.00    -0.504 OA
ATOM     32  H   UNL     1       7.066   0.660   2.041  0.00  0.00    +0.292 HD
ENDBRANCH  27  31
ENDBRANCH  18  21
BRANCH  18  33
ATOM     33  O   UNL     1       2.224  -3.047  -1.123  0.00  0.00    -0.382 OA
ATOM     34  H   UNL     1       1.456  -3.349  -1.633  0.00  0.00    +0.211 HD
ENDBRANCH  18  33
ENDBRANCH   1  18
TORSDOF 8
