REMARK  Name = 178052
REMARK  3 active torsions:
REMARK  status: ('A' for Active; 'I' for Inactive)
REMARK    1  A    between atoms: O_1  and  C_3
REMARK    2  A    between atoms: O_1  and  C_9
REMARK    3  A    between atoms: C_9  and  C_11
REMARK                            x       y       z     vdW  Elec       q    Type
REMARK                         _______ _______ _______ _____ _____    ______ ____
ROOT
ATOM      1  O   UNL     1      -0.061   0.093   0.954  0.00  0.00    -0.476 OA
ENDROOT
BRANCH   1   3
ATOM      2  N   UNL     1      -3.364   0.772  -0.450  0.00  0.00    -0.245 NA
ATOM      3  C   UNL     1      -1.294  -0.119   0.391  0.00  0.00    +0.152 C 
ATOM      4  C   UNL     1      -2.141   0.930   0.104  0.00  0.00    +0.093 C 
ATOM      5  C   UNL     1      -1.704  -1.408   0.103  0.00  0.00    +0.040 C 
ATOM      6  C   UNL     1      -1.736   2.336   0.402  0.00  0.00    +0.055 C 
ATOM      7  C   UNL     1      -2.956  -1.611  -0.467  0.00  0.00    +0.024 C 
ATOM      8  C   UNL     1      -3.741  -0.498  -0.721  0.00  0.00    +0.099 C 
ENDBRANCH   1   3
BRANCH   1   9
ATOM      9  C   UNL     1       0.960  -0.838   0.635  0.00  0.00    +0.184 C 
BRANCH   9  11
ATOM     10  N   UNL     1       3.426  -1.022   0.363  0.00  0.00    +0.388 N 
ATOM     11  C   UNL     1       2.303  -0.123   0.669  0.00  0.00    -0.017 C 
ATOM     12  C   UNL     1       2.385   1.024  -0.337  0.00  0.00    -0.020 C 
ATOM     13  C   UNL     1       3.821   0.975  -0.814  0.00  0.00    -0.025 C 
ATOM     14  C   UNL     1       4.101  -0.513  -0.832  0.00  0.00    -0.082 C 
ATOM     15  H   UNL     1       3.077  -1.964   0.188  0.00  0.00    -0.084 HD
ATOM     16  H   UNL     1       4.076  -1.058   1.148  0.00  0.00    -0.084 HD
ENDBRANCH   9  11
ENDBRANCH   1   9
TORSDOF 3
