REMARK  Name = 6450818
REMARK  2 active torsions:
REMARK  status: ('A' for Active; 'I' for Inactive)
REMARK    1  A    between atoms: N_1  and  C_18
REMARK    2  A    between atoms: C_18  and  C_19
REMARK                            x       y       z     vdW  Elec       q    Type
REMARK                         _______ _______ _______ _____ _____    ______ ____
ROOT
ATOM      1  N   UNL     1      -1.395   0.043   0.537  0.00  0.00    -0.278 N 
ATOM      2  N   UNL     1      -1.302   2.221   0.105  0.00  0.00    -0.390 NA
ATOM      3  N   UNL     1       2.306   1.507  -0.357  0.00  0.00    -0.388 NA
ATOM      4  N   UNL     1       0.935  -1.802   0.503  0.00  0.00    -0.244 NA
ATOM      5  N   UNL     1       1.250   3.638  -0.589  0.00  0.00    -0.331 N 
ATOM      6  C   UNL     1      -0.077   0.307   0.268  0.00  0.00    +0.174 C 
ATOM      7  C   UNL     1      -2.087   1.217   0.427  0.00  0.00    +0.161 C 
ATOM      8  C   UNL     1      -0.046   1.671   0.002  0.00  0.00    +0.177 C 
ATOM      9  C   UNL     1       1.068  -0.484   0.229  0.00  0.00    +0.110 C 
ATOM     10  C   UNL     1       1.176   2.261  -0.314  0.00  0.00    +0.204 C 
ATOM     11  C   UNL     1       2.255   0.183  -0.096  0.00  0.00    +0.131 C 
ATOM     12  C   UNL     1      -3.545   1.297   0.652  0.00  0.00    +0.084 C 
ATOM     13  C   UNL     1       3.388  -0.622  -0.130  0.00  0.00    +0.088 C 
ATOM     14  C   UNL     1       2.072  -2.525   0.452  0.00  0.00    +0.094 C 
ATOM     15  C   UNL     1       3.310  -1.988   0.144  0.00  0.00    +0.002 C 
ATOM     16  H   UNL     1       2.116   4.050  -0.811  0.00  0.00    +0.145 HD
ATOM     17  H   UNL     1       0.435   4.190  -0.559  0.00  0.00    +0.145 HD
ENDROOT
BRANCH   1  18
ATOM     18  C   UNL     1      -1.968  -1.241   0.878  0.00  0.00    +0.093 C 
BRANCH  18  19
ATOM     19  C   UNL     1      -2.441  -2.054  -0.340  0.00  0.00    +0.020 C 
ATOM     20  C   UNL     1      -1.309  -2.306  -1.338  0.00  0.00    +0.002 C 
ATOM     21  C   UNL     1      -3.591  -1.323  -1.035  0.00  0.00    +0.002 C 
ENDBRANCH  18  19
ENDBRANCH   1  18
TORSDOF 2
