REMARK  Name = 9837243
REMARK  5 active torsions:
REMARK  status: ('A' for Active; 'I' for Inactive)
REMARK    1  A    between atoms: N_2  and  C_10
REMARK    2  A    between atoms: C_3  and  C_7
REMARK    3  A    between atoms: C_7  and  C_8
REMARK    4  A    between atoms: C_10  and  C_13
REMARK    5  A    between atoms: C_10  and  C_16
REMARK                            x       y       z     vdW  Elec       q    Type
REMARK                         _______ _______ _______ _____ _____    ______ ____
ROOT
ATOM      1  O   UNL     1      -1.186  -2.592  -0.785  0.00  0.00    -0.275 OA
ATOM      2  N   UNL     1      -0.632  -0.436  -0.022  0.00  0.00    -0.273 N 
ATOM      3  C   UNL     1       1.669  -0.704   0.191  0.00  0.00    +0.029 C 
ATOM      4  C   UNL     1       0.570   0.348   0.139  0.00  0.00    +0.094 C 
ATOM      5  C   UNL     1       1.116  -1.843  -0.670  0.00  0.00    +0.087 C 
ATOM      6  C   UNL     1      -0.380  -1.719  -0.500  0.00  0.00    +0.226 C 
ENDROOT
BRANCH   3   7
ATOM      7  C   UNL     1       3.013  -0.188  -0.293  0.00  0.00    +0.002 C 
BRANCH   7   8
ATOM      8  C   UNL     1       3.538   0.917   0.616  0.00  0.00    +0.000 C 
ATOM      9  C   UNL     1       4.871   1.451   0.118  0.00  0.00    +0.000 C 
ENDBRANCH   7   8
ENDBRANCH   3   7
BRANCH   2  10
ATOM     10  C   UNL     1      -1.944   0.139   0.181  0.00  0.00    +0.151 C 
BRANCH  10  13
ATOM     11  O   UNL     1      -2.420   2.451  -0.396  0.00  0.00    -0.274 OA
ATOM     12  N   UNL     1      -1.910   0.983  -2.087  0.00  0.00    -0.327 N 
ATOM     13  C   UNL     1      -2.110   1.321  -0.765  0.00  0.00    +0.237 C 
ATOM     14  H   UNL     1      -1.992   1.669  -2.788  0.00  0.00    +0.145 HD
ATOM     15  H   UNL     1      -1.685   0.055  -2.329  0.00  0.00    +0.145 HD
ENDBRANCH  10  13
BRANCH  10  16
ATOM     16  C   UNL     1      -2.192   0.512   1.646  0.00  0.00    +0.029 C 
ATOM     17  C   UNL     1      -2.002  -0.640   2.626  0.00  0.00    +0.002 C 
ENDBRANCH  10  16
ENDBRANCH   2  10
TORSDOF 5
