REMARK  Name = 10071196
REMARK  8 active torsions:
REMARK  status: ('A' for Active; 'I' for Inactive)
REMARK    1  A    between atoms: N_2  and  C_7
REMARK    2  A    between atoms: N_2  and  C_14
REMARK    3  A    between atoms: N_3  and  C_22
REMARK    4  A    between atoms: C_14  and  C_16
REMARK    5  A    between atoms: C_22  and  C_23
REMARK    6  A    between atoms: C_26  and  O_29
REMARK    7  A    between atoms: O_29  and  C_30
REMARK    8  A    between atoms: C_30  and  C_31
REMARK                            x       y       z     vdW  Elec       q    Type
REMARK                         _______ _______ _______ _____ _____    ______ ____
ROOT
ATOM      1  O   UNL     1       1.825  -2.250  -0.444  0.00  0.00    -0.253 OA
ATOM      2  N   UNL     1       2.582  -0.128  -1.016  0.00  0.00    -0.262 N 
ATOM      3  N   UNL     1       0.750  -1.127  -2.138  0.00  0.00    -0.285 N 
ATOM      4  C   UNL     1       1.726  -1.244  -1.152  0.00  0.00    +0.304 C 
ATOM      5  H   UNL     1       0.713  -0.303  -2.676  0.00  0.00    +0.151 HD
ENDROOT
BRANCH   2   7
ATOM      6  N   UNL     1       5.096  -1.376   2.155  0.00  0.00    +0.386 N 
ATOM      7  C   UNL     1       3.635  -0.093  -0.031  0.00  0.00    +0.073 C 
ATOM      8  C   UNL     1       3.063  -0.198   1.382  0.00  0.00    -0.003 C 
ATOM      9  C   UNL     1       4.652  -1.208  -0.273  0.00  0.00    -0.003 C 
ATOM     10  C   UNL     1       4.176  -0.264   2.429  0.00  0.00    -0.076 C 
ATOM     11  C   UNL     1       5.713  -1.240   0.828  0.00  0.00    -0.076 C 
ATOM     12  C   UNL     1       6.125  -1.456   3.191  0.00  0.00    -0.101 C 
ATOM     13  H   UNL     1       4.555  -2.241   2.163  0.00  0.00    -0.080 HD
ENDBRANCH   2   7
BRANCH   2  14
ATOM     14  C   UNL     1       2.449   1.059  -1.867  0.00  0.00    +0.122 C 
BRANCH  14  16
ATOM     15  F   UNL     1      -0.900   4.947   0.450  0.00  0.00    -0.204 F 
ATOM     16  C   UNL     1       1.556   2.096  -1.250  0.00  0.00    -0.002 C 
ATOM     17  C   UNL     1       2.097   3.076  -0.418  0.00  0.00    -0.000 C 
ATOM     18  C   UNL     1       0.185   2.079  -1.507  0.00  0.00    -0.000 C 
ATOM     19  C   UNL     1       1.268   4.040   0.156  0.00  0.00    +0.029 C 
ATOM     20  C   UNL     1      -0.645   3.042  -0.933  0.00  0.00    +0.029 C 
ATOM     21  C   UNL     1      -0.103   4.022  -0.102  0.00  0.00    +0.140 C 
ENDBRANCH  14  16
ENDBRANCH   2  14
BRANCH   3  22
ATOM     22  C   UNL     1      -0.213  -2.174  -2.398  0.00  0.00    +0.118 C 
BRANCH  22  23
ATOM     23  C   UNL     1      -1.456  -2.012  -1.571  0.00  0.00    -0.002 C 
ATOM     24  C   UNL     1      -1.538  -2.610  -0.313  0.00  0.00    +0.000 C 
ATOM     25  C   UNL     1      -2.528  -1.265  -2.060  0.00  0.00    +0.000 C 
ATOM     26  C   UNL     1      -3.764  -1.713  -0.034  0.00  0.00    +0.139 C 
ATOM     27  C   UNL     1      -2.693  -2.460   0.456  0.00  0.00    +0.037 C 
ATOM     28  C   UNL     1      -3.682  -1.116  -1.291  0.00  0.00    +0.037 C 
BRANCH  26  29
ATOM     29  O   UNL     1      -4.891  -1.568   0.716  0.00  0.00    -0.475 OA
BRANCH  29  30
ATOM     30  C   UNL     1      -5.635  -0.363   0.542  0.00  0.00    +0.205 C 
BRANCH  30  31
ATOM     31  C   UNL     1      -6.334   0.012   1.853  0.00  0.00    +0.044 C 
ATOM     32  C   UNL     1      -5.323   0.230   2.980  0.00  0.00    +0.004 C 
ATOM     33  C   UNL     1      -7.192   1.260   1.661  0.00  0.00    +0.004 C 
ENDBRANCH  30  31
ENDBRANCH  29  30
ENDBRANCH  26  29
ENDBRANCH  22  23
ENDBRANCH   3  22
TORSDOF 8
