REMARK  Name = 9946267
REMARK  6 active torsions:
REMARK  status: ('A' for Active; 'I' for Inactive)
REMARK    1  A    between atoms: C_2  and  O_17
REMARK    2  A    between atoms: C_3  and  N_7
REMARK    3  A    between atoms: C_4  and  O_19
REMARK    4  A    between atoms: C_5  and  C_21
REMARK    5  A    between atoms: C_21  and  O_22
REMARK    6  A    between atoms: O_22  and  S_23
REMARK                            x       y       z     vdW  Elec       q    Type
REMARK                         _______ _______ _______ _____ _____    ______ ____
ROOT
ATOM      1  O   UNL     1       1.035  -0.759   1.008  0.00  0.00    -0.335 OA
ATOM      2  C   UNL     1       0.195  -1.991  -0.832  0.00  0.00    +0.183 C 
ATOM      3  C   UNL     1      -0.196  -1.221   0.420  0.00  0.00    +0.209 C 
ATOM      4  C   UNL     1       1.507  -2.618  -0.403  0.00  0.00    +0.171 C 
ATOM      5  C   UNL     1       2.133  -1.514   0.445  0.00  0.00    +0.178 C 
ENDROOT
BRANCH   3   7
ATOM      6  O   UNL     1      -4.580   2.728  -0.404  0.00  0.00    -0.221 OA
ATOM      7  N   UNL     1      -1.079  -0.084   0.168  0.00  0.00    -0.210 NA
ATOM      8  N   UNL     1      -1.718   2.008  -0.341  0.00  0.00    -0.242 NA
ATOM      9  N   UNL     1      -3.300  -1.023   0.503  0.00  0.00    -0.259 NA
ATOM     10  N   UNL     1      -5.101   0.543   0.178  0.00  0.00    -0.183 NA
ATOM     11  C   UNL     1      -2.431  -0.049   0.216  0.00  0.00    +0.173 C 
ATOM     12  C   UNL     1      -0.690   1.192  -0.176  0.00  0.00    +0.205 C 
ATOM     13  C   UNL     1      -2.812   1.227  -0.095  0.00  0.00    +0.167 C 
ATOM     14  C   UNL     1      -4.219   1.591  -0.128  0.00  0.00    +0.168 C 
ATOM     15  C   UNL     1      -4.627  -0.640   0.461  0.00  0.00    +0.211 C 
ATOM     16  H   UNL     1      -3.017  -1.939   0.726  0.00  0.00    +0.127 HD
ENDBRANCH   3   7
BRANCH   2  17
ATOM     17  O   UNL     1      -0.783  -2.946  -1.191  0.00  0.00    -0.378 OA
ATOM     18  H   UNL     1      -1.597  -2.490  -1.456  0.00  0.00    +0.211 HD
ENDBRANCH   2  17
BRANCH   4  19
ATOM     19  O   UNL     1       1.245  -3.746   0.431  0.00  0.00    -0.379 OA
ATOM     20  H   UNL     1       0.847  -4.454  -0.099  0.00  0.00    +0.211 HD
ENDBRANCH   4  19
BRANCH   5  21
ATOM     21  C   UNL     1       3.003  -0.564  -0.367  0.00  0.00    +0.209 C 
BRANCH  21  22
ATOM     22  O   UNL     1       3.526   0.425   0.502  0.00  0.00    -0.198 OA
BRANCH  22  23
ATOM     23  S   UNL     1       4.507   1.595  -0.089  0.00  0.00    +0.239 S 
ATOM     24  O   UNL     1       5.003   2.388   1.247  0.00  0.00    -0.022 OA
ATOM     25  O   UNL     1       5.668   0.945  -0.669  0.00  0.00    -0.116 OA
ATOM     26  O   UNL     1       3.713   2.513  -0.884  0.00  0.00    -0.116 OA
ENDBRANCH  22  23
ENDBRANCH  21  22
ENDBRANCH   5  21
TORSDOF 6
