REMARK  Name = 49855250
REMARK  11 active torsions:
REMARK  status: ('A' for Active; 'I' for Inactive)
REMARK    1  A    between atoms: N_1  and  C_18
REMARK    2  A    between atoms: C_3  and  C_26
REMARK    3  A    between atoms: C_8  and  C_10
REMARK    4  A    between atoms: C_11  and  C_14
REMARK    5  A    between atoms: N_13  and  O_16
REMARK    6  A    between atoms: C_18  and  C_19
REMARK    7  A    between atoms: C_19  and  N_20
REMARK    8  A    between atoms: N_20  and  C_22
REMARK    9  A    between atoms: N_20  and  C_24
REMARK   10  A    between atoms: C_26  and  C_27
REMARK   11  A    between atoms: C_27  and  C_28
REMARK                            x       y       z     vdW  Elec       q    Type
REMARK                         _______ _______ _______ _____ _____    ______ ____
ROOT
ATOM      1  N   UNL     1       1.504  -0.281   0.632  0.00  0.00    -0.266 N 
ATOM      2  N   UNL     1       0.105  -1.972   0.280  0.00  0.00    -0.394 NA
ATOM      3  C   UNL     1       1.364  -1.626   0.434  0.00  0.00    +0.163 C 
ATOM      4  C   UNL     1       0.252   0.279   0.604  0.00  0.00    +0.079 C 
ATOM      5  C   UNL     1      -0.603  -0.797   0.383  0.00  0.00    +0.128 C 
ATOM      6  C   UNL     1      -0.192   1.594   0.749  0.00  0.00    +0.017 C 
ATOM      7  C   UNL     1      -1.987  -0.566   0.298  0.00  0.00    +0.087 C 
ATOM      8  C   UNL     1      -2.455   0.746   0.441  0.00  0.00    -0.015 C 
ATOM      9  C   UNL     1      -1.572   1.806   0.662  0.00  0.00    -0.002 C 
ENDROOT
BRANCH   8  10
ATOM     10  C   UNL     1      -3.885   1.008   0.356  0.00  0.00    +0.001 C 
ATOM     11  C   UNL     1      -4.793   0.189  -0.217  0.00  0.00    +0.059 C 
BRANCH  11  14
ATOM     12  O   UNL     1      -6.660   1.611   0.222  0.00  0.00    -0.268 OA
ATOM     13  N   UNL     1      -6.991  -0.395  -0.877  0.00  0.00    -0.193 N 
ATOM     14  C   UNL     1      -6.234   0.565  -0.256  0.00  0.00    +0.268 C 
ATOM     15  H   UNL     1      -6.595  -1.219  -1.244  0.00  0.00    +0.183 HD
BRANCH  13  16
ATOM     16  O   UNL     1      -8.365  -0.128  -0.956  0.00  0.00    -0.295 OA
ATOM     17  H   UNL     1      -8.812  -0.860  -1.409  0.00  0.00    +0.241 HD
ENDBRANCH  13  16
ENDBRANCH  11  14
ENDBRANCH   8  10
BRANCH   1  18
ATOM     18  C   UNL     1       2.746   0.429   0.836  0.00  0.00    +0.075 C 
BRANCH  18  19
ATOM     19  C   UNL     1       3.187   1.163  -0.430  0.00  0.00    -0.055 C 
BRANCH  19  20
ATOM     20  N   UNL     1       4.436   1.877  -0.191  0.00  0.00    +0.388 N 
ATOM     21  H   UNL     1       5.028   1.294   0.400  0.00  0.00    -0.080 HD
BRANCH  20  22
ATOM     22  C   UNL     1       4.181   3.139   0.506  0.00  0.00    -0.077 C 
ATOM     23  C   UNL     1       5.479   3.864   0.820  0.00  0.00    -0.025 C 
ENDBRANCH  20  22
BRANCH  20  24
ATOM     24  C   UNL     1       5.137   2.125  -1.452  0.00  0.00    -0.077 C 
ATOM     25  C   UNL     1       4.318   3.017  -2.369  0.00  0.00    -0.025 C 
ENDBRANCH  20  24
ENDBRANCH  19  20
ENDBRANCH  18  19
ENDBRANCH   1  18
BRANCH   3  26
ATOM     26  C   UNL     1       2.523  -2.542   0.405  0.00  0.00    +0.075 C 
BRANCH  26  27
ATOM     27  C   UNL     1       2.165  -3.940  -0.137  0.00  0.00    +0.009 C 
BRANCH  27  28
ATOM     28  C   UNL     1       3.361  -4.891  -0.121  0.00  0.00    +0.000 C 
ATOM     29  C   UNL     1       2.979  -6.275  -0.621  0.00  0.00    +0.000 C 
ENDBRANCH  27  28
ENDBRANCH  26  27
ENDBRANCH   3  26
TORSDOF 11
