REMARK  Name = 9901946
REMARK  8 active torsions:
REMARK  status: ('A' for Active; 'I' for Inactive)
REMARK    1  A    between atoms: O_1  and  C_2
REMARK    2  A    between atoms: O_1  and  C_12
REMARK    3  A    between atoms: C_2  and  C_3
REMARK    4  A    between atoms: C_3  and  C_4
REMARK    5  A    between atoms: C_4  and  N_5
REMARK    6  A    between atoms: C_6  and  O_10
REMARK    7  A    between atoms: C_12  and  C_13
REMARK    8  A    between atoms: C_13  and  C_15
REMARK                            x       y       z     vdW  Elec       q    Type
REMARK                         _______ _______ _______ _____ _____    ______ ____
ROOT
ATOM      1  O   UNL     1      -0.202  -2.550   0.255  0.00  0.00    -0.353 OA
ENDROOT
BRANCH   1   2
ATOM      2  C   UNL     1      -1.278  -3.137  -0.464  0.00  0.00    +0.140 C 
BRANCH   2   3
ATOM      3  C   UNL     1      -2.527  -2.290  -0.262  0.00  0.00    +0.009 C 
BRANCH   3   4
ATOM      4  C   UNL     1      -2.318  -0.860  -0.749  0.00  0.00    -0.075 C 
BRANCH   4   5
ATOM      5  N   UNL     1      -3.521  -0.068  -0.523  0.00  0.00    +0.390 N 
ATOM      6  C   UNL     1      -3.938   1.806   0.336  0.00  0.00    +0.069 C 
ATOM      7  C   UNL     1      -3.289   1.327  -0.971  0.00  0.00    -0.050 C 
ATOM      8  C   UNL     1      -3.538   0.425   0.875  0.00  0.00    -0.050 C 
ATOM      9  H   UNL     1      -4.278  -0.637  -0.903  0.00  0.00    -0.080 HD
BRANCH   6  10
ATOM     10  O   UNL     1      -5.372   2.078   0.275  0.00  0.00    -0.389 OA
ATOM     11  H   UNL     1      -5.518   2.969  -0.078  0.00  0.00    +0.210 HD
ENDBRANCH   6  10
ENDBRANCH   4   5
ENDBRANCH   3   4
ENDBRANCH   2   3
ENDBRANCH   1   2
BRANCH   1  12
ATOM     12  C   UNL     1       0.997  -3.298   0.104  0.00  0.00    +0.147 C 
BRANCH  12  13
ATOM     13  C   UNL     1       2.124  -2.627   0.895  0.00  0.00    +0.058 C 
BRANCH  13  15
ATOM     14  S   UNL     1       3.174   3.002  -0.866  0.00  0.00    -0.086 S 
ATOM     15  C   UNL     1       2.425  -1.245   0.420  0.00  0.00    -0.020 C 
ATOM     16  C   UNL     1       1.750  -0.157   0.980  0.00  0.00    -0.004 C 
ATOM     17  C   UNL     1       2.024   1.160   0.538  0.00  0.00    +0.006 C 
ATOM     18  C   UNL     1       3.370  -1.046  -0.576  0.00  0.00    -0.004 C 
ATOM     19  C   UNL     1       2.981   1.335  -0.466  0.00  0.00    +0.029 C 
ATOM     20  C   UNL     1       3.663   0.241  -1.033  0.00  0.00    +0.006 C 
ATOM     21  C   UNL     1       1.470   2.418   0.954  0.00  0.00    +0.007 C 
ATOM     22  C   UNL     1       2.005   3.487   0.276  0.00  0.00    +0.035 C 
ENDBRANCH  13  15
ENDBRANCH  12  13
ENDBRANCH   1  12
TORSDOF 8
