REMARK  Name = 11658655
REMARK  1 active torsions:
REMARK  status: ('A' for Active; 'I' for Inactive)
REMARK    1  A    between atoms: C_2  and  C_11
REMARK                            x       y       z     vdW  Elec       q    Type
REMARK                         _______ _______ _______ _____ _____    ______ ____
ROOT
ATOM      1  N   UNL     1       3.544  -0.382  -0.973  0.00  0.00    +0.384 N 
ATOM      2  C   UNL     1       1.548   0.396  -0.004  0.00  0.00    -0.002 C 
ATOM      3  C   UNL     1       2.304  -0.357   1.024  0.00  0.00    -0.019 C 
ATOM      4  C   UNL     1       2.216   1.144   1.120  0.00  0.00    +0.000 C 
ATOM      5  C   UNL     1       2.223   0.165  -1.318  0.00  0.00    -0.078 C 
ATOM      6  C   UNL     1       3.437  -1.046   0.335  0.00  0.00    -0.081 C 
ATOM      7  H   UNL     1       4.227   0.374  -0.922  0.00  0.00    -0.085 HD
ATOM      8  H   UNL     1       3.847  -1.048  -1.684  0.00  0.00    -0.085 HD
ENDROOT
BRANCH   2  11
ATOM      9 CL   UNL     1      -2.802  -2.402   0.110  0.00  0.00    -0.081 Cl
ATOM     10 CL   UNL     1      -4.458   0.372  -0.077  0.00  0.00    -0.081 Cl
ATOM     11  C   UNL     1       0.063   0.373  -0.020  0.00  0.00    -0.024 C 
ATOM     12  C   UNL     1      -0.622  -0.844   0.044  0.00  0.00    +0.008 C 
ATOM     13  C   UNL     1      -0.656   1.568  -0.101  0.00  0.00    -0.003 C 
ATOM     14  C   UNL     1      -2.016  -0.864   0.028  0.00  0.00    +0.068 C 
ATOM     15  C   UNL     1      -2.050   1.547  -0.117  0.00  0.00    +0.012 C 
ATOM     16  C   UNL     1      -2.731   0.331  -0.052  0.00  0.00    +0.068 C 
ENDBRANCH   2  11
TORSDOF 1
