REMARK  Name = 11159621
REMARK  1 active torsions:
REMARK  status: ('A' for Active; 'I' for Inactive)
REMARK    1  A    between atoms: C_8  and  C_14
REMARK                            x       y       z     vdW  Elec       q    Type
REMARK                         _______ _______ _______ _____ _____    ______ ____
ROOT
ATOM      1  N   UNL     1      -1.616   1.829  -0.005  0.00  0.00    -0.279 N 
ATOM      2  N   UNL     1      -0.259   1.877  -0.027  0.00  0.00    -0.163 NA
ATOM      3  C   UNL     1      -1.388  -1.680   0.090  0.00  0.00    +0.030 C 
ATOM      4  C   UNL     1      -2.933  -1.587  -0.193  0.00  0.00    +0.011 C 
ATOM      5  C   UNL     1      -0.989  -0.266   0.043  0.00  0.00    +0.020 A 
ATOM      6  C   UNL     1      -3.377  -0.103   0.074  0.00  0.00    +0.045 C 
ATOM      7  C   UNL     1      -2.070   0.561   0.037  0.00  0.00    +0.050 A 
ATOM      8  C   UNL     1       0.112   0.583   0.003  0.00  0.00    +0.162 A 
ATOM      9  H   UNL     1      -2.196   2.624  -0.019  0.00  0.00    +0.189 HD
ENDROOT
BRANCH   8  14
ATOM     10  N   UNL     1       2.544   0.971  -0.040  0.00  0.00    -0.108 NA
ATOM     11  N   UNL     1       1.815  -1.172   0.031  0.00  0.00    -0.085 NA
ATOM     12  N   UNL     1       3.527   0.060  -0.026  0.00  0.00    -0.140 N 
ATOM     13  N   UNL     1       3.142  -1.223   0.016  0.00  0.00    -0.022 NA
ATOM     14  C   UNL     1       1.492   0.151  -0.003  0.00  0.00    +0.093 C 
ATOM     15  H   UNL     1       4.477   0.318  -0.045  0.00  0.00    +0.197 HD
ENDBRANCH   8  14
TORSDOF 1
