REMARK  Name = 466151
REMARK  6 active torsions:
REMARK  status: ('A' for Active; 'I' for Inactive)
REMARK    1  A    between atoms: S_1  and  N_5
REMARK    2  A    between atoms: S_1  and  C_18
REMARK    3  A    between atoms: C_7  and  C_14
REMARK    4  A    between atoms: N_13  and  O_16
REMARK    5  A    between atoms: C_23  and  O_24
REMARK    6  A    between atoms: O_24  and  C_26
REMARK                            x       y       z     vdW  Elec       q    Type
REMARK                         _______ _______ _______ _____ _____    ______ ____
ROOT
ATOM      1  S   UNL     1      -1.287  -1.172  -0.773  0.00  0.00    +0.064 S 
ATOM      2  O   UNL     1      -1.715  -1.348  -2.144  0.00  0.00    -0.153 OA
ATOM      3  O   UNL     1      -1.279  -2.282   0.155  0.00  0.00    -0.153 OA
ENDROOT
BRANCH   1   5
ATOM      4  S   UNL     1      -3.874   2.275   1.503  0.00  0.00    -0.139 S 
ATOM      5  N   UNL     1      -2.166   0.126  -0.077  0.00  0.00    -0.146 NA
ATOM      6  C   UNL     1      -4.257   1.536  -0.142  0.00  0.00    +0.063 C 
ATOM      7  C   UNL     1      -3.644   0.125  -0.302  0.00  0.00    +0.166 C 
ATOM      8  C   UNL     1      -1.728   0.545   1.285  0.00  0.00    +0.108 C 
ATOM      9  C   UNL     1      -2.081   1.998   1.547  0.00  0.00    +0.077 C 
ATOM     10  C   UNL     1      -3.729   2.478  -1.243  0.00  0.00    +0.013 C 
ATOM     11  C   UNL     1      -5.792   1.484  -0.263  0.00  0.00    +0.013 C 
BRANCH   7  14
ATOM     12  O   UNL     1      -4.224  -0.850   1.794  0.00  0.00    -0.271 OA
ATOM     13  N   UNL     1      -4.835  -1.947  -0.146  0.00  0.00    -0.196 N 
ATOM     14  C   UNL     1      -4.255  -0.932   0.568  0.00  0.00    +0.261 C 
ATOM     15  H   UNL     1      -4.830  -1.963  -1.131  0.00  0.00    +0.182 HD
BRANCH  13  16
ATOM     16  O   UNL     1      -5.434  -2.962   0.613  0.00  0.00    -0.295 OA
ATOM     17  H   UNL     1      -5.813  -3.629   0.019  0.00  0.00    +0.241 HD
ENDBRANCH  13  16
ENDBRANCH   7  14
ENDBRANCH   1   5
BRANCH   1  18
ATOM     18  C   UNL     1       0.331  -0.469  -0.796  0.00  0.00    +0.122 C 
ATOM     19  C   UNL     1       1.352  -1.093  -0.099  0.00  0.00    +0.023 C 
ATOM     20  C   UNL     1       0.554   0.696  -1.512  0.00  0.00    +0.023 C 
ATOM     21  C   UNL     1       2.632  -0.537  -0.117  0.00  0.00    +0.039 C 
ATOM     22  C   UNL     1       1.834   1.252  -1.530  0.00  0.00    +0.039 C 
ATOM     23  C   UNL     1       2.872   0.635  -0.833  0.00  0.00    +0.145 C 
BRANCH  23  24
ATOM     24  O   UNL     1       4.121   1.177  -0.851  0.00  0.00    -0.453 OA
BRANCH  24  26
ATOM     25  N   UNL     1       7.104  -0.782   1.277  0.00  0.00    -0.242 NA
ATOM     26  C   UNL     1       5.116   0.525  -0.143  0.00  0.00    +0.148 C 
ATOM     27  C   UNL     1       5.868  -0.443  -0.773  0.00  0.00    +0.058 C 
ATOM     28  C   UNL     1       5.330   0.857   1.178  0.00  0.00    +0.058 C 
ATOM     29  C   UNL     1       6.850  -1.067  -0.020  0.00  0.00    +0.102 C 
ATOM     30  C   UNL     1       6.335   0.175   1.844  0.00  0.00    +0.102 C 
ENDBRANCH  24  26
ENDBRANCH  23  24
ENDBRANCH   1  18
TORSDOF 6
