REMARK  Name = 9578005
REMARK  6 active torsions:
REMARK  status: ('A' for Active; 'I' for Inactive)
REMARK    1  A    between atoms: C_1  and  C_3
REMARK    2  A    between atoms: C_1  and  S_15
REMARK    3  A    between atoms: C_5  and  O_9
REMARK    4  A    between atoms: O_9  and  C_10
REMARK    5  A    between atoms: C_10  and  C_14
REMARK    6  A    between atoms: S_15  and  C_19
REMARK                            x       y       z     vdW  Elec       q    Type
REMARK                         _______ _______ _______ _____ _____    ______ ____
ROOT
ATOM      1  C   UNL     1       0.489  -0.904  -0.632  0.00  0.00    +0.140 C 
ENDROOT
BRANCH   1   3
ATOM      2  N   UNL     1      -1.165  -2.636  -0.361  0.00  0.00    -0.247 NA
ATOM      3  C   UNL     1      -0.952  -1.318  -0.556  0.00  0.00    +0.072 C 
ATOM      4  C   UNL     1      -1.951  -0.372  -0.683  0.00  0.00    +0.027 C 
ATOM      5  C   UNL     1      -3.268  -0.810  -0.605  0.00  0.00    +0.138 C 
ATOM      6  C   UNL     1      -1.641   1.071  -0.898  0.00  0.00    +0.035 C 
ATOM      7  C   UNL     1      -3.535  -2.160  -0.405  0.00  0.00    +0.057 C 
ATOM      8  C   UNL     1      -2.458  -3.024  -0.290  0.00  0.00    +0.102 C 
BRANCH   5   9
ATOM      9  O   UNL     1      -4.306   0.065  -0.721  0.00  0.00    -0.467 OA
BRANCH   9  10
ATOM     10  C   UNL     1      -5.199   0.162   0.386  0.00  0.00    +0.308 C 
BRANCH  10  14
ATOM     11  F   UNL     1      -4.795   2.471   0.564  0.00  0.00    -0.166 F 
ATOM     12  F   UNL     1      -6.620   1.699   1.476  0.00  0.00    -0.166 F 
ATOM     13  F   UNL     1      -6.457   1.838  -0.699  0.00  0.00    -0.166 F 
ATOM     14  C   UNL     1      -5.777   1.553   0.432  0.00  0.00    +0.438 C 
ENDBRANCH  10  14
ENDBRANCH   9  10
ENDBRANCH   5   9
ENDBRANCH   1   3
BRANCH   1  15
ATOM     15  S   UNL     1       1.151  -0.475   1.004  0.00  0.00    +0.085 S 
ATOM     16  O   UNL     1       1.174  -1.751   1.823  0.00  0.00    -0.252 OA
BRANCH  15  19
ATOM     17  N   UNL     1       3.906  -0.204   1.392  0.00  0.00    -0.307 N 
ATOM     18  N   UNL     1       3.175   0.467  -0.597  0.00  0.00    -0.307 N 
ATOM     19  C   UNL     1       2.830  -0.043   0.564  0.00  0.00    +0.226 C 
ATOM     20  C   UNL     1       5.019   0.232   0.720  0.00  0.00    +0.060 C 
ATOM     21  C   UNL     1       4.537   0.645  -0.518  0.00  0.00    +0.060 C 
ATOM     22  C   UNL     1       6.366   0.297   1.079  0.00  0.00    +0.016 C 
ATOM     23  C   UNL     1       5.437   1.157  -1.468  0.00  0.00    +0.016 C 
ATOM     24  C   UNL     1       7.248   0.810   0.122  0.00  0.00    +0.001 C 
ATOM     25  C   UNL     1       6.794   1.233  -1.130  0.00  0.00    +0.001 C 
ATOM     26  H   UNL     1       3.885  -0.567   2.307  0.00  0.00    +0.149 HD
ATOM     27  H   UNL     1       2.586   0.676  -1.358  0.00  0.00    +0.149 HD
ENDBRANCH  15  19
ENDBRANCH   1  15
TORSDOF 6
