REMARK  Name = 9949641
REMARK  3 active torsions:
REMARK  status: ('A' for Active; 'I' for Inactive)
REMARK    1  A    between atoms: C_5  and  C_16
REMARK    2  A    between atoms: CB_10  and  CG_24
REMARK    3  A    between atoms: C_15  and  C_20
REMARK                            x       y       z     vdW  Elec       q    Type
REMARK                         _______ _______ _______ _____ _____    ______ ____
ROOT
ATOM      1  O   UNK A   1      -0.249  -2.135   0.884  0.00  0.00    -0.266 OA
ATOM      2  O   PHE A   2      -1.096   2.914  -0.719  0.00  0.00    -0.266 OA
ATOM      3  N   UNK A   1       0.367   1.269  -0.095  0.00  0.00    -0.316 N 
ATOM      4  N   PHE A   2      -1.712  -0.490   0.259  0.00  0.00    -0.316 N 
ATOM      5  C   UNK A   1       1.920  -0.395   0.544  0.00  0.00    +0.037 C 
ATOM      6  C   UNK A   1       0.658  -0.006   0.316  0.00  0.00    +0.117 A 
ATOM      7  C   UNK A   1      -0.450  -0.980   0.516  0.00  0.00    +0.273 A 
ATOM      8  CA  PHE A   2      -2.004   0.784  -0.153  0.00  0.00    +0.116 A 
ATOM      9  C   PHE A   2      -0.895   1.758  -0.352  0.00  0.00    +0.273 A 
ATOM     10  CB  PHE A   2      -3.266   1.173  -0.380  0.00  0.00    +0.022 C 
ATOM     11  H   UNK A   1       1.123   1.887  -0.217  0.00  0.00    +0.169 HD
ATOM     12  H   PHE A   2      -2.469  -1.108   0.381  0.00  0.00    +0.169 HD
ENDROOT
BRANCH   5  16
ATOM     13  N   UNK A   1       5.040   1.217   0.015  0.00  0.00    -0.319 N 
ATOM     14  N   UNK A   1       2.980   1.784   0.621  0.00  0.00    -0.316 N 
ATOM     15  C   UNK A   1       4.317   0.058   0.013  0.00  0.00    +0.035 C 
ATOM     16  C   UNK A   1       3.068   0.446   0.388  0.00  0.00    +0.057 C 
ATOM     17  C   UNK A   1       4.196   2.226   0.387  0.00  0.00    +0.181 C 
ATOM     18  H   UNK A   1       5.994   1.310  -0.209  0.00  0.00    +0.148 HD
ATOM     19  H   UNK A   1       2.190   2.300   0.901  0.00  0.00    +0.148 HD
BRANCH  15  20
ATOM     20  C   UNK A   1       4.916  -1.239  -0.343  0.00  0.00    +0.032 C 
ATOM     21  C   UNK A   1       4.219  -1.904  -1.583  0.00  0.00    +0.006 C 
ATOM     22  C   UNK A   1       4.832  -2.282   0.829  0.00  0.00    +0.006 C 
ATOM     23  C   UNK A   1       6.444  -1.208  -0.725  0.00  0.00    +0.006 C 
ENDBRANCH  15  20
ENDBRANCH   5  16
BRANCH  10  24
ATOM     24  CG  PHE A   2      -4.413   0.333  -0.224  0.00  0.00    +0.002 C 
ATOM     25  CD1 PHE A   2      -4.870  -0.467  -1.287  0.00  0.00    +0.000 C 
ATOM     26  CD2 PHE A   2      -5.112   0.285   0.996  0.00  0.00    +0.000 C 
ATOM     27  CE1 PHE A   2      -5.989  -1.286  -1.135  0.00  0.00    +0.000 C 
ATOM     28  CE2 PHE A   2      -6.231  -0.534   1.148  0.00  0.00    +0.000 C 
ATOM     29  CZ  PHE A   2      -6.669  -1.320   0.082  0.00  0.00    +0.000 C 
ENDBRANCH  10  24
TORSDOF 3
