REMARK  Name = 42642648
REMARK  5 active torsions:
REMARK  status: ('A' for Active; 'I' for Inactive)
REMARK    1  A    between atoms: N_1  and  C_22
REMARK    2  A    between atoms: C_4  and  N_15
REMARK    3  A    between atoms: C_25  and  O_28
REMARK    4  A    between atoms: O_28  and  C_29
REMARK    5  A    between atoms: C_29  and  C_32
REMARK                            x       y       z     vdW  Elec       q    Type
REMARK                         _______ _______ _______ _____ _____    ______ ____
ROOT
ATOM      1  N   UNL     1      -0.686  -0.635   0.779  0.00  0.00    -0.301 N 
ATOM      2  N   UNL     1      -2.683  -4.116  -0.234  0.00  0.00    -0.248 NA
ATOM      3  N   UNL     1      -0.658  -2.949   0.352  0.00  0.00    -0.233 NA
ATOM      4  C   UNL     1      -4.861  -0.572   0.034  0.00  0.00    +0.048 C 
ATOM      5  C   UNL     1      -2.755  -1.758   0.194  0.00  0.00    +0.117 C 
ATOM      6  C   UNL     1      -3.493  -0.564   0.284  0.00  0.00    +0.001 C 
ATOM      7  C   UNL     1      -3.379  -2.969  -0.146  0.00  0.00    +0.067 C 
ATOM      8  C   UNL     1      -1.385  -1.818   0.431  0.00  0.00    +0.115 C 
ATOM      9  C   UNL     1      -5.490  -1.765  -0.304  0.00  0.00    +0.016 C 
ATOM     10  C   UNL     1      -4.750  -2.947  -0.392  0.00  0.00    +0.016 C 
ATOM     11  C   UNL     1      -1.361  -4.044   0.019  0.00  0.00    +0.251 C 
ATOM     12  H   UNL     1      -1.234   0.020   1.268  0.00  0.00    +0.153 HD
ENDROOT
BRANCH   4  15
ATOM     13  O   UNL     1      -6.139   2.841   0.067  0.00  0.00    -0.448 OA
ATOM     14  N   UNL     1      -3.993   2.282  -0.481  0.00  0.00    -0.222 NA
ATOM     15  N   UNL     1      -5.606   0.621   0.122  0.00  0.00    -0.269 N 
ATOM     16  C   UNL     1      -4.144   3.733  -0.674  0.00  0.00    +0.151 C 
ATOM     17  C   UNL     1      -5.439   4.077   0.031  0.00  0.00    +0.233 C 
ATOM     18  C   UNL     1      -5.177   1.891  -0.119  0.00  0.00    +0.284 C 
ATOM     19  C   UNL     1      -2.943   4.468  -0.111  0.00  0.00    +0.030 C 
ATOM     20  H   UNL     1      -6.549   0.525   0.390  0.00  0.00    +0.157 HD
ENDBRANCH   4  15
BRANCH   1  22
ATOM     21 CL   UNL     1       3.479  -0.803  -2.185  0.00  0.00    -0.079 Cl
ATOM     22  C   UNL     1       0.637  -0.218   0.561  0.00  0.00    +0.050 C 
ATOM     23  C   UNL     1       1.330  -0.658  -0.566  0.00  0.00    +0.029 C 
ATOM     24  C   UNL     1       1.257   0.636   1.472  0.00  0.00    +0.018 C 
ATOM     25  C   UNL     1       3.265   0.612   0.129  0.00  0.00    +0.150 C 
ATOM     26  C   UNL     1       2.644  -0.243  -0.783  0.00  0.00    +0.093 C 
ATOM     27  C   UNL     1       2.571   1.051   1.256  0.00  0.00    +0.039 C 
BRANCH  25  28
ATOM     28  O   UNL     1       4.548   1.033  -0.057  0.00  0.00    -0.468 OA
BRANCH  28  29
ATOM     29  C   UNL     1       5.492   0.698   0.959  0.00  0.00    +0.257 C 
BRANCH  29  32
ATOM     30  S   UNL     1       7.696  -0.910   0.451  0.00  0.00    -0.067 S 
ATOM     31  N   UNL     1       7.471   1.556  -0.290  0.00  0.00    -0.237 NA
ATOM     32  C   UNL     1       6.855   0.582   0.342  0.00  0.00    +0.132 C 
ATOM     33  C   UNL     1       8.998  -0.211  -0.418  0.00  0.00    +0.057 C 
ATOM     34  C   UNL     1       8.700   1.100  -0.725  0.00  0.00    +0.106 C 
ENDBRANCH  29  32
ENDBRANCH  28  29
ENDBRANCH  25  28
ENDBRANCH   1  22
TORSDOF 5
