REMARK  Name = 6918218
REMARK  7 active torsions:
REMARK  status: ('A' for Active; 'I' for Inactive)
REMARK    1  A    between atoms: C_5  and  C_25
REMARK    2  A    between atoms: C_7  and  C_10
REMARK    3  A    between atoms: C_8  and  C_15
REMARK    4  A    between atoms: C_15  and  O_16
REMARK    5  A    between atoms: O_16  and  C_17
REMARK    6  A    between atoms: C_17  and  C_21
REMARK    7  A    between atoms: C_25  and  O_27
REMARK                            x       y       z     vdW  Elec       q    Type
REMARK                         _______ _______ _______ _____ _____    ______ ____
ROOT
ATOM      1  S   UNL     1      -3.336   0.628   0.711  0.00  0.00    -0.094 S 
ATOM      2  O   UNL     1       0.205   2.081  -1.650  0.00  0.00    -0.274 OA
ATOM      3  N   UNL     1      -0.784   0.973   0.187  0.00  0.00    -0.244 N 
ATOM      4  C   UNL     1      -1.849   1.676   0.919  0.00  0.00    +0.143 C 
ATOM      5  C   UNL     1      -1.664   2.838  -0.072  0.00  0.00    +0.133 C 
ATOM      6  C   UNL     1      -0.530   1.985  -0.693  0.00  0.00    +0.235 C 
ATOM      7  C   UNL     1      -2.365  -0.695   0.073  0.00  0.00    +0.051 C 
ATOM      8  C   UNL     1      -1.097  -0.317  -0.159  0.00  0.00    +0.135 C 
ENDROOT
BRANCH   7  10
ATOM      9  O   UNL     1      -4.410  -1.792  -0.525  0.00  0.00    -0.351 OA
ATOM     10  C   UNL     1      -3.026  -2.003  -0.194  0.00  0.00    +0.145 C 
ATOM     11  C   UNL     1      -3.010  -2.945   1.001  0.00  0.00    +0.037 C 
ATOM     12  C   UNL     1      -4.250  -3.770   0.760  0.00  0.00    +0.035 C 
ATOM     13  C   UNL     1      -5.205  -2.736   0.207  0.00  0.00    +0.143 C 
ENDBRANCH   7  10
BRANCH   8  15
ATOM     14  O   UNL     1      -0.317  -2.005  -1.628  0.00  0.00    -0.243 OA
ATOM     15  C   UNL     1      -0.073  -1.145  -0.794  0.00  0.00    +0.356 C 
BRANCH  15  16
ATOM     16  O   UNL     1       1.143  -0.792  -0.303  0.00  0.00    -0.436 OA
BRANCH  16  17
ATOM     17  C   UNL     1       2.256  -1.519  -0.833  0.00  0.00    +0.275 C 
BRANCH  17  21
ATOM     18  O   UNL     1       3.701   0.324  -0.114  0.00  0.00    -0.391 OA
ATOM     19  O   UNL     1       5.523  -0.844   0.743  0.00  0.00    -0.395 OA
ATOM     20  O   UNL     1       5.497   1.450   0.763  0.00  0.00    -0.202 OA
ATOM     21  C   UNL     1       3.522  -1.041  -0.219  0.00  0.00    +0.204 A 
ATOM     22  C   UNL     1       4.553  -1.701   0.266  0.00  0.00    +0.164 A 
ATOM     23  C   UNL     1       4.816  -3.156   0.371  0.00  0.00    +0.076 C 
ATOM     24  C   UNL     1       4.949   0.390   0.485  0.00  0.00    +0.521 A 
ENDBRANCH  17  21
ENDBRANCH  16  17
ENDBRANCH  15  16
ENDBRANCH   8  15
BRANCH   5  25
ATOM     25  C   UNL     1      -1.226   4.200   0.416  0.00  0.00    +0.122 C 
ATOM     26  C   UNL     1      -0.685   5.047  -0.729  0.00  0.00    +0.032 C 
BRANCH  25  27
ATOM     27  O   UNL     1      -2.337   4.870   1.009  0.00  0.00    -0.384 OA
ATOM     28  H   UNL     1      -2.685   4.335   1.739  0.00  0.00    +0.210 HD
ENDBRANCH  25  27
ENDBRANCH   5  25
TORSDOF 7
