REMARK  Name = 179340
REMARK  8 active torsions:
REMARK  status: ('A' for Active; 'I' for Inactive)
REMARK    1  A    between atoms: N_2  and  C_5
REMARK    2  A    between atoms: C_3  and  C_21
REMARK    3  A    between atoms: C_5  and  C_6
REMARK    4  A    between atoms: C_5  and  C_12
REMARK    5  A    between atoms: C_12  and  N_13
REMARK    6  A    between atoms: C_16  and  O_19
REMARK    7  A    between atoms: C_21  and  C_22
REMARK    8  A    between atoms: C_21  and  C_28
REMARK                            x       y       z     vdW  Elec       q    Type
REMARK                         _______ _______ _______ _____ _____    ______ ____
ROOT
ATOM      1  O   UNL     1       0.345  -0.696  -1.581  0.00  0.00    -0.274 OA
ATOM      2  N   UNL     1      -0.925  -0.392   0.343  0.00  0.00    -0.277 N 
ATOM      3  C   UNL     1       0.277  -0.639  -0.348  0.00  0.00    +0.234 C 
ATOM      4  C   UNL     1      -0.986  -0.328   1.805  0.00  0.00    +0.115 C 
ENDROOT
BRANCH   2   5
ATOM      5  C   UNL     1      -2.181  -0.183  -0.344  0.00  0.00    +0.077 C 
BRANCH   5   6
ATOM      6  C   UNL     1      -3.175  -1.267   0.024  0.00  0.00    -0.006 C 
ATOM      7  C   UNL     1      -4.078  -1.035   1.045  0.00  0.00    -0.003 C 
ATOM      8  C   UNL     1      -3.155  -2.462  -0.671  0.00  0.00    -0.003 C 
ATOM      9  C   UNL     1      -4.992  -2.032   1.383  0.00  0.00    -0.000 C 
ATOM     10  C   UNL     1      -4.069  -3.460  -0.334  0.00  0.00    -0.000 C 
ATOM     11  C   UNL     1      -4.988  -3.245   0.694  0.00  0.00    -0.000 C 
ENDBRANCH   5   6
BRANCH   5  12
ATOM     12  C   UNL     1      -2.749   1.219  -0.073  0.00  0.00    -0.052 C 
BRANCH  12  13
ATOM     13  N   UNL     1      -1.787   2.252  -0.426  0.00  0.00    +0.390 N 
ATOM     14  C   UNL     1      -2.301   3.604  -0.185  0.00  0.00    -0.047 C 
ATOM     15  C   UNL     1      -1.431   2.223  -1.844  0.00  0.00    -0.075 C 
ATOM     16  C   UNL     1      -1.363   4.485  -1.003  0.00  0.00    +0.088 C 
ATOM     17  C   UNL     1      -0.726   3.558  -2.036  0.00  0.00    +0.004 C 
ATOM     18  H   UNL     1      -0.980   2.050   0.164  0.00  0.00    -0.080 HD
BRANCH  16  19
ATOM     19  O   UNL     1      -0.363   5.037  -0.156  0.00  0.00    -0.387 OA
ATOM     20  H   UNL     1      -0.779   5.624   0.495  0.00  0.00    +0.210 HD
ENDBRANCH  16  19
ENDBRANCH  12  13
ENDBRANCH   5  12
ENDBRANCH   2   5
BRANCH   3  21
ATOM     21  C   UNL     1       1.545  -0.833   0.502  0.00  0.00    +0.121 C 
BRANCH  21  22
ATOM     22  C   UNL     1       2.176   0.511   0.869  0.00  0.00    -0.010 C 
ATOM     23  C   UNL     1       2.871   0.613   2.052  0.00  0.00    -0.003 C 
ATOM     24  C   UNL     1       2.025   1.569   0.001  0.00  0.00    -0.003 C 
ATOM     25  C   UNL     1       3.447   1.839   2.386  0.00  0.00    -0.000 C 
ATOM     26  C   UNL     1       2.602   2.795   0.335  0.00  0.00    -0.000 C 
ATOM     27  C   UNL     1       3.313   2.929   1.528  0.00  0.00    -0.000 C 
ENDBRANCH  21  22
BRANCH  21  28
ATOM     28  C   UNL     1       2.547  -1.806  -0.112  0.00  0.00    -0.010 C 
ATOM     29  C   UNL     1       3.514  -1.314  -0.962  0.00  0.00    -0.003 C 
ATOM     30  C   UNL     1       2.451  -3.144   0.205  0.00  0.00    -0.003 C 
ATOM     31  C   UNL     1       4.430  -2.203  -1.523  0.00  0.00    -0.000 C 
ATOM     32  C   UNL     1       3.368  -4.033  -0.357  0.00  0.00    -0.000 C 
ATOM     33  C   UNL     1       4.357  -3.563  -1.220  0.00  0.00    -0.000 C 
ENDBRANCH  21  28
ENDBRANCH   3  21
TORSDOF 8
