REMARK  Name = 65781
REMARK  4 active torsions:
REMARK  status: ('A' for Active; 'I' for Inactive)
REMARK    1  A    between atoms: C_3  and  C_25
REMARK    2  A    between atoms: C_15  and  S_17
REMARK    3  A    between atoms: C_16  and  C_21
REMARK    4  A    between atoms: C_25  and  O_26
REMARK                            x       y       z     vdW  Elec       q    Type
REMARK                         _______ _______ _______ _____ _____    ______ ____
ROOT
ATOM      1  C   UNL     1       2.294  -0.323  -0.067  0.00  0.00    +0.014 C 
ATOM      2  C   UNL     1       1.241   0.753  -0.520  0.00  0.00    +0.019 C 
ATOM      3  C   UNL     1       3.786   0.135  -0.021  0.00  0.00    +0.090 C 
ATOM      4  C   UNL     1       1.487   2.040   0.316  0.00  0.00    +0.004 C 
ATOM      5  C   UNL     1       2.068  -1.638  -0.831  0.00  0.00    +0.006 C 
ATOM      6  C   UNL     1       3.911   1.471   0.741  0.00  0.00    +0.011 C 
ATOM      7  C   UNL     1       2.931   2.535   0.266  0.00  0.00    +0.001 C 
ATOM      8  C   UNL     1      -0.178   0.178  -0.302  0.00  0.00    -0.025 C 
ATOM      9  C   UNL     1       0.705  -2.225  -0.477  0.00  0.00    +0.026 C 
ATOM     10  C   UNL     1       1.296   1.117  -2.025  0.00  0.00    +0.004 C 
ATOM     11  C   UNL     1      -0.407  -1.216  -0.333  0.00  0.00    -0.026 C 
ATOM     12  C   UNL     1       4.502   0.213  -1.376  0.00  0.00    +0.011 C 
ATOM     13  C   UNL     1      -1.290   1.029  -0.142  0.00  0.00    +0.014 C 
ATOM     14  C   UNL     1      -1.713  -1.714  -0.171  0.00  0.00    -0.008 C 
ATOM     15  C   UNL     1      -2.581   0.520   0.011  0.00  0.00    +0.108 C 
ATOM     16  C   UNL     1      -2.792  -0.852   0.000  0.00  0.00    -0.005 C 
ENDROOT
BRANCH  15  17
ATOM     17  S   UNL     1      -3.911   1.640   0.208  0.00  0.00    +0.042 S 
ATOM     18  O   UNL     1      -4.389   1.464   1.761  0.00  0.00    -0.065 OA
ATOM     19  O   UNL     1      -3.381   2.988   0.075  0.00  0.00    -0.065 OA
ATOM     20  O   UNL     1      -4.984   1.173  -0.653  0.00  0.00    -0.065 OA
ENDBRANCH  15  17
BRANCH  16  21
ATOM     21  C   UNL     1      -4.158  -1.433   0.164  0.00  0.00    +0.024 C 
ATOM     22  C   UNL     1      -4.276  -2.310   1.425  0.00  0.00    +0.005 C 
ATOM     23  C   UNL     1      -4.609  -2.232  -1.073  0.00  0.00    +0.005 C 
ENDBRANCH  16  21
BRANCH   3  25
ATOM     24  O   UNL     1       4.058  -1.897   1.290  0.00  0.00    -0.250 OA
ATOM     25  C   UNL     1       4.545  -0.887   0.803  0.00  0.00    +0.313 C 
BRANCH  25  26
ATOM     26  O   UNL     1       5.845  -0.528   0.933  0.00  0.00    -0.480 OA
ATOM     27  H   UNL     1       6.155   0.261   0.534  0.00  0.00    +0.295 HD
ENDBRANCH  25  26
ENDBRANCH   3  25
TORSDOF 4
