REMARK  Name = 11270783
REMARK  7 active torsions:
REMARK  status: ('A' for Active; 'I' for Inactive)
REMARK    1  A    between atoms: N_3  and  C_30
REMARK    2  A    between atoms: N_4  and  C_32
REMARK    3  A    between atoms: C_11  and  C_16
REMARK    4  A    between atoms: N_14  and  C_19
REMARK    5  A    between atoms: C_19  and  C_20
REMARK    6  A    between atoms: C_23  and  C_29
REMARK    7  A    between atoms: C_32  and  C_33
REMARK                            x       y       z     vdW  Elec       q    Type
REMARK                         _______ _______ _______ _____ _____    ______ ____
ROOT
ATOM      1  O   UNL     1      -4.872  -2.069   1.119  0.00  0.00    -0.265 OA
ATOM      2  O   UNL     1      -5.658   2.087  -0.921  0.00  0.00    -0.246 OA
ATOM      3  N   UNL     1      -3.512   1.195  -1.033  0.00  0.00    -0.269 N 
ATOM      4  N   UNL     1      -5.294   0.013   0.105  0.00  0.00    -0.248 N 
ATOM      5  N   UNL     1      -2.061  -1.759   0.168  0.00  0.00    -0.309 N 
ATOM      6  N   UNL     1      -1.355   0.011  -0.990  0.00  0.00    -0.301 N 
ATOM      7  C   UNL     1      -2.684   0.135  -0.687  0.00  0.00    +0.132 A 
ATOM      8  C   UNL     1      -3.143  -0.939   0.025  0.00  0.00    +0.133 A 
ATOM      9  C   UNL     1      -4.486  -1.093   0.482  0.00  0.00    +0.280 A 
ATOM     10  C   UNL     1      -4.874   1.173  -0.642  0.00  0.00    +0.335 A 
ATOM     11  C   UNL     1      -1.008  -1.144  -0.459  0.00  0.00    +0.172 C 
ATOM     12  H   UNL     1      -2.040  -2.626   0.633  0.00  0.00    +0.149 HD
ATOM     13  H   UNL     1      -0.787   0.641  -1.490  0.00  0.00    +0.150 HD
ENDROOT
BRANCH  11  16
ATOM     14  N   UNL     1       2.461  -2.017  -0.956  0.00  0.00    -0.206 N 
ATOM     15  N   UNL     1       2.121  -3.117  -0.262  0.00  0.00    -0.176 NA
ATOM     16  C   UNL     1       0.350  -1.715  -0.528  0.00  0.00    +0.051 C 
ATOM     17  C   UNL     1       1.430  -1.143  -1.142  0.00  0.00    +0.085 C 
ATOM     18  C   UNL     1       0.825  -2.925  -0.003  0.00  0.00    +0.118 C 
BRANCH  14  19
ATOM     19  C   UNL     1       3.817  -1.855  -1.422  0.00  0.00    +0.143 C 
BRANCH  19  20
ATOM     20  C   UNL     1       4.667  -1.145  -0.404  0.00  0.00    -0.000 C 
ATOM     21  C   UNL     1       4.756   0.240  -0.433  0.00  0.00    +0.001 C 
ATOM     22  C   UNL     1       5.350  -1.884   0.552  0.00  0.00    -0.003 C 
ATOM     23  C   UNL     1       5.543   0.899   0.511  0.00  0.00    +0.071 C 
ATOM     24  C   UNL     1       6.137  -1.226   1.497  0.00  0.00    -0.000 C 
ATOM     25  C   UNL     1       6.234   0.165   1.477  0.00  0.00    +0.004 C 
BRANCH  23  29
ATOM     26  F   UNL     1       6.449   2.893   1.472  0.00  0.00    -0.166 F 
ATOM     27  F   UNL     1       6.154   2.883  -0.676  0.00  0.00    -0.166 F 
ATOM     28  F   UNL     1       4.438   2.999   0.653  0.00  0.00    -0.166 F 
ATOM     29  C   UNL     1       5.646   2.386   0.490  0.00  0.00    +0.419 C 
ENDBRANCH  23  29
ENDBRANCH  19  20
ENDBRANCH  14  19
ENDBRANCH  11  16
BRANCH   3  30
ATOM     30  C   UNL     1      -2.984   2.322  -1.792  0.00  0.00    +0.112 C 
ATOM     31  C   UNL     1      -2.448   3.404  -0.878  0.00  0.00    +0.027 C 
ENDBRANCH   3  30
BRANCH   4  32
ATOM     32  C   UNL     1      -6.697  -0.008   0.505  0.00  0.00    +0.114 C 
BRANCH  32  33
ATOM     33  C   UNL     1      -6.921   0.637   1.868  0.00  0.00    +0.025 C 
ATOM     34  C   UNL     1      -8.379   0.599   2.303  0.00  0.00    +0.002 C 
ENDBRANCH  32  33
ENDBRANCH   4  32
TORSDOF 7
