REMARK  Name = 10013505
REMARK  1 active torsions:
REMARK  status: ('A' for Active; 'I' for Inactive)
REMARK    1  A    between atoms: C_10  and  C_15
REMARK                            x       y       z     vdW  Elec       q    Type
REMARK                         _______ _______ _______ _____ _____    ______ ____
ROOT
ATOM      1  S   UNL     1      -1.212   1.394   0.161  0.00  0.00    -0.115 S 
ATOM      2  O   UNL     1      -2.050  -2.355  -0.165  0.00  0.00    -0.274 OA
ATOM      3  N   UNL     1      -0.202  -0.971  -0.241  0.00  0.00    -0.299 N 
ATOM      4  N   UNL     1       3.227   0.334   0.052  0.00  0.00    +0.386 N 
ATOM      5  C   UNL     1       0.292   0.373   0.001  0.00  0.00    +0.092 C 
ATOM      6  C   UNL     1       1.141   0.875  -1.173  0.00  0.00    +0.006 C 
ATOM      7  C   UNL     1       1.094   0.433   1.308  0.00  0.00    +0.006 C 
ATOM      8  C   UNL     1       2.511   0.186  -1.222  0.00  0.00    -0.075 C 
ATOM      9  C   UNL     1       2.462  -0.246   1.164  0.00  0.00    -0.075 C 
ATOM     10  C   UNL     1      -2.309  -0.024   0.428  0.00  0.00    +0.125 C 
ATOM     11  C   UNL     1      -1.540  -1.248  -0.027  0.00  0.00    +0.233 C 
ATOM     12  C   UNL     1       4.552  -0.280  -0.032  0.00  0.00    -0.101 C 
ATOM     13  H   UNL     1       0.409  -1.677  -0.552  0.00  0.00    +0.150 HD
ATOM     14  H   UNL     1       3.339   1.331   0.235  0.00  0.00    -0.080 HD
ENDROOT
BRANCH  10  15
ATOM     15  C   UNL     1      -3.606   0.142  -0.344  0.00  0.00    +0.020 C 
ATOM     16  C   UNL     1      -4.361   1.387   0.090  0.00  0.00    +0.001 C 
ENDBRANCH  10  15
TORSDOF 1
