REMARK  Name = 6918141
REMARK  14 active torsions:
REMARK  status: ('A' for Active; 'I' for Inactive)
REMARK    1  A    between atoms: C_2  and  C_30
REMARK    2  A    between atoms: C_11  and  C_12
REMARK    3  A    between atoms: C_16  and  O_20
REMARK    4  A    between atoms: C_17  and  O_22
REMARK    5  A    between atoms: C_18  and  O_24
REMARK    6  A    between atoms: O_24  and  C_25
REMARK    7  A    between atoms: C_25  and  C_26
REMARK    8  A    between atoms: C_26  and  C_27
REMARK    9  A    between atoms: C_27  and  O_28
REMARK   10  A    between atoms: C_30  and  C_32
REMARK   11  A    between atoms: C_32  and  C_33
REMARK   12  A    between atoms: C_33  and  C_34
REMARK   13  A    between atoms: C_34  and  C_35
REMARK   14  A    between atoms: C_35  and  O_38
REMARK                            x       y       z     vdW  Elec       q    Type
REMARK                         _______ _______ _______ _____ _____    ______ ____
ROOT
ATOM      1  C   UNL     1       2.414   1.645   0.028  0.00  0.00    +0.003 C 
ATOM      2  C   UNL     1       3.600   0.710   0.379  0.00  0.00    +0.000 C 
ATOM      3  C   UNL     1       1.377   0.584  -0.418  0.00  0.00    +0.018 C 
ATOM      4  C   UNL     1       2.940  -0.477   1.112  0.00  0.00    +0.000 C 
ATOM      5  C   UNL     1       1.467  -0.492   0.669  0.00  0.00    +0.004 C 
ATOM      6  C   UNL     1       2.707   2.617  -1.140  0.00  0.00    +0.001 C 
ATOM      7  C   UNL     1       0.055   1.208  -0.782  0.00  0.00    -0.045 C 
ATOM      8  C   UNL     1       1.955   2.461   1.264  0.00  0.00    +0.000 C 
ATOM      9  C   UNL     1       1.558   2.716  -2.162  0.00  0.00    +0.004 C 
ATOM     10  C   UNL     1       0.161   2.501  -1.564  0.00  0.00    +0.022 C 
ATOM     11  C   UNL     1      -1.139   0.686  -0.466  0.00  0.00    -0.009 C 
ENDROOT
BRANCH  11  12
ATOM     12  C   UNL     1      -2.391   1.297  -0.836  0.00  0.00    -0.005 C 
ATOM     13  C   UNL     1      -3.587   0.775  -0.521  0.00  0.00    -0.021 C 
ATOM     14  C   UNL     1      -4.877   1.469  -0.887  0.00  0.00    +0.058 C 
ATOM     15  C   UNL     1      -3.736  -0.469   0.232  0.00  0.00    +0.003 C 
ATOM     16  C   UNL     1      -5.813   1.595   0.318  0.00  0.00    +0.145 C 
ATOM     17  C   UNL     1      -4.721  -0.435   1.384  0.00  0.00    +0.162 C 
ATOM     18  C   UNL     1      -6.048   0.242   1.005  0.00  0.00    +0.173 C 
ATOM     19  C   UNL     1      -3.091  -1.597  -0.105  0.00  0.00    -0.002 C 
BRANCH  16  20
ATOM     20  O   UNL     1      -7.064   2.134  -0.095  0.00  0.00    -0.382 OA
ATOM     21  H   UNL     1      -6.920   2.990  -0.529  0.00  0.00    +0.210 HD
ENDBRANCH  16  20
BRANCH  17  22
ATOM     22  O   UNL     1      -4.113   0.281   2.459  0.00  0.00    -0.377 OA
ATOM     23  H   UNL     1      -3.275  -0.146   2.699  0.00  0.00    +0.211 HD
ENDBRANCH  17  22
BRANCH  18  24
ATOM     24  O   UNL     1      -6.807  -0.629   0.165  0.00  0.00    -0.351 OA
BRANCH  24  25
ATOM     25  C   UNL     1      -7.097  -1.853   0.822  0.00  0.00    +0.145 C 
BRANCH  25  26
ATOM     26  C   UNL     1      -7.924  -2.744  -0.091  0.00  0.00    +0.064 C 
BRANCH  26  27
ATOM     27  C   UNL     1      -7.204  -3.051  -1.394  0.00  0.00    +0.140 C 
BRANCH  27  28
ATOM     28  O   UNL     1      -5.991  -3.729  -1.099  0.00  0.00    -0.382 OA
ATOM     29  H   UNL     1      -5.523  -3.930  -1.925  0.00  0.00    +0.210 HD
ENDBRANCH  27  28
ENDBRANCH  26  27
ENDBRANCH  25  26
ENDBRANCH  24  25
ENDBRANCH  18  24
ENDBRANCH  11  12
BRANCH   2  30
ATOM     30  C   UNL     1       4.744   1.331   1.169  0.00  0.00    +0.000 C 
ATOM     31  C   UNL     1       5.308   2.552   0.437  0.00  0.00    +0.000 C 
BRANCH  30  32
ATOM     32  C   UNL     1       5.851   0.315   1.520  0.00  0.00    +0.000 C 
BRANCH  32  33
ATOM     33  C   UNL     1       6.492  -0.395   0.321  0.00  0.00    +0.002 C 
BRANCH  33  34
ATOM     34  C   UNL     1       7.538  -1.414   0.787  0.00  0.00    +0.027 C 
BRANCH  34  35
ATOM     35  C   UNL     1       8.203  -2.242  -0.332  0.00  0.00    +0.088 C 
ATOM     36  C   UNL     1       9.178  -3.288   0.213  0.00  0.00    +0.029 C 
ATOM     37  C   UNL     1       8.897  -1.361  -1.371  0.00  0.00    +0.029 C 
BRANCH  35  38
ATOM     38  O   UNL     1       7.158  -2.942  -1.023  0.00  0.00    -0.387 OA
ATOM     39  H   UNL     1       6.687  -3.517  -0.400  0.00  0.00    +0.210 HD
ENDBRANCH  35  38
ENDBRANCH  34  35
ENDBRANCH  33  34
ENDBRANCH  32  33
ENDBRANCH  30  32
ENDBRANCH   2  30
TORSDOF 14
