REMARK  Name = 507806
REMARK  5 active torsions:
REMARK  status: ('A' for Active; 'I' for Inactive)
REMARK    1  A    between atoms: C_9  and  C_18
REMARK    2  A    between atoms: C_10  and  C_11
REMARK    3  A    between atoms: C_18  and  C_21
REMARK    4  A    between atoms: C_25  and  O_29
REMARK    5  A    between atoms: C_26  and  O_31
REMARK                            x       y       z     vdW  Elec       q    Type
REMARK                         _______ _______ _______ _____ _____    ______ ____
ROOT
ATOM      1  O   UNL     1       0.678   3.810   0.465  0.00  0.00    -0.266 OA
ATOM      2  O   UNL     1      -5.538   1.003   1.309  0.00  0.00    -0.270 OA
ATOM      3  N   UNL     1      -0.941   2.171   0.002  0.00  0.00    -0.270 N 
ATOM      4  N   UNL     1      -3.256   0.792   0.850  0.00  0.00    -0.273 N 
ATOM      5  C   UNL     1      -1.290   0.890  -0.627  0.00  0.00    +0.115 C 
ATOM      6  C   UNL     1      -2.068   2.921   0.559  0.00  0.00    +0.115 C 
ATOM      7  C   UNL     1      -2.115   0.028   0.326  0.00  0.00    +0.115 C 
ATOM      8  C   UNL     1      -2.891   2.050   1.504  0.00  0.00    +0.115 C 
ATOM      9  C   UNL     1       0.331   2.722   0.024  0.00  0.00    +0.288 C 
ATOM     10  C   UNL     1      -4.591   0.387   0.822  0.00  0.00    +0.249 C 
ENDROOT
BRANCH  10  11
ATOM     11  C   UNL     1      -4.917  -0.874   0.145  0.00  0.00    +0.054 C 
ATOM     12  C   UNL     1      -4.911  -2.067   0.863  0.00  0.00    +0.005 C 
ATOM     13  C   UNL     1      -5.230  -0.872  -1.212  0.00  0.00    +0.005 C 
ATOM     14  C   UNL     1      -5.221  -3.266   0.220  0.00  0.00    +0.000 C 
ATOM     15  C   UNL     1      -5.539  -2.071  -1.855  0.00  0.00    +0.000 C 
ATOM     16  C   UNL     1      -5.535  -3.268  -1.139  0.00  0.00    +0.000 C 
ENDBRANCH  10  11
BRANCH   9  18
ATOM     17  O   UNL     1       1.593   2.079  -1.766  0.00  0.00    -0.282 OA
ATOM     18  C   UNL     1       1.411   1.897  -0.564  0.00  0.00    +0.250 C 
BRANCH  18  21
ATOM     19  N   UNL     1       2.881  -0.176   1.990  0.00  0.00    -0.308 N 
ATOM     20  N   UNL     1       5.301  -1.751  -0.309  0.00  0.00    -0.206 NA
ATOM     21  C   UNL     1       2.188   0.955   0.239  0.00  0.00    +0.062 C 
ATOM     22  C   UNL     1       3.233   0.118  -0.194  0.00  0.00    +0.058 C 
ATOM     23  C   UNL     1       3.656  -0.590   0.932  0.00  0.00    +0.105 C 
ATOM     24  C   UNL     1       1.981   0.768   1.572  0.00  0.00    +0.065 C 
ATOM     25  C   UNL     1       3.872  -0.124  -1.419  0.00  0.00    +0.159 C 
ATOM     26  C   UNL     1       4.686  -1.520   0.874  0.00  0.00    +0.239 C 
ATOM     27  C   UNL     1       4.892  -1.066  -1.402  0.00  0.00    +0.139 C 
ATOM     28  H   UNL     1       2.960  -0.511   2.912  0.00  0.00    +0.152 HD
BRANCH  25  29
ATOM     29  O   UNL     1       3.529   0.516  -2.574  0.00  0.00    -0.470 OA
ATOM     30  C   UNL     1       2.526  -0.097  -3.379  0.00  0.00    +0.253 C 
ENDBRANCH  25  29
BRANCH  26  31
ATOM     31  O   UNL     1       5.110  -2.223   1.974  0.00  0.00    -0.455 OA
ATOM     32  C   UNL     1       6.174  -3.144   1.771  0.00  0.00    +0.254 C 
ENDBRANCH  26  31
ENDBRANCH  18  21
ENDBRANCH   9  18
TORSDOF 5
