REMARK  Name = 10173277
REMARK  7 active torsions:
REMARK  status: ('A' for Active; 'I' for Inactive)
REMARK    1  A    between atoms: C_12  and  O_24
REMARK    2  A    between atoms: N_13  and  N_15
REMARK    3  A    between atoms: N_15  and  C_16
REMARK    4  A    between atoms: C_16  and  C_17
REMARK    5  A    between atoms: O_24  and  C_25
REMARK    6  A    between atoms: C_25  and  C_26
REMARK    7  A    between atoms: C_26  and  C_28
REMARK                            x       y       z     vdW  Elec       q    Type
REMARK                         _______ _______ _______ _____ _____    ______ ____
ROOT
ATOM      1  O   UNL     1      -0.407  -5.674  -0.337  0.00  0.00    -0.350 OA
ATOM      2  N   UNL     1       0.017  -2.915  -0.010  0.00  0.00    -0.281 N 
ATOM      3  N   UNL     1       1.616  -1.204   0.495  0.00  0.00    -0.300 NA
ATOM      4  N   UNL     1       0.898   1.083   0.744  0.00  0.00    -0.299 NA
ATOM      5  C   UNL     1       1.041  -3.753  -0.649  0.00  0.00    +0.125 C 
ATOM      6  C   UNL     1      -0.917  -3.630   0.867  0.00  0.00    +0.125 C 
ATOM      7  C   UNL     1       0.382  -4.967  -1.294  0.00  0.00    +0.164 C 
ATOM      8  C   UNL     1      -1.470  -4.852   0.142  0.00  0.00    +0.164 C 
ATOM      9  C   UNL     1       0.325  -1.574   0.245  0.00  0.00    +0.184 C 
ATOM     10  C   UNL     1      -0.708  -0.636   0.236  0.00  0.00    +0.153 C 
ATOM     11  C   UNL     1      -0.363   0.676   0.492  0.00  0.00    +0.195 C 
ATOM     12  C   UNL     1       1.825   0.106   0.731  0.00  0.00    +0.312 C 
ATOM     13  N   UNL     1      -1.403   1.637   0.486  0.00  0.00    -0.238 N 
ATOM     14  H   UNL     1      -1.197   2.583   0.664  0.00  0.00    +0.170 HD
ENDROOT
BRANCH  13  15
ATOM     15  N   UNL     1      -2.666   1.263   0.239  0.00  0.00    -0.127 NA
BRANCH  15  16
ATOM     16  C   UNL     1      -3.505   2.247   0.266  0.00  0.00    +0.138 C 
BRANCH  16  17
ATOM     17  C   UNL     1      -4.944   2.051   0.020  0.00  0.00    -0.003 C 
ATOM     18  C   UNL     1      -6.783   0.593  -0.481  0.00  0.00    -0.022 C 
ATOM     19  C   UNL     1      -5.420   0.778  -0.249  0.00  0.00    -0.007 C 
ATOM     20  C   UNL     1      -5.794   3.145   0.062  0.00  0.00    -0.003 C 
ATOM     21  C   UNL     1      -7.651   1.684  -0.442  0.00  0.00    -0.004 C 
ATOM     22  C   UNL     1      -7.157   2.960  -0.170  0.00  0.00    -0.001 C 
ATOM     23  C   UNL     1      -7.312  -0.771  -0.771  0.00  0.00    +0.031 C 
ENDBRANCH  16  17
ENDBRANCH  15  16
ENDBRANCH  13  15
BRANCH  12  24
ATOM     24  O   UNL     1       3.122   0.485   0.984  0.00  0.00    -0.399 OA
BRANCH  24  25
ATOM     25  C   UNL     1       4.100  -0.545   0.970  0.00  0.00    +0.229 C 
BRANCH  25  26
ATOM     26  C   UNL     1       5.472   0.042   1.280  0.00  0.00    +0.094 C 
BRANCH  26  28
ATOM     27  N   UNL     1       5.556   2.333   0.499  0.00  0.00    -0.248 NA
ATOM     28  C   UNL     1       5.907   1.059   0.253  0.00  0.00    +0.063 C 
ATOM     29  C   UNL     1       6.619   0.628  -0.845  0.00  0.00    +0.015 C 
ATOM     30  C   UNL     1       7.005   1.589  -1.772  0.00  0.00    +0.003 C 
ATOM     31  C   UNL     1       5.948   3.239  -0.424  0.00  0.00    +0.098 C 
ATOM     32  C   UNL     1       6.667   2.922  -1.565  0.00  0.00    +0.021 C 
ENDBRANCH  26  28
ENDBRANCH  25  26
ENDBRANCH  24  25
ENDBRANCH  12  24
TORSDOF 7
