REMARK  Name = 9970357
REMARK  2 active torsions:
REMARK  status: ('A' for Active; 'I' for Inactive)
REMARK    1  A    between atoms: N_2  and  C_17
REMARK    2  A    between atoms: C_3  and  C_7
REMARK                            x       y       z     vdW  Elec       q    Type
REMARK                         _______ _______ _______ _____ _____    ______ ____
ROOT
ATOM      1  O   UNL     1      -0.274   1.715  -0.298  0.00  0.00    -0.268 OA
ATOM      2  N   UNL     1       0.960  -0.246  -0.392  0.00  0.00    -0.303 N 
ATOM      3  C   UNL     1      -0.213   0.488  -0.296  0.00  0.00    +0.265 C 
ATOM      4  H   UNL     1       0.905  -1.229  -0.381  0.00  0.00    +0.150 HD
ENDROOT
BRANCH   3   7
ATOM      5  N   UNL     1      -1.360  -1.607  -0.135  0.00  0.00    -0.168 NA
ATOM      6  N   UNL     1      -2.645  -1.976  -0.001  0.00  0.00    -0.276 N 
ATOM      7  C   UNL     1      -1.465  -0.300  -0.157  0.00  0.00    +0.155 A 
ATOM      8  C   UNL     1      -2.743   0.215  -0.047  0.00  0.00    +0.041 A 
ATOM      9  C   UNL     1      -3.526  -0.929   0.058  0.00  0.00    +0.075 A 
ATOM     10  C   UNL     1      -3.360   1.476  -0.018  0.00  0.00    +0.003 C 
ATOM     11  C   UNL     1      -4.916  -0.891   0.192  0.00  0.00    +0.019 C 
ATOM     12  C   UNL     1      -4.753   1.537   0.115  0.00  0.00    +0.000 C 
ATOM     13  C   UNL     1      -5.516   0.372   0.218  0.00  0.00    +0.002 C 
ATOM     14  H   UNL     1      -2.929  -2.917   0.051  0.00  0.00    +0.189 HD
ENDBRANCH   3   7
BRANCH   2  17
ATOM     15  N   UNL     1       4.546  -0.615  -0.663  0.00  0.00    +0.388 N 
ATOM     16  C   UNL     1       2.881   0.663   0.873  0.00  0.00    +0.012 C 
ATOM     17  C   UNL     1       2.256   0.374  -0.506  0.00  0.00    +0.051 C 
ATOM     18  C   UNL     1       3.325  -0.663   1.515  0.00  0.00    -0.021 C 
ATOM     19  C   UNL     1       4.152   1.492   0.625  0.00  0.00    -0.021 C 
ATOM     20  C   UNL     1       3.233  -0.484  -1.335  0.00  0.00    -0.057 C 
ATOM     21  C   UNL     1       4.351  -1.355   0.603  0.00  0.00    -0.077 C 
ATOM     22  C   UNL     1       5.069   0.734  -0.350  0.00  0.00    -0.077 C 
ATOM     23  H   UNL     1       5.203  -1.109  -1.267  0.00  0.00    -0.080 HD
ENDBRANCH   2  17
TORSDOF 2
