REMARK  Name = 9844981
REMARK  4 active torsions:
REMARK  status: ('A' for Active; 'I' for Inactive)
REMARK    1  A    between atoms: C_10  and  N_19
REMARK    2  A    between atoms: C_20  and  C_22
REMARK    3  A    between atoms: C_22  and  C_27
REMARK    4  A    between atoms: C_22  and  O_28
REMARK                            x       y       z     vdW  Elec       q    Type
REMARK                         _______ _______ _______ _____ _____    ______ ____
ROOT
ATOM      1  S   UNL     1      -3.775  -0.772  -0.333  0.00  0.00    +0.013 S 
ATOM      2  S   UNL     1      -0.947   3.192  -0.266  0.00  0.00    -0.083 S 
ATOM      3  O   UNL     1      -3.768  -0.207  -1.668  0.00  0.00    -0.168 OA
ATOM      4  O   UNL     1      -4.814  -1.705   0.062  0.00  0.00    -0.168 OA
ATOM      5  O   UNL     1      -0.161   0.701  -1.727  0.00  0.00    -0.286 OA
ATOM      6  C   UNL     1      -2.214  -1.548  -0.066  0.00  0.00    +0.110 C 
ATOM      7  C   UNL     1      -3.768   0.525   0.876  0.00  0.00    +0.183 C 
ATOM      8  C   UNL     1      -1.020  -0.852  -0.269  0.00  0.00    +0.070 C 
ATOM      9  C   UNL     1      -2.834   1.652   0.586  0.00  0.00    +0.011 C 
ATOM     10  C   UNL     1       0.198  -1.512  -0.044  0.00  0.00    +0.055 C 
ATOM     11  C   UNL     1      -1.645   1.621  -0.129  0.00  0.00    +0.066 C 
ATOM     12  C   UNL     1      -0.925   0.536  -0.775  0.00  0.00    +0.204 C 
ATOM     13  C   UNL     1      -2.195  -2.880   0.361  0.00  0.00    +0.019 C 
ATOM     14  C   UNL     1       0.218  -2.838   0.387  0.00  0.00    +0.015 C 
ATOM     15  C   UNL     1      -3.118   2.984   1.051  0.00  0.00    +0.005 C 
ATOM     16  C   UNL     1      -0.977  -3.521   0.588  0.00  0.00    +0.003 C 
ATOM     17  C   UNL     1      -2.179   3.907   0.663  0.00  0.00    +0.035 C 
ENDROOT
BRANCH  10  19
ATOM     18  O   UNL     1       2.866  -1.986   1.222  0.00  0.00    -0.272 OA
ATOM     19  N   UNL     1       1.436  -0.900  -0.283  0.00  0.00    -0.282 N 
ATOM     20  C   UNL     1       2.663  -1.156   0.338  0.00  0.00    +0.259 C 
ATOM     21  H   UNL     1       1.443  -0.202  -0.977  0.00  0.00    +0.155 HD
BRANCH  20  22
ATOM     22  C   UNL     1       3.809  -0.278  -0.194  0.00  0.00    +0.245 C 
ATOM     23  C   UNL     1       4.028  -0.494  -1.692  0.00  0.00    +0.048 C 
BRANCH  22  27
ATOM     24  F   UNL     1       3.509   1.411   1.462  0.00  0.00    -0.167 F 
ATOM     25  F   UNL     1       2.436   1.644  -0.417  0.00  0.00    -0.167 F 
ATOM     26  F   UNL     1       4.592   1.959  -0.351  0.00  0.00    -0.167 F 
ATOM     27  C   UNL     1       3.588   1.193   0.131  0.00  0.00    +0.427 C 
ENDBRANCH  22  27
BRANCH  22  28
ATOM     28  O   UNL     1       4.998  -0.677   0.488  0.00  0.00    -0.372 OA
ATOM     29  H   UNL     1       4.882  -0.548   1.442  0.00  0.00    +0.211 HD
ENDBRANCH  22  28
ENDBRANCH  20  22
ENDBRANCH  10  19
TORSDOF 4
