REMARK  Name = 176077
REMARK  5 active torsions:
REMARK  status: ('A' for Active; 'I' for Inactive)
REMARK    1  A    between atoms: C_2  and  O_9
REMARK    2  A    between atoms: CA_3  and  C_15
REMARK    3  A    between atoms: C_4  and  O_11
REMARK    4  A    between atoms: C_5  and  O_13
REMARK    5  A    between atoms: C_15  and  O_16
REMARK                            x       y       z     vdW  Elec       q    Type
REMARK                         _______ _______ _______ _____ _____    ______ ____
ROOT
ATOM      1  N   UNL     1      -0.458   1.590   0.417  0.00  0.00    +0.390 N 
ATOM      2  C   UNL     1      -0.436  -0.843  -0.086  0.00  0.00    +0.123 C 
ATOM      3  CA  UNL     1      -1.138   0.510  -0.317  0.00  0.00    -0.002 C 
ATOM      4  C   UNL     1       1.038  -0.751  -0.490  0.00  0.00    +0.160 C 
ATOM      5  C   UNL     1       1.729   0.416   0.219  0.00  0.00    +0.118 C 
ATOM      6  C   UNL     1       0.942   1.713   0.013  0.00  0.00    -0.049 C 
ATOM      7  H1  UNL     1      -0.499   1.389   1.417  0.00  0.00    -0.084 HD
ATOM      8  H2  UNL     1      -0.931   2.469   0.205  0.00  0.00    -0.084 HD
ENDROOT
BRANCH   2   9
ATOM      9  O   UNL     1      -0.519  -1.220   1.290  0.00  0.00    -0.384 OA
ATOM     10  H   UNL     1      -1.450  -1.281   1.553  0.00  0.00    +0.210 HD
ENDBRANCH   2   9
BRANCH   4  11
ATOM     11  O   UNL     1       1.692  -1.975  -0.166  0.00  0.00    -0.380 OA
ATOM     12  H   UNL     1       1.247  -2.709  -0.620  0.00  0.00    +0.211 HD
ENDBRANCH   4  11
BRANCH   5  13
ATOM     13  O   UNL     1       3.035   0.571  -0.333  0.00  0.00    -0.384 OA
ATOM     14  H   UNL     1       3.539  -0.248  -0.205  0.00  0.00    +0.210 HD
ENDBRANCH   5  13
BRANCH   3  15
ATOM     15  C   UNL     1      -2.606   0.485   0.109  0.00  0.00    +0.118 C 
BRANCH  15  16
ATOM     16  O   UNL     1      -3.278  -0.496  -0.657  0.00  0.00    -0.384 OA
ATOM     17  H   UNL     1      -4.213  -0.524  -0.399  0.00  0.00    +0.210 HD
ENDBRANCH  15  16
ENDBRANCH   3  15
TORSDOF 5
