REMARK  Name = 68791
REMARK  0 active torsions:
REMARK  status: ('A' for Active; 'I' for Inactive)
REMARK                            x       y       z     vdW  Elec       q    Type
REMARK                         _______ _______ _______ _____ _____    ______ ____
ROOT
ATOM      1  O   UNL     1       2.253   0.859  -0.004  0.00  0.00    -0.193 OA
ATOM      2  N   UNL     1       0.769  -0.897  -0.320  0.00  0.00    -0.217 N 
ATOM      3  N   UNL     1      -0.036   1.179   0.225  0.00  0.00    -0.309 NA
ATOM      4  N   UNL     1      -2.403   0.714   0.029  0.00  0.00    -0.334 N 
ATOM      5  C   UNL     1      -0.672  -0.922  -0.422  0.00  0.00    +0.172 C 
ATOM      6  C   UNL     1       0.054  -1.795   0.526  0.00  0.00    +0.133 C 
ATOM      7  C   UNL     1      -1.073   0.442  -0.027  0.00  0.00    +0.189 C 
ATOM      8  C   UNL     1       1.108   0.420  -0.006  0.00  0.00    +0.270 C 
ATOM      9  H   UNL     1      -2.711   1.613   0.288  0.00  0.00    +0.144 HD
ATOM     10  H   UNL     1      -3.059   0.013  -0.189  0.00  0.00    +0.144 HD
ENDROOT
TORSDOF 0
