REMARK  Name = 11483754
REMARK  2 active torsions:
REMARK  status: ('A' for Active; 'I' for Inactive)
REMARK    1  A    between atoms: C_17  and  O_24
REMARK    2  A    between atoms: C_18  and  C_21
REMARK                            x       y       z     vdW  Elec       q    Type
REMARK                         _______ _______ _______ _____ _____    ______ ____
ROOT
ATOM      1  C   UNL     1      -3.297   0.509  -0.281  0.00  0.00    +0.000 C 
ATOM      2  C   UNL     1      -1.840   0.771   0.087  0.00  0.00    +0.004 C 
ATOM      3  C   UNL     1      -3.774  -0.869   0.231  0.00  0.00    +0.000 C 
ATOM      4  C   UNL     1      -0.962  -0.297  -0.637  0.00  0.00    +0.022 C 
ATOM      5  C   UNL     1      -2.988  -1.929  -0.547  0.00  0.00    +0.000 C 
ATOM      6  C   UNL     1      -1.465  -1.743  -0.365  0.00  0.00    +0.004 C 
ATOM      7  C   UNL     1      -4.404   1.475   0.131  0.00  0.00    +0.000 C 
ATOM      8  C   UNL     1      -1.364   2.165  -0.323  0.00  0.00    +0.005 C 
ATOM      9  C   UNL     1      -5.245  -0.721  -0.061  0.00  0.00    +0.000 C 
ATOM     10  C   UNL     1       0.521  -0.061  -0.366  0.00  0.00    -0.023 C 
ATOM     11  C   UNL     1      -3.633  -1.102   1.752  0.00  0.00    +0.000 C 
ATOM     12  C   UNL     1       0.056   2.397   0.186  0.00  0.00    +0.026 C 
ATOM     13  C   UNL     1      -5.597   0.576  -0.065  0.00  0.00    +0.000 C 
ATOM     14  C   UNL     1       0.988   1.228  -0.023  0.00  0.00    -0.026 C 
ATOM     15  C   UNL     1       1.466  -1.088  -0.535  0.00  0.00    +0.032 C 
ATOM     16  C   UNL     1       2.362   1.441   0.187  0.00  0.00    +0.003 C 
ATOM     17  C   UNL     1       2.829  -0.861  -0.331  0.00  0.00    +0.143 C 
ATOM     18  C   UNL     1       3.277   0.403   0.035  0.00  0.00    +0.087 C 
ENDROOT
BRANCH  18  21
ATOM     19  O   UNL     1       5.242   0.558   1.362  0.00  0.00    -0.270 OA
ATOM     20  N   UNL     1       5.441   1.068  -0.841  0.00  0.00    -0.325 N 
ATOM     21  C   UNL     1       4.692   0.662   0.256  0.00  0.00    +0.246 C 
ATOM     22  H   UNL     1       6.402   1.255  -0.739  0.00  0.00    +0.145 HD
ATOM     23  H   UNL     1       5.010   1.169  -1.720  0.00  0.00    +0.145 HD
ENDBRANCH  18  21
BRANCH  17  24
ATOM     24  O   UNL     1       3.704  -1.892  -0.499  0.00  0.00    -0.471 OA
ATOM     25  C   UNL     1       3.992  -2.690   0.647  0.00  0.00    +0.252 C 
ENDBRANCH  17  24
TORSDOF 2
