REMARK  Name = 6476
REMARK  1 active torsions:
REMARK  status: ('A' for Active; 'I' for Inactive)
REMARK    1  A    between atoms: C_4  and  C_10
REMARK                            x       y       z     vdW  Elec       q    Type
REMARK                         _______ _______ _______ _____ _____    ______ ____
ROOT
ATOM      1  O   UNL     1      -0.822  -1.620   1.429  0.00  0.00    -0.274 OA
ATOM      2  O   UNL     1      -3.208   1.043  -1.497  0.00  0.00    -0.274 OA
ATOM      3  N   UNL     1      -2.277  -0.513  -0.024  0.00  0.00    -0.228 N 
ATOM      4  C   UNL     1      -0.266   0.576   0.529  0.00  0.00    +0.097 C 
ATOM      5  C   UNL     1      -0.995   1.352  -0.591  0.00  0.00    +0.098 C 
ATOM      6  C   UNL     1      -1.124  -0.671   0.716  0.00  0.00    +0.235 C 
ATOM      7  C   UNL     1      -0.377   1.363   1.851  0.00  0.00    +0.014 C 
ATOM      8  C   UNL     1      -2.307   0.641  -0.773  0.00  0.00    +0.232 C 
ATOM      9  C   UNL     1      -3.365  -1.472  -0.032  0.00  0.00    +0.123 C 
ENDROOT
BRANCH   4  10
ATOM     10  C   UNL     1       1.159   0.214   0.112  0.00  0.00    -0.014 C 
ATOM     11  C   UNL     1       1.391  -0.941  -0.633  0.00  0.00    -0.004 C 
ATOM     12  C   UNL     1       2.220   1.038   0.477  0.00  0.00    -0.004 C 
ATOM     13  C   UNL     1       2.692  -1.272  -1.014  0.00  0.00    -0.000 C 
ATOM     14  C   UNL     1       3.521   0.708   0.097  0.00  0.00    -0.000 C 
ATOM     15  C   UNL     1       3.756  -0.448  -0.649  0.00  0.00    -0.000 C 
ENDBRANCH   4  10
TORSDOF 1
