REMARK  Name = 10409873
REMARK  6 active torsions:
REMARK  status: ('A' for Active; 'I' for Inactive)
REMARK    1  A    between atoms: C_4  and  C_19
REMARK    2  A    between atoms: C_5  and  N_22
REMARK    3  A    between atoms: C_6  and  C_11
REMARK    4  A    between atoms: C_7  and  O_28
REMARK    5  A    between atoms: N_22  and  S_24
REMARK    6  A    between atoms: O_28  and  C_29
REMARK                            x       y       z     vdW  Elec       q    Type
REMARK                         _______ _______ _______ _____ _____    ______ ____
ROOT
ATOM      1  O   UNL     1      -1.087  -1.275   0.437  0.00  0.00    -0.453 OA
ATOM      2  C   UNL     1       0.168   0.538  -0.057  0.00  0.00    +0.045 A 
ATOM      3  C   UNL     1       0.185  -0.795   0.342  0.00  0.00    +0.147 A 
ATOM      4  C   UNL     1      -1.202   0.877  -0.210  0.00  0.00    +0.091 A 
ATOM      5  C   UNL     1       2.555  -0.832   0.443  0.00  0.00    +0.101 C 
ATOM      6  C   UNL     1      -1.919  -0.255   0.100  0.00  0.00    +0.150 A 
ATOM      7  C   UNL     1       2.581   0.507   0.045  0.00  0.00    +0.153 C 
ATOM      8  C   UNL     1       1.394   1.208  -0.210  0.00  0.00    +0.041 C 
ATOM      9  C   UNL     1       1.348  -1.518   0.602  0.00  0.00    +0.056 C 
ENDROOT
BRANCH   6  11
ATOM     10  F   UNL     1      -7.346  -1.509   0.261  0.00  0.00    -0.204 F 
ATOM     11  C   UNL     1      -3.319  -0.578   0.141  0.00  0.00    +0.035 C 
ATOM     12  C   UNL     1      -3.958  -1.081  -0.995  0.00  0.00    +0.005 C 
ATOM     13  C   UNL     1      -4.049  -0.390   1.318  0.00  0.00    +0.005 C 
ATOM     14  C   UNL     1      -5.316  -1.395  -0.955  0.00  0.00    +0.030 C 
ATOM     15  C   UNL     1      -5.407  -0.705   1.359  0.00  0.00    +0.030 C 
ATOM     16  C   UNL     1      -6.041  -1.207   0.222  0.00  0.00    +0.140 C 
ENDBRANCH   6  11
BRANCH   4  19
ATOM     17  O   UNL     1      -2.861   2.225  -1.202  0.00  0.00    -0.270 OA
ATOM     18  N   UNL     1      -1.041   3.290  -0.271  0.00  0.00    -0.299 N 
ATOM     19  C   UNL     1      -1.766   2.135  -0.608  0.00  0.00    +0.249 C 
ATOM     20  C   UNL     1      -1.491   4.629  -0.576  0.00  0.00    +0.111 C 
ATOM     21  H   UNL     1      -0.182   3.182   0.197  0.00  0.00    +0.150 HD
ENDBRANCH   4  19
BRANCH   5  22
ATOM     22  N   UNL     1       3.779  -1.528   0.699  0.00  0.00    -0.216 N 
ATOM     23  H   UNL     1       4.327  -1.316   1.488  0.00  0.00    +0.173 HD
BRANCH  22  24
ATOM     24  S   UNL     1       4.264  -2.749  -0.413  0.00  0.00    +0.056 S 
ATOM     25  O   UNL     1       5.372  -3.483   0.170  0.00  0.00    -0.154 OA
ATOM     26  O   UNL     1       3.115  -3.451  -0.949  0.00  0.00    -0.154 OA
ATOM     27  C   UNL     1       4.942  -1.740  -1.712  0.00  0.00    +0.200 C 
ENDBRANCH  22  24
ENDBRANCH   5  22
BRANCH   7  28
ATOM     28  O   UNL     1       3.770   1.161  -0.106  0.00  0.00    -0.478 OA
BRANCH  28  29
ATOM     29  C   UNL     1       3.980   2.312   0.708  0.00  0.00    +0.166 C 
ATOM     30  C   UNL     1       4.163   3.530  -0.185  0.00  0.00    +0.047 C 
ATOM     31  C   UNL     1       5.187   2.079   1.603  0.00  0.00    +0.047 C 
ENDBRANCH  28  29
ENDBRANCH   7  28
TORSDOF 6
