REMARK  Name = 300471
REMARK  8 active torsions:
REMARK  status: ('A' for Active; 'I' for Inactive)
REMARK    1  A    between atoms: C_1  and  C_4
REMARK    2  A    between atoms: C_1  and  C_18
REMARK    3  A    between atoms: N_3  and  N_6
REMARK    4  A    between atoms: N_6  and  C_9
REMARK    5  A    between atoms: C_9  and  C_10
REMARK    6  A    between atoms: N_17  and  N_20
REMARK    7  A    between atoms: N_20  and  C_23
REMARK    8  A    between atoms: C_23  and  C_24
REMARK                            x       y       z     vdW  Elec       q    Type
REMARK                         _______ _______ _______ _____ _____    ______ ____
ROOT
ATOM      1  C   UNL     1      -0.010   0.056  -2.273  0.00  0.00    +0.173 C 
ENDROOT
BRANCH   1   4
ATOM      2  O   UNL     1      -0.410  -1.629  -0.613  0.00  0.00    -0.273 OA
ATOM      3  N   UNL     1      -2.232  -0.680  -1.703  0.00  0.00    -0.232 N 
ATOM      4  C   UNL     1      -0.885  -0.856  -1.443  0.00  0.00    +0.247 C 
ATOM      5  H   UNL     1      -2.523  -0.036  -2.388  0.00  0.00    +0.173 HD
BRANCH   3   6
ATOM      6  N   UNL     1      -3.174  -1.415  -0.992  0.00  0.00    -0.230 N 
ATOM      7  C   UNL     1      -3.463  -2.692  -1.636  0.00  0.00    +0.136 C 
BRANCH   6   9
ATOM      8  S   UNL     1      -4.822  -1.734   1.169  0.00  0.00    -0.033 S 
ATOM      9  C   UNL     1      -3.699  -0.922   0.202  0.00  0.00    +0.100 C 
BRANCH   9  10
ATOM     10  C   UNL     1      -3.227   0.419   0.630  0.00  0.00    +0.021 C 
ATOM     11  C   UNL     1      -3.911   1.563   0.220  0.00  0.00    +0.002 C 
ATOM     12  C   UNL     1      -2.099   0.534   1.442  0.00  0.00    +0.002 C 
ATOM     13  C   UNL     1      -3.468   2.823   0.622  0.00  0.00    +0.000 C 
ATOM     14  C   UNL     1      -1.655   1.794   1.844  0.00  0.00    +0.000 C 
ATOM     15  C   UNL     1      -2.340   2.938   1.434  0.00  0.00    +0.000 C 
ENDBRANCH   9  10
ENDBRANCH   6   9
ENDBRANCH   3   6
ENDBRANCH   1   4
BRANCH   1  18
ATOM     16  O   UNL     1       0.477   1.784  -0.664  0.00  0.00    -0.273 OA
ATOM     17  N   UNL     1       2.237   0.661  -1.680  0.00  0.00    -0.232 N 
ATOM     18  C   UNL     1       0.900   0.937  -1.447  0.00  0.00    +0.247 C 
ATOM     19  H   UNL     1       2.496  -0.036  -2.325  0.00  0.00    +0.173 HD
BRANCH  17  20
ATOM     20  N   UNL     1       3.209   1.377  -0.993  0.00  0.00    -0.230 N 
ATOM     21  C   UNL     1       3.498   2.659  -1.627  0.00  0.00    +0.136 C 
BRANCH  20  23
ATOM     22  S   UNL     1       4.713   1.747   1.276  0.00  0.00    -0.033 S 
ATOM     23  C   UNL     1       3.677   0.909   0.234  0.00  0.00    +0.100 C 
BRANCH  23  24
ATOM     24  C   UNL     1       3.215  -0.440   0.628  0.00  0.00    +0.021 C 
ATOM     25  C   UNL     1       3.955  -1.565   0.262  0.00  0.00    +0.002 C 
ATOM     26  C   UNL     1       2.041  -0.588   1.366  0.00  0.00    +0.002 C 
ATOM     27  C   UNL     1       3.520  -2.837   0.634  0.00  0.00    +0.000 C 
ATOM     28  C   UNL     1       1.606  -1.860   1.737  0.00  0.00    +0.000 C 
ATOM     29  C   UNL     1       2.346  -2.984   1.371  0.00  0.00    +0.000 C 
ENDBRANCH  23  24
ENDBRANCH  20  23
ENDBRANCH  17  20
ENDBRANCH   1  18
TORSDOF 8
