REMARK  Name = 6445562
REMARK  9 active torsions:
REMARK  status: ('A' for Active; 'I' for Inactive)
REMARK    1  A    between atoms: C_4  and  N_22
REMARK    2  A    between atoms: C_5  and  N_12
REMARK    3  A    between atoms: C_7  and  O_34
REMARK    4  A    between atoms: C_9  and  C_33
REMARK    5  A    between atoms: C_13  and  C_15
REMARK    6  A    between atoms: C_16  and  C_17
REMARK    7  A    between atoms: C_17  and  N_18
REMARK    8  A    between atoms: N_22  and  C_26
REMARK    9  A    between atoms: O_34  and  C_35
REMARK                            x       y       z     vdW  Elec       q    Type
REMARK                         _______ _______ _______ _____ _____    ______ ____
ROOT
ATOM      1  N   UNL     1       3.089   3.265  -0.449  0.00  0.00    -0.247 NA
ATOM      2  C   UNL     1       1.555   1.530   0.215  0.00  0.00    +0.012 C 
ATOM      3  C   UNL     1       1.831   2.802  -0.329  0.00  0.00    +0.064 C 
ATOM      4  C   UNL     1       2.636   0.744   0.636  0.00  0.00    +0.057 C 
ATOM      5  C   UNL     1      -0.826   1.879  -0.100  0.00  0.00    +0.063 C 
ATOM      6  C   UNL     1       0.229   1.078   0.326  0.00  0.00    +0.073 C 
ATOM      7  C   UNL     1      -0.562   3.133  -0.637  0.00  0.00    +0.131 C 
ATOM      8  C   UNL     1       0.756   3.582  -0.747  0.00  0.00    +0.110 C 
ATOM      9  C   UNL     1       3.934   1.219   0.513  0.00  0.00    +0.101 C 
ATOM     10  C   UNL     1       4.104   2.475  -0.031  0.00  0.00    +0.110 C 
ENDROOT
BRANCH   5  12
ATOM     11  O   UNL     1      -1.876  -0.719   0.979  0.00  0.00    -0.270 OA
ATOM     12  N   UNL     1      -2.138   1.412   0.018  0.00  0.00    -0.281 N 
ATOM     13  C   UNL     1      -2.573   0.184   0.532  0.00  0.00    +0.249 C 
ATOM     14  H   UNL     1      -2.843   2.022  -0.300  0.00  0.00    +0.155 HD
BRANCH  13  15
ATOM     15  C   UNL     1      -4.061   0.064   0.484  0.00  0.00    +0.051 C 
ATOM     16  C   UNL     1      -4.669  -1.044   0.932  0.00  0.00    -0.044 C 
BRANCH  16  17
ATOM     17  C   UNL     1      -6.157  -1.225   0.921  0.00  0.00    -0.050 C 
BRANCH  17  18
ATOM     18  N   UNL     1      -6.547  -2.412   0.166  0.00  0.00    +0.387 N 
ATOM     19  C   UNL     1      -7.997  -2.602   0.219  0.00  0.00    -0.100 C 
ATOM     20  C   UNL     1      -6.098  -2.308  -1.223  0.00  0.00    -0.100 C 
ATOM     21  H   UNL     1      -6.098  -3.223   0.592  0.00  0.00    -0.079 HD
ENDBRANCH  17  18
ENDBRANCH  16  17
ENDBRANCH  13  15
ENDBRANCH   5  12
BRANCH   4  22
ATOM     22  N   UNL     1       2.422  -0.544   1.192  0.00  0.00    -0.312 N 
ATOM     23  H   UNL     1       2.305  -0.541   2.169  0.00  0.00    +0.152 HD
BRANCH  22  26
ATOM     24 CL   UNL     1       2.591  -3.436  -3.040  0.00  0.00    -0.080 Cl
ATOM     25  F   UNL     1       2.111  -5.595  -1.066  0.00  0.00    -0.203 F 
ATOM     26  C   UNL     1       2.344  -1.821   0.616  0.00  0.00    +0.049 C 
ATOM     27  C   UNL     1       2.489  -1.982  -0.766  0.00  0.00    +0.028 C 
ATOM     28  C   UNL     1       2.120  -2.944   1.419  0.00  0.00    +0.017 C 
ATOM     29  C   UNL     1       2.411  -3.252  -1.338  0.00  0.00    +0.086 C 
ATOM     30  C   UNL     1       2.042  -4.213   0.848  0.00  0.00    +0.032 C 
ATOM     31  C   UNL     1       2.188  -4.368  -0.531  0.00  0.00    +0.151 C 
ENDBRANCH  22  26
ENDBRANCH   4  22
BRANCH   9  33
ATOM     32  N   UNL     1       6.002  -0.151   1.261  0.00  0.00    -0.191 NA
ATOM     33  C   UNL     1       5.075   0.463   0.926  0.00  0.00    +0.103 C 
ENDBRANCH   9  33
BRANCH   7  34
ATOM     34  O   UNL     1      -1.574   3.940  -1.064  0.00  0.00    -0.478 OA
BRANCH  34  35
ATOM     35  C   UNL     1      -1.698   5.212  -0.430  0.00  0.00    +0.205 C 
ATOM     36  C   UNL     1      -3.152   5.633  -0.451  0.00  0.00    +0.051 C 
ENDBRANCH  34  35
ENDBRANCH   7  34
TORSDOF 9
