11661758
  -OEChem-01051816153D

 46 48  0     1  0  0  0  0  0999 V2000
   -0.7339   -3.2965   -0.6883 S   0  0  0  0  0  0  0  0  0  0  0  0
   -6.0251    1.0801   -1.3828 O   0  0  0  0  0  0  0  0  0  0  0  0
    7.1736    2.4933   -0.6731 O   0  0  0  0  0  0  0  0  0  0  0  0
    6.6038    1.3612    1.2278 O   0  0  0  0  0  0  0  0  0  0  0  0
    3.3840   -0.0484   -1.2982 N   0  0  0  0  0  0  0  0  0  0  0  0
    4.1539   -0.2636    0.7757 N   0  0  0  0  0  0  0  0  0  0  0  0
   -4.9883    0.6554    0.6850 N   0  0  0  0  0  0  0  0  0  0  0  0
    5.3414    1.1785   -0.7467 N   0  0  0  0  0  0  0  0  0  0  0  0
   -6.1804    3.5239    0.5693 N   0  0  0  0  0  0  0  0  0  0  0  0
    2.5217   -0.9140   -0.6756 C   0  0  0  0  0  0  0  0  0  0  0  0
    3.0236   -1.0320    0.6174 C   0  0  0  0  0  0  0  0  0  0  0  0
    1.3806   -1.5833   -1.1189 C   0  0  0  0  0  0  0  0  0  0  0  0
    0.7331   -2.4062   -0.1914 C   0  0  0  0  0  0  0  0  0  0  0  0
    2.3603   -1.8629    1.5361 C   0  0  0  0  0  0  0  0  0  0  0  0
    4.3412    0.3118   -0.3909 C   0  0  0  0  0  0  0  0  0  0  0  0
    1.2126   -2.5448    1.1131 C   0  0  0  0  0  0  0  0  0  0  0  0
   -6.8435    2.2221    0.5742 C   0  0  2  0  0  0  0  0  0  0  0  0
   -2.0096   -2.1166   -0.2757 C   0  0  0  0  0  0  0  0  0  0  0  0
   -3.9955   -0.2712    0.3651 C   0  0  0  0  0  0  0  0  0  0  0  0
   -5.9237    1.2587   -0.1724 C   0  0  0  0  0  0  0  0  0  0  0  0
   -3.8443   -0.7037   -0.9523 C   0  0  0  0  0  0  0  0  0  0  0  0
   -3.1524   -0.7628    1.3617 C   0  0  0  0  0  0  0  0  0  0  0  0
   -2.8499   -1.6277   -1.2732 C   0  0  0  0  0  0  0  0  0  0  0  0
   -2.1581   -1.6869    1.0408 C   0  0  0  0  0  0  0  0  0  0  0  0
   -8.2068    2.3367   -0.0977 C   0  0  0  0  0  0  0  0  0  0  0  0
    6.3854    1.6418    0.0559 C   0  0  0  0  0  0  0  0  0  0  0  0
    8.2963    3.0570    0.0152 C   0  0  0  0  0  0  0  0  0  0  0  0
    1.0231   -1.4629   -2.1363 H   0  0  0  0  0  0  0  0  0  0  0  0
    3.3231    0.2672   -2.2569 H   0  0  0  0  0  0  0  0  0  0  0  0
    2.7261   -1.9785    2.5514 H   0  0  0  0  0  0  0  0  0  0  0  0
    0.7079   -3.1935    1.8261 H   0  0  0  0  0  0  0  0  0  0  0  0
   -6.9834    1.8847    1.6070 H   0  0  0  0  0  0  0  0  0  0  0  0
   -5.0281    0.9223    1.6663 H   0  0  0  0  0  0  0  0  0  0  0  0
   -4.4565   -0.3704   -1.7782 H   0  0  0  0  0  0  0  0  0  0  0  0
   -3.2613   -0.4370    2.3931 H   0  0  0  0  0  0  0  0  0  0  0  0
   -2.7447   -1.9536   -2.3052 H   0  0  0  0  0  0  0  0  0  0  0  0
   -1.5296   -2.0651    1.8415 H   0  0  0  0  0  0  0  0  0  0  0  0
   -8.6980    1.3582   -0.1365 H   0  0  0  0  0  0  0  0  0  0  0  0
   -8.8598    3.0212    0.4549 H   0  0  0  0  0  0  0  0  0  0  0  0
   -8.1277    2.7031   -1.1278 H   0  0  0  0  0  0  0  0  0  0  0  0
    5.3190    1.5217   -1.7037 H   0  0  0  0  0  0  0  0  0  0  0  0
   -5.2568    3.4457    0.9929 H   0  0  0  0  0  0  0  0  0  0  0  0
   -6.0376    3.8437   -0.3880 H   0  0  0  0  0  0  0  0  0  0  0  0
    7.9570    3.6548    0.8664 H   0  0  0  0  0  0  0  0  0  0  0  0
    8.8290    3.7092   -0.6818 H   0  0  0  0  0  0  0  0  0  0  0  0
    8.9754    2.2645    0.3437 H   0  0  0  0  0  0  0  0  0  0  0  0
  1 13  1  0  0  0  0
  1 18  1  0  0  0  0
  2 20  2  0  0  0  0
  3 26  1  0  0  0  0
  3 27  1  0  0  0  0
  4 26  2  0  0  0  0
  5 10  1  0  0  0  0
  5 15  1  0  0  0  0
  5 29  1  0  0  0  0
  6 11  1  0  0  0  0
  6 15  2  0  0  0  0
  7 19  1  0  0  0  0
  7 20  1  0  0  0  0
  7 33  1  0  0  0  0
  8 15  1  0  0  0  0
  8 26  1  0  0  0  0
  8 41  1  0  0  0  0
  9 17  1  0  0  0  0
  9 42  1  0  0  0  0
  9 43  1  0  0  0  0
 10 11  2  0  0  0  0
 10 12  1  0  0  0  0
 11 14  1  0  0  0  0
 12 13  2  0  0  0  0
 12 28  1  0  0  0  0
 13 16  1  0  0  0  0
 14 16  2  0  0  0  0
 14 30  1  0  0  0  0
 16 31  1  0  0  0  0
 17 20  1  0  0  0  0
 17 25  1  0  0  0  0
 17 32  1  0  0  0  0
 18 23  2  0  0  0  0
 18 24  1  0  0  0  0
 19 21  2  0  0  0  0
 19 22  1  0  0  0  0
 21 23  1  0  0  0  0
 21 34  1  0  0  0  0
 22 24  2  0  0  0  0
 22 35  1  0  0  0  0
 23 36  1  0  0  0  0
 24 37  1  0  0  0  0
 25 38  1  0  0  0  0
 25 39  1  0  0  0  0
 25 40  1  0  0  0  0
 27 44  1  0  0  0  0
 27 45  1  0  0  0  0
 27 46  1  0  0  0  0
M  END
> <DATABASE_ID>
DB05932

> <DATABASE_NAME>
drugbank

> <ORIGINAL_SOURCE>
PUBCHEM

> <ORIGINAL_SOURCE_URL>
https://pubchem.ncbi.nlm.nih.gov/rest/pug/compound/inchikey/GAOHLWCIAJNSEE-JTQLQIEISA-N/SDF?record_type=3d

> <SMILES>
[H][C@@](C)(N)C(=O)NC1=CC=C(SC2=CC3=C(C=C2)N=C(N3)N=C(O)OC)C=C1

> <INCHI_IDENTIFIER>
InChI=1S/C18H19N5O3S/c1-10(19)16(24)20-11-3-5-12(6-4-11)27-13-7-8-14-15(9-13)22-17(21-14)23-18(25)26-2/h3-10H,19H2,1-2H3,(H,20,24)(H2,21,22,23,25)/t10-/m0/s1

> <INCHI_KEY>
GAOHLWCIAJNSEE-JTQLQIEISA-N

> <FORMULA>
C18H19N5O3S

> <MOLECULAR_WEIGHT>
385.44

> <EXACT_MASS>
385.120860666

> <JCHEM_ACCEPTOR_COUNT>
6

> <JCHEM_ATOM_COUNT>
46

> <JCHEM_AVERAGE_POLARIZABILITY>
40.7260704987706

> <JCHEM_BIOAVAILABILITY>
1

> <JCHEM_DONOR_COUNT>
4

> <JCHEM_FORMAL_CHARGE>
0

> <JCHEM_GHOSE_FILTER>
1

> <JCHEM_IUPAC>
N-[6-({4-[(2S)-2-aminopropanamido]phenyl}sulfanyl)-1H-1,3-benzodiazol-2-yl]methoxycarboximidic acid

> <ALOGPS_LOGP>
2.45

> <JCHEM_LOGP>
1.2966780027255538

> <ALOGPS_LOGS>
-4.56

> <JCHEM_MDDR_LIKE_RULE>
1

> <JCHEM_NUMBER_OF_RINGS>
3

> <JCHEM_PHYSIOLOGICAL_CHARGE>
1

> <JCHEM_PKA>
7.741420232808615

> <JCHEM_PKA_STRONGEST_ACIDIC>
3.3288481841492072

> <JCHEM_PKA_STRONGEST_BASIC>
14.706570264649303

> <JCHEM_POLAR_SURFACE_AREA>
125.62

> <JCHEM_REFRACTIVITY>
107.35310000000001

> <JCHEM_ROTATABLE_BOND_COUNT>
6

> <JCHEM_RULE_OF_FIVE>
1

> <ALOGPS_SOLUBILITY>
1.05e-02 g/l

> <JCHEM_TRADITIONAL_IUPAC>
N-[5-({4-[(2S)-2-aminopropanamido]phenyl}sulfanyl)-3H-1,3-benzodiazol-2-yl]methoxycarboximidic acid

> <JCHEM_VEBER_RULE>
0

> <DRUGBANK_ID>
DB05932

> <DRUG_GROUPS>
investigational

> <GENERIC_NAME>
Denibulin

> <SALTS>
Denibulin hydrochloride

$$$$
