REMARK  Name = 11430856
REMARK  10 active torsions:
REMARK  status: ('A' for Active; 'I' for Inactive)
REMARK    1  A    between atoms: N_1  and  C_19
REMARK    2  A    between atoms: N_2  and  C_8
REMARK    3  A    between atoms: C_11  and  N_15
REMARK    4  A    between atoms: C_19  and  C_20
REMARK    5  A    between atoms: C_20  and  C_21
REMARK    6  A    between atoms: C_21  and  C_22
REMARK    7  A    between atoms: C_22  and  N_23
REMARK    8  A    between atoms: N_23  and  S_25
REMARK    9  A    between atoms: S_25  and  C_28
REMARK   10  A    between atoms: C_28  and  C_29
REMARK                            x       y       z     vdW  Elec       q    Type
REMARK                         _______ _______ _______ _____ _____    ______ ____
ROOT
ATOM      1  N   UNL     1       0.996   1.895  -0.259  0.00  0.00    +0.389 N 
ATOM      2  N   UNL     1       3.666   0.996   0.211  0.00  0.00    -0.312 N 
ATOM      3  C   UNL     1       2.091   2.862  -0.113  0.00  0.00    -0.055 C 
ATOM      4  C   UNL     1       1.491   0.673  -0.903  0.00  0.00    -0.055 C 
ATOM      5  C   UNL     1       3.221   2.287   0.744  0.00  0.00    +0.068 C 
ATOM      6  C   UNL     1       2.601   0.025  -0.072  0.00  0.00    +0.068 C 
ATOM      7  H   UNL     1       0.640   1.659   0.667  0.00  0.00    -0.080 HD
ENDROOT
BRANCH   2   8
ATOM      8  C   UNL     1       4.931   0.503   0.550  0.00  0.00    +0.049 C 
ATOM      9  C   UNL     1       5.624  -0.314  -0.343  0.00  0.00    +0.029 C 
ATOM     10  C   UNL     1       5.499   0.830   1.781  0.00  0.00    +0.015 C 
ATOM     11  C   UNL     1       6.885  -0.804  -0.005  0.00  0.00    +0.052 C 
ATOM     12  C   UNL     1       6.761   0.340   2.119  0.00  0.00    +0.003 C 
ATOM     13  C   UNL     1       7.454  -0.477   1.226  0.00  0.00    +0.015 C 
BRANCH  11  15
ATOM     14  O   UNL     1       9.588  -2.108   0.233  0.00  0.00    -0.275 OA
ATOM     15  N   UNL     1       7.578  -1.622  -0.898  0.00  0.00    -0.284 N 
ATOM     16  C   UNL     1       8.842  -2.204  -0.736  0.00  0.00    +0.227 C 
ATOM     17  C   UNL     1       9.239  -3.024  -1.938  0.00  0.00    +0.095 C 
ATOM     18  H   UNL     1       7.122  -1.814  -1.749  0.00  0.00    +0.155 HD
ENDBRANCH  11  15
ENDBRANCH   2   8
BRANCH   1  19
ATOM     19  C   UNL     1      -0.101   2.475  -1.034  0.00  0.00    -0.077 C 
BRANCH  19  20
ATOM     20  C   UNL     1      -1.423   1.746  -0.788  0.00  0.00    -0.021 C 
BRANCH  20  21
ATOM     21  C   UNL     1      -2.595   2.347  -1.576  0.00  0.00    +0.017 C 
BRANCH  21  22
ATOM     22  C   UNL     1      -3.894   1.574  -1.369  0.00  0.00    +0.091 C 
BRANCH  22  23
ATOM     23  N   UNL     1      -4.280   1.591   0.053  0.00  0.00    -0.183 NA
ATOM     24  H   UNL     1      -3.421   1.675   0.596  0.00  0.00    +0.148 HD
BRANCH  23  25
ATOM     25  S   UNL     1      -5.148   0.261   0.690  0.00  0.00    +0.041 S 
ATOM     26  O   UNL     1      -5.676   0.615   2.001  0.00  0.00    -0.158 OA
ATOM     27  O   UNL     1      -4.324  -0.930   0.536  0.00  0.00    -0.158 OA
BRANCH  25  28
ATOM     28  C   UNL     1      -6.487   0.151  -0.444  0.00  0.00    +0.169 C 
BRANCH  28  29
ATOM     29  C   UNL     1      -7.656  -0.625   0.160  0.00  0.00    +0.025 C 
ATOM     30  C   UNL     1      -8.962  -0.296  -0.575  0.00  0.00    +0.002 C 
ATOM     31  C   UNL     1      -7.377  -2.134   0.133  0.00  0.00    +0.002 C 
ATOM     32  C   UNL     1     -10.137  -1.100  -0.023  0.00  0.00    +0.000 C 
ATOM     33  C   UNL     1      -8.555  -2.934   0.684  0.00  0.00    +0.000 C 
ATOM     34  C   UNL     1      -9.853  -2.599  -0.044  0.00  0.00    +0.000 C 
ENDBRANCH  28  29
ENDBRANCH  25  28
ENDBRANCH  23  25
ENDBRANCH  22  23
ENDBRANCH  21  22
ENDBRANCH  20  21
ENDBRANCH  19  20
ENDBRANCH   1  19
TORSDOF 10
