REMARK  Name = 9842252
REMARK  1 active torsions:
REMARK  status: ('A' for Active; 'I' for Inactive)
REMARK    1  A    between atoms: C_15  and  C_24
REMARK                            x       y       z     vdW  Elec       q    Type
REMARK                         _______ _______ _______ _____ _____    ______ ____
ROOT
ATOM      1  N   UNL     1      -1.346  -0.381   0.134  0.00  0.00    -0.270 N 
ATOM      2  N   UNL     1       1.299   3.785   0.745  0.00  0.00    +0.384 N 
ATOM      3  N   UNL     1      -1.243   1.472  -1.065  0.00  0.00    -0.231 NA
ATOM      4  C   UNL     1       0.948   0.854   0.022  0.00  0.00    +0.063 C 
ATOM      5  C   UNL     1       1.105   1.425   1.469  0.00  0.00    -0.012 C 
ATOM      6  C   UNL     1       1.529   1.983  -0.921  0.00  0.00    -0.012 C 
ATOM      7  C   UNL     1       1.742  -0.479  -0.151  0.00  0.00    -0.020 C 
ATOM      8  C   UNL     1      -0.535   0.647  -0.307  0.00  0.00    +0.115 C 
ATOM      9  C   UNL     1       0.620   2.868   1.648  0.00  0.00    -0.081 C 
ATOM     10  C   UNL     1       1.052   3.413  -0.642  0.00  0.00    -0.081 C 
ATOM     11  C   UNL     1       1.452  -1.642   0.606  0.00  0.00    -0.024 C 
ATOM     12  C   UNL     1      -1.048  -1.593   0.866  0.00  0.00    +0.101 C 
ATOM     13  C   UNL     1       0.295  -1.731   1.564  0.00  0.00    +0.048 C 
ATOM     14  C   UNL     1       2.788  -0.590  -1.097  0.00  0.00    -0.004 C 
ATOM     15  C   UNL     1      -2.615  -0.149  -0.345  0.00  0.00    +0.126 C 
ATOM     16  C   UNL     1       2.230  -2.810   0.444  0.00  0.00    -0.005 C 
ATOM     17  C   UNL     1      -2.521   0.998  -1.084  0.00  0.00    +0.119 C 
ATOM     18  C   UNL     1       3.544  -1.757  -1.252  0.00  0.00    -0.000 C 
ATOM     19  C   UNL     1       3.272  -2.867  -0.473  0.00  0.00    -0.000 C 
ATOM     20  H   UNL     1       2.302   3.754   0.927  0.00  0.00    -0.085 HD
ATOM     21  H   UNL     1       0.943   4.728   0.902  0.00  0.00    -0.085 HD
ENDROOT
BRANCH  15  24
ATOM     22  O   UNL     1      -3.793  -1.993   0.583  0.00  0.00    -0.269 OA
ATOM     23  N   UNL     1      -4.995  -0.516  -0.651  0.00  0.00    -0.324 N 
ATOM     24  C   UNL     1      -3.781  -0.936  -0.092  0.00  0.00    +0.258 C 
ATOM     25  H   UNL     1      -5.816  -1.036  -0.495  0.00  0.00    +0.145 HD
ATOM     26  H   UNL     1      -5.027   0.301  -1.201  0.00  0.00    +0.145 HD
ENDBRANCH  15  24
TORSDOF 1
