REMARK  Name = 9963057
REMARK  12 active torsions:
REMARK  status: ('A' for Active; 'I' for Inactive)
REMARK    1  A    between atoms: N_1  and  C_4
REMARK    2  A    between atoms: N_1  and  C_21
REMARK    3  A    between atoms: C_12  and  O_14
REMARK    4  A    between atoms: O_14  and  C_15
REMARK    5  A    between atoms: C_15  and  C_18
REMARK    6  A    between atoms: C_21  and  C_22
REMARK    7  A    between atoms: C_22  and  C_23
REMARK    8  A    between atoms: C_22  and  O_35
REMARK    9  A    between atoms: C_26  and  C_31
REMARK   10  A    between atoms: C_28  and  O_29
REMARK   11  A    between atoms: C_31  and  C_32
REMARK   12  A    between atoms: C_32  and  O_33
REMARK                            x       y       z     vdW  Elec       q    Type
REMARK                         _______ _______ _______ _____ _____    ______ ____
ROOT
ATOM      1  N   UNL     1      -1.590  -2.238  -0.958  0.00  0.00    +0.387 N 
ATOM      2  H   UNL     1      -2.037  -3.154  -0.926  0.00  0.00    -0.084 HD
ATOM      3  H   UNL     1      -1.347  -1.995  -1.919  0.00  0.00    -0.084 HD
ENDROOT
BRANCH   1   4
ATOM      4  C   UNL     1      -0.365  -2.274  -0.160  0.00  0.00    -0.057 C 
ATOM      5  C   UNL     1       0.345  -3.616  -0.348  0.00  0.00    -0.016 C 
ATOM      6  C   UNL     1       0.570  -1.126  -0.562  0.00  0.00    +0.005 C 
ATOM      7  C   UNL     1       1.565  -3.705   0.569  0.00  0.00    +0.024 C 
ATOM      8  C   UNL     1       1.948  -1.246   0.042  0.00  0.00    -0.025 C 
ATOM      9  C   UNL     1       2.431  -2.471   0.537  0.00  0.00    -0.026 C 
ATOM     10  C   UNL     1       2.786  -0.120   0.055  0.00  0.00    +0.032 C 
ATOM     11  C   UNL     1       3.728  -2.537   1.067  0.00  0.00    -0.001 C 
ATOM     12  C   UNL     1       4.078  -0.201   0.575  0.00  0.00    +0.139 C 
ATOM     13  C   UNL     1       4.547  -1.409   1.083  0.00  0.00    +0.037 C 
BRANCH  12  14
ATOM     14  O   UNL     1       4.878   0.899   0.585  0.00  0.00    -0.466 OA
BRANCH  14  15
ATOM     15  C   UNL     1       6.284   0.681   0.485  0.00  0.00    +0.290 C 
BRANCH  15  18
ATOM     16  O   UNL     1       6.233   2.834  -0.503  0.00  0.00    -0.271 OA
ATOM     17  N   UNL     1       8.333   1.869  -0.277  0.00  0.00    -0.273 N 
ATOM     18  C   UNL     1       6.944   1.890  -0.145  0.00  0.00    +0.270 C 
ATOM     19  C   UNL     1       9.014   3.013  -0.869  0.00  0.00    +0.115 C 
ATOM     20  C   UNL     1       9.207   0.778   0.147  0.00  0.00    +0.115 C 
ENDBRANCH  15  18
ENDBRANCH  14  15
ENDBRANCH  12  14
ENDBRANCH   1   4
BRANCH   1  21
ATOM     21  C   UNL     1      -2.512  -1.238  -0.442  0.00  0.00    -0.047 C 
BRANCH  21  22
ATOM     22  C   UNL     1      -3.784  -1.177  -1.296  0.00  0.00    +0.112 C 
BRANCH  22  23
ATOM     23  C   UNL     1      -4.928  -0.536  -0.541  0.00  0.00    +0.002 C 
ATOM     24  C   UNL     1      -4.791   0.756  -0.034  0.00  0.00    -0.003 C 
ATOM     25  C   UNL     1      -6.119  -1.237  -0.352  0.00  0.00    +0.001 C 
ATOM     26  C   UNL     1      -5.846   1.347   0.662  0.00  0.00    +0.014 C 
ATOM     27  C   UNL     1      -7.173  -0.647   0.345  0.00  0.00    +0.036 C 
ATOM     28  C   UNL     1      -7.036   0.645   0.852  0.00  0.00    +0.130 C 
BRANCH  28  29
ATOM     29  O   UNL     1      -8.076   1.208   1.529  0.00  0.00    -0.506 OA
ATOM     30  H   UNL     1      -7.996   2.076   1.874  0.00  0.00    +0.292 HD
ENDBRANCH  28  29
BRANCH  26  31
ATOM     31  C   UNL     1      -5.683   2.731   1.198  0.00  0.00    +0.061 C 
BRANCH  31  32
ATOM     32  C   UNL     1      -6.121   3.810   0.204  0.00  0.00    +0.142 C 
BRANCH  32  33
ATOM     33  O   UNL     1      -5.318   3.733  -0.967  0.00  0.00    -0.382 OA
ATOM     34  H   UNL     1      -5.597   4.418  -1.596  0.00  0.00    +0.210 HD
ENDBRANCH  32  33
ENDBRANCH  31  32
ENDBRANCH  26  31
ENDBRANCH  22  23
BRANCH  22  35
ATOM     35  O   UNL     1      -3.550  -0.417  -2.481  0.00  0.00    -0.382 OA
ATOM     36  H   UNL     1      -2.818  -0.813  -2.979  0.00  0.00    +0.211 HD
ENDBRANCH  22  35
ENDBRANCH  21  22
ENDBRANCH   1  21
TORSDOF 12
