REMARK  Name = 11560787
REMARK  5 active torsions:
REMARK  status: ('A' for Active; 'I' for Inactive)
REMARK    1  A    between atoms: N_2  and  C_23
REMARK    2  A    between atoms: C_8  and  C_9
REMARK    3  A    between atoms: C_12  and  N_15
REMARK    4  A    between atoms: C_13  and  O_21
REMARK    5  A    between atoms: C_23  and  C_26
REMARK                            x       y       z     vdW  Elec       q    Type
REMARK                         _______ _______ _______ _____ _____    ______ ____
ROOT
ATOM      1  O   UNL     1      -2.294   1.182   2.209  0.00  0.00    -0.270 OA
ATOM      2  N   UNL     1      -3.167   1.014   0.067  0.00  0.00    -0.274 N 
ATOM      3  C   UNL     1      -3.011   0.626  -1.334  0.00  0.00    +0.094 C 
ATOM      4  C   UNL     1      -1.595   0.826  -1.838  0.00  0.00    +0.026 C 
ATOM      5  C   UNL     1      -0.638   0.074  -0.932  0.00  0.00    +0.033 C 
ATOM      6  C   UNL     1      -0.795   0.526   0.488  0.00  0.00    +0.031 C 
ATOM      7  C   UNL     1      -2.142   0.933   1.012  0.00  0.00    +0.245 C 
ATOM      8  C   UNL     1       0.255   0.611   1.320  0.00  0.00    +0.000 C 
ENDROOT
BRANCH   8   9
ATOM      9  C   UNL     1       1.643   0.258   0.986  0.00  0.00    +0.003 C 
ATOM     10  C   UNL     1       2.479   1.221   0.442  0.00  0.00    +0.038 C 
ATOM     11  C   UNL     1       2.093  -1.033   1.222  0.00  0.00    +0.001 C 
ATOM     12  C   UNL     1       4.261  -0.408   0.358  0.00  0.00    +0.084 C 
ATOM     13  C   UNL     1       3.796   0.886   0.126  0.00  0.00    +0.152 C 
ATOM     14  C   UNL     1       3.409  -1.368   0.906  0.00  0.00    +0.018 C 
BRANCH  12  15
ATOM     15  N   UNL     1       5.564  -0.758   0.049  0.00  0.00    -0.280 N 
ATOM     16  N   UNL     1       7.303  -2.013  -0.554  0.00  0.00    -0.255 NA
ATOM     17  C   UNL     1       6.656   0.070   0.063  0.00  0.00    +0.134 C 
ATOM     18  C   UNL     1       6.008  -1.999  -0.329  0.00  0.00    +0.220 C 
ATOM     19  C   UNL     1       7.713  -0.726  -0.312  0.00  0.00    +0.054 C 
ATOM     20  C   UNL     1       9.127  -0.350  -0.463  0.00  0.00    +0.049 C 
ENDBRANCH  12  15
BRANCH  13  21
ATOM     21  O   UNL     1       4.609   1.841  -0.408  0.00  0.00    -0.470 OA
ATOM     22  C   UNL     1       4.628   1.953  -1.829  0.00  0.00    +0.253 C 
ENDBRANCH  13  21
ENDBRANCH   8   9
BRANCH   2  23
ATOM     23  C   UNL     1      -4.521   1.347   0.491  0.00  0.00    +0.098 C 
ATOM     24  C   UNL     1      -4.939   2.679  -0.138  0.00  0.00    +0.026 C 
BRANCH  23  26
ATOM     25  F   UNL     1      -8.142  -2.771  -0.743  0.00  0.00    -0.204 F 
ATOM     26  C   UNL     1      -5.498   0.236   0.158  0.00  0.00    -0.004 C 
ATOM     27  C   UNL     1      -5.674  -0.797   1.060  0.00  0.00    -0.000 C 
ATOM     28  C   UNL     1      -6.188   0.284  -1.039  0.00  0.00    -0.000 C 
ATOM     29  C   UNL     1      -6.573  -1.819   0.754  0.00  0.00    +0.029 C 
ATOM     30  C   UNL     1      -7.087  -0.738  -1.345  0.00  0.00    +0.029 C 
ATOM     31  C   UNL     1      -7.279  -1.789  -0.449  0.00  0.00    +0.140 C 
ENDBRANCH  23  26
ENDBRANCH   2  23
TORSDOF 5
