REMARK  Name = 16750192
REMARK  5 active torsions:
REMARK  status: ('A' for Active; 'I' for Inactive)
REMARK    1  A    between atoms: C_3  and  N_13
REMARK    2  A    between atoms: C_9  and  C_29
REMARK    3  A    between atoms: C_14  and  C_19
REMARK    4  A    between atoms: C_19  and  C_23
REMARK    5  A    between atoms: C_19  and  O_24
REMARK                            x       y       z     vdW  Elec       q    Type
REMARK                         _______ _______ _______ _____ _____    ______ ____
ROOT
ATOM      1  O   UNL     1      -5.498   2.543   0.040  0.00  0.00    -0.270 OA
ATOM      2  N   UNL     1      -3.235   2.408  -0.346  0.00  0.00    -0.280 N 
ATOM      3  C   UNL     1       0.297   0.173  -0.545  0.00  0.00    +0.048 C 
ATOM      4  C   UNL     1      -0.902  -0.457  -0.200  0.00  0.00    +0.016 C 
ATOM      5  C   UNL     1       0.319   1.538  -0.821  0.00  0.00    +0.016 C 
ATOM      6  C   UNL     1      -2.099   0.270  -0.127  0.00  0.00    +0.019 C 
ATOM      7  C   UNL     1      -2.058   1.644  -0.409  0.00  0.00    +0.051 C 
ATOM      8  C   UNL     1      -0.859   2.277  -0.754  0.00  0.00    +0.016 C 
ATOM      9  C   UNL     1      -3.396  -0.343   0.232  0.00  0.00    +0.077 C 
ATOM     10  C   UNL     1      -4.497   0.425   0.280  0.00  0.00    +0.062 C 
ATOM     11  C   UNL     1      -4.464   1.881  -0.016  0.00  0.00    +0.250 C 
ATOM     12  H   UNL     1      -3.179   3.370  -0.548  0.00  0.00    +0.155 HD
ENDROOT
BRANCH   3  13
ATOM     13  N   UNL     1       1.469  -0.564  -0.612  0.00  0.00    -0.308 N 
ATOM     14  C   UNL     1       2.821   0.024  -0.665  0.00  0.00    +0.108 C 
ATOM     15  C   UNL     1       1.492  -1.989  -0.972  0.00  0.00    +0.073 C 
ATOM     16  C   UNL     1       3.736  -1.153  -1.049  0.00  0.00    +0.024 C 
ATOM     17  C   UNL     1       2.803  -2.120  -1.757  0.00  0.00    +0.022 C 
ATOM     18  C   UNL     1       1.484  -2.866   0.279  0.00  0.00    +0.021 C 
BRANCH  14  19
ATOM     19  C   UNL     1       3.251   0.606   0.679  0.00  0.00    +0.224 C 
BRANCH  19  23
ATOM     20  F   UNL     1       5.064   1.544   1.870  0.00  0.00    -0.167 F 
ATOM     21  F   UNL     1       5.525   0.063   0.341  0.00  0.00    -0.167 F 
ATOM     22  F   UNL     1       4.878   2.065  -0.242  0.00  0.00    -0.167 F 
ATOM     23  C   UNL     1       4.690   1.077   0.658  0.00  0.00    +0.423 C 
ENDBRANCH  19  23
BRANCH  19  24
ATOM     24  O   UNL     1       3.123  -0.393   1.687  0.00  0.00    -0.376 OA
ATOM     25  H   UNL     1       2.206  -0.708   1.715  0.00  0.00    +0.211 HD
ENDBRANCH  19  24
ENDBRANCH  14  19
ENDBRANCH   3  13
BRANCH   9  29
ATOM     26  F   UNL     1      -2.254  -2.383   0.430  0.00  0.00    -0.166 F 
ATOM     27  F   UNL     1      -3.917  -2.018   1.792  0.00  0.00    -0.166 F 
ATOM     28  F   UNL     1      -4.303  -2.441  -0.312  0.00  0.00    -0.166 F 
ATOM     29  C   UNL     1      -3.469  -1.811   0.538  0.00  0.00    +0.419 C 
ENDBRANCH   9  29
TORSDOF 5
