REMARK  Name = 6992140
REMARK  11 active torsions:
REMARK  status: ('A' for Active; 'I' for Inactive)
REMARK    1  A    between atoms: CA_1  and  N_3
REMARK    2  A    between atoms: CA_1  and  C_18
REMARK    3  A    between atoms: CA_1  and  CB_21
REMARK    4  A    between atoms: C_4  and  C_6
REMARK    5  A    between atoms: C_6  and  C_7
REMARK    6  A    between atoms: C_7  and  CA_8
REMARK    7  A    between atoms: CA_8  and  N_9
REMARK    8  A    between atoms: CA_8  and  C_14
REMARK    9  A    between atoms: C_14  and  O_15
REMARK   10  A    between atoms: C_18  and  O_19
REMARK   11  A    between atoms: CB_21  and  CG_23
REMARK                            x       y       z     vdW  Elec       q    Type
REMARK                         _______ _______ _______ _____ _____    ______ ____
ROOT
ATOM      1  CA  UNL     1       1.368   2.185   0.448  0.00  0.00    +0.176 C 
ENDROOT
BRANCH   1   3
ATOM      2  O   UNL     1      -1.322   1.952   1.466  0.00  0.00    -0.275 OA
ATOM      3  N   UNL     1       0.268   1.471  -0.157  0.00  0.00    -0.297 N 
ATOM      4  C   UNL     1      -0.997   1.416   0.411  0.00  0.00    +0.223 C 
ATOM      5  H   UNL     1       0.422   1.003  -1.010  0.00  0.00    +0.150 HD
BRANCH   4   6
ATOM      6  C   UNL     1      -1.953   0.590  -0.433  0.00  0.00    +0.083 C 
BRANCH   6   7
ATOM      7  C   UNL     1      -3.354   0.516   0.176  0.00  0.00    -0.001 C 
BRANCH   7   8
ATOM      8  CA  UNL     1      -4.346  -0.253  -0.704  0.00  0.00    +0.036 C 
BRANCH   8   9
ATOM      9  N   UNL     1      -3.927  -1.653  -0.804  0.00  0.00    +0.389 N 
ATOM     10  H1  UNL     1      -2.993  -1.701  -1.210  0.00  0.00    -0.088 HD
ATOM     11  H2  UNL     1      -4.582  -2.163  -1.397  0.00  0.00    -0.088 HD
ATOM     12  H3  UNL     1      -3.915  -2.071   0.127  0.00  0.00    -0.088 HD
ENDBRANCH   8   9
BRANCH   8  14
ATOM     13  OXT UNL     1      -6.334  -1.255   0.288  0.00  0.00    -0.253 OA
ATOM     14  C   UNL     1      -5.736  -0.257  -0.095  0.00  0.00    +0.293 C 
BRANCH  14  15
ATOM     15  O   UNL     1      -6.277   0.988  -0.039  0.00  0.00    -0.482 OA
ATOM     16  H   UNL     1      -5.786   1.727  -0.342  0.00  0.00    +0.295 HD
ENDBRANCH  14  15
ENDBRANCH   8  14
ENDBRANCH   7   8
ENDBRANCH   6   7
ENDBRANCH   4   6
ENDBRANCH   1   3
BRANCH   1  18
ATOM     17  OXT UNL     1       3.224   3.518  -0.344  0.00  0.00    -0.248 OA
ATOM     18  C   UNL     1       2.272   2.794  -0.614  0.00  0.00    +0.332 C 
BRANCH  18  19
ATOM     19  O   UNL     1       1.942   2.482  -1.890  0.00  0.00    -0.479 OA
ATOM     20  H   UNL     1       1.207   1.926  -2.061  0.00  0.00    +0.295 HD
ENDBRANCH  18  19
ENDBRANCH   1  18
BRANCH   1  21
ATOM     21  CB  UNL     1       2.185   1.274   1.375  0.00  0.00    +0.059 C 
BRANCH  21  23
ATOM     22  NE1 UNL     1       4.269  -1.102  -0.452  0.00  0.00    -0.312 N 
ATOM     23  CG  UNL     1       2.820   0.116   0.660  0.00  0.00    -0.004 C 
ATOM     24  CD2 UNL     1       2.237  -1.151   0.467  0.00  0.00    +0.011 C 
ATOM     25  CE2 UNL     1       3.173  -1.908  -0.241  0.00  0.00    +0.048 C 
ATOM     26  CD1 UNL     1       4.059   0.135   0.096  0.00  0.00    +0.058 C 
ATOM     27  CE3 UNL     1       1.009  -1.746   0.817  0.00  0.00    +0.001 C 
ATOM     28  CZ2 UNL     1       2.942  -3.235  -0.618  0.00  0.00    +0.015 C 
ATOM     29  CZ3 UNL     1       0.763  -3.073   0.446  0.00  0.00    +0.000 C 
ATOM     30  CH2 UNL     1       1.716  -3.804  -0.260  0.00  0.00    +0.001 C 
ATOM     31  HE1 UNL     1       5.086  -1.375  -0.928  0.00  0.00    +0.152 HD
ENDBRANCH  21  23
ENDBRANCH   1  21
TORSDOF 11
