REMARK  Name = 148189
REMARK  3 active torsions:
REMARK  status: ('A' for Active; 'I' for Inactive)
REMARK    1  A    between atoms: C_5  and  O_16
REMARK    2  A    between atoms: C_12  and  C_18
REMARK    3  A    between atoms: C_18  and  O_19
REMARK                            x       y       z     vdW  Elec       q    Type
REMARK                         _______ _______ _______ _____ _____    ______ ____
ROOT
ATOM      1  O   UNL     1      -1.486  -2.734  -0.114  0.00  0.00    -0.293 OA
ATOM      2  C   UNL     1      -1.715   0.879  -0.191  0.00  0.00    +0.032 C 
ATOM      3  C   UNL     1      -2.776   1.954  -0.357  0.00  0.00    +0.003 C 
ATOM      4  C   UNL     1      -2.300   1.208  -1.564  0.00  0.00    +0.003 C 
ATOM      5  C   UNL     1      -2.116  -0.457   0.460  0.00  0.00    +0.140 C 
ATOM      6  C   UNL     1      -0.243   1.237  -0.056  0.00  0.00    +0.021 C 
ATOM      7  C   UNL     1       0.685   0.254  -0.121  0.00  0.00    -0.036 C 
ATOM      8  C   UNL     1      -1.148  -1.563   0.035  0.00  0.00    +0.182 C 
ATOM      9  C   UNL     1      -2.134  -0.341   1.987  0.00  0.00    +0.037 C 
ATOM     10  C   UNL     1       0.256  -1.140  -0.146  0.00  0.00    +0.100 C 
ATOM     11  C   UNL     1       0.083   2.693   0.156  0.00  0.00    +0.004 C 
ATOM     12  C   UNL     1       2.150   0.242  -0.174  0.00  0.00    -0.004 C 
ATOM     13  C   UNL     1       1.343  -1.913  -0.225  0.00  0.00    -0.019 C 
ATOM     14  C   UNL     1       2.521  -1.058  -0.252  0.00  0.00    -0.028 C 
ATOM     15  C   UNL     1       3.875  -1.668  -0.346  0.00  0.00    +0.030 C 
ENDROOT
BRANCH   5  16
ATOM     16  O   UNL     1      -3.415  -0.866   0.035  0.00  0.00    -0.380 OA
ATOM     17  H   UNL     1      -3.430  -0.946  -0.931  0.00  0.00    +0.211 HD
ENDBRANCH   5  16
BRANCH  12  18
ATOM     18  C   UNL     1       3.037   1.434  -0.221  0.00  0.00    +0.163 C 
BRANCH  18  19
ATOM     19  O   UNL     1       3.385   1.839   1.095  0.00  0.00    -0.377 OA
ATOM     20  H   UNL     1       3.963   2.617   1.051  0.00  0.00    +0.211 HD
ENDBRANCH  18  19
ENDBRANCH  12  18
TORSDOF 3
