REMARK  Name = 3323368
REMARK  1 active torsions:
REMARK  status: ('A' for Active; 'I' for Inactive)
REMARK    1  A    between atoms: C_4  and  C_17
REMARK                            x       y       z     vdW  Elec       q    Type
REMARK                         _______ _______ _______ _____ _____    ______ ____
ROOT
ATOM      1  O   UNL     1       4.476   0.541   0.790  0.00  0.00    -0.242 OA
ATOM      2  N   UNL     1       3.457  -0.066   1.504  0.00  0.00    -0.048 NA
ATOM      3  N   UNL     1       4.098   0.820  -0.512  0.00  0.00    -0.048 NA
ATOM      4  C   UNL     1       0.305  -0.664  -0.260  0.00  0.00    +0.055 C 
ATOM      5  C   UNL     1       1.147  -0.714   0.865  0.00  0.00    +0.029 C 
ATOM      6  C   UNL     1       0.700  -0.116  -1.507  0.00  0.00    +0.006 C 
ATOM      7  C   UNL     1       2.428  -0.173   0.654  0.00  0.00    +0.143 A 
ATOM      8  C   UNL     1       2.835   0.390  -0.627  0.00  0.00    +0.143 A 
ATOM      9  C   UNL     1       1.975   0.430  -1.740  0.00  0.00    +0.024 C 
ENDROOT
BRANCH   4  17
ATOM     10  O   UNL     1      -4.303   1.375   0.268  0.00  0.00    -0.350 OA
ATOM     11  O   UNL     1      -1.190  -2.401  -0.402  0.00  0.00    -0.270 OA
ATOM     12  N   UNL     1      -2.073  -0.346   0.275  0.00  0.00    -0.271 N 
ATOM     13  C   UNL     1      -1.915   1.078   0.594  0.00  0.00    +0.126 C 
ATOM     14  C   UNL     1      -3.421  -0.868   0.491  0.00  0.00    +0.126 C 
ATOM     15  C   UNL     1      -3.015   1.893  -0.076  0.00  0.00    +0.164 C 
ATOM     16  C   UNL     1      -4.451   0.027  -0.184  0.00  0.00    +0.164 C 
ATOM     17  C   UNL     1      -1.054  -1.208  -0.136  0.00  0.00    +0.249 C 
ENDBRANCH   4  17
TORSDOF 1
