REMARK  Name = 60748
REMARK  7 active torsions:
REMARK  status: ('A' for Active; 'I' for Inactive)
REMARK    1  A    between atoms: O_1  and  C_3
REMARK    2  A    between atoms: O_1  and  C_8
REMARK    3  A    between atoms: C_3  and  C_4
REMARK    4  A    between atoms: C_8  and  O_9
REMARK    5  A    between atoms: O_9  and  C_11
REMARK    6  A    between atoms: C_11  and  C_12
REMARK    7  A    between atoms: C_12  and  C_13
REMARK                            x       y       z     vdW  Elec       q    Type
REMARK                         _______ _______ _______ _____ _____    ______ ____
ROOT
ATOM      1  O   UNL     1      -0.804  -1.320  -0.192  0.00  0.00    -0.408 OA
ENDROOT
BRANCH   1   3
ATOM      2  O   UNL     1      -0.874   0.066   1.644  0.00  0.00    -0.250 OA
ATOM      3  C   UNL     1      -1.279  -0.266   0.536  0.00  0.00    +0.319 C 
BRANCH   3   4
ATOM      4  C   UNL     1      -2.400   0.448  -0.225  0.00  0.00    +0.090 C 
ATOM      5  C   UNL     1      -3.550  -0.539  -0.486  0.00  0.00    +0.011 C 
ATOM      6  C   UNL     1      -2.934   1.620   0.611  0.00  0.00    +0.011 C 
ATOM      7  C   UNL     1      -1.856   0.952  -1.568  0.00  0.00    +0.011 C 
ENDBRANCH   3   4
ENDBRANCH   1   3
BRANCH   1   8
ATOM      8  C   UNL     1       0.254  -2.087   0.406  0.00  0.00    +0.433 C 
BRANCH   8   9
ATOM      9  O   UNL     1       1.419  -1.309   0.728  0.00  0.00    -0.408 OA
BRANCH   9  11
ATOM     10  O   UNL     1       1.713  -0.760  -1.495  0.00  0.00    -0.250 OA
ATOM     11  C   UNL     1       2.047  -0.703  -0.319  0.00  0.00    +0.320 C 
BRANCH  11  12
ATOM     12  C   UNL     1       3.229   0.092   0.180  0.00  0.00    +0.110 C 
BRANCH  12  13
ATOM     13  C   UNL     1       3.126   1.562  -0.214  0.00  0.00    +0.012 C 
ATOM     14  C   UNL     1       1.909   2.245   0.392  0.00  0.00    +0.001 C 
ENDBRANCH  12  13
ENDBRANCH  11  12
ENDBRANCH   9  11
ENDBRANCH   8   9
ENDBRANCH   1   8
TORSDOF 7
