REMARK  Name = 5327686
REMARK  3 active torsions:
REMARK  status: ('A' for Active; 'I' for Inactive)
REMARK    1  A    between atoms: C_4  and  C_10
REMARK    2  A    between atoms: C_5  and  C_23
REMARK    3  A    between atoms: C_17  and  N_21
REMARK                            x       y       z     vdW  Elec       q    Type
REMARK                         _______ _______ _______ _____ _____    ______ ____
ROOT
ATOM      1  O   UNL     1       0.093  -4.022   1.146  0.00  0.00    -0.270 OA
ATOM      2  O   UNL     1      -3.975  -1.937   1.395  0.00  0.00    -0.270 OA
ATOM      3  N   UNL     1      -2.079  -3.274   1.493  0.00  0.00    -0.248 N 
ATOM      4  C   UNL     1      -0.716  -1.942   0.238  0.00  0.00    +0.059 C 
ATOM      5  C   UNL     1      -1.915  -1.335   0.302  0.00  0.00    +0.059 C 
ATOM      6  C   UNL     1      -0.807  -3.210   1.006  0.00  0.00    +0.252 C 
ATOM      7  C   UNL     1      -2.814  -2.189   1.119  0.00  0.00    +0.252 C 
ATOM      8  H   UNL     1      -2.424  -4.013   2.045  0.00  0.00    +0.158 HD
ENDROOT
BRANCH   4  10
ATOM      9  N   UNL     1       2.001  -1.306  -2.039  0.00  0.00    -0.284 N 
ATOM     10  C   UNL     1       0.476  -1.534  -0.438  0.00  0.00    +0.021 C 
ATOM     11  C   UNL     1       1.537  -0.727   0.065  0.00  0.00    +0.015 C 
ATOM     12  C   UNL     1       2.479  -0.599  -0.959  0.00  0.00    +0.053 C 
ATOM     13  C   UNL     1       0.793  -1.874  -1.735  0.00  0.00    +0.066 C 
ATOM     14  C   UNL     1       1.785  -0.090   1.297  0.00  0.00    +0.003 C 
ATOM     15  C   UNL     1       3.660   0.136  -0.811  0.00  0.00    +0.039 C 
ATOM     16  C   UNL     1       2.666  -1.439  -3.318  0.00  0.00    +0.117 C 
ATOM     17  C   UNL     1       3.885   0.758   0.420  0.00  0.00    +0.144 C 
ATOM     18  C   UNL     1       2.963   0.649   1.459  0.00  0.00    +0.024 C 
BRANCH  17  21
ATOM     19  O   UNL     1       5.266   2.067   1.722  0.00  0.00    -0.126 OA
ATOM     20  O   UNL     1       5.895   1.604  -0.329  0.00  0.00    -0.126 OA
ATOM     21  N   UNL     1       5.073   1.513   0.614  0.00  0.00    +0.058 N 
ENDBRANCH  17  21
ENDBRANCH   4  10
BRANCH   5  23
ATOM     22  N   UNL     1      -3.161   1.381  -1.703  0.00  0.00    -0.284 N 
ATOM     23  C   UNL     1      -2.335  -0.088  -0.259  0.00  0.00    +0.021 C 
ATOM     24  C   UNL     1      -2.274   1.202   0.336  0.00  0.00    +0.015 C 
ATOM     25  C   UNL     1      -2.799   2.106  -0.591  0.00  0.00    +0.052 C 
ATOM     26  C   UNL     1      -2.884   0.054  -1.513  0.00  0.00    +0.066 C 
ATOM     27  C   UNL     1      -1.823   1.690   1.579  0.00  0.00    +0.001 C 
ATOM     28  C   UNL     1      -2.894   3.479  -0.336  0.00  0.00    +0.015 C 
ATOM     29  C   UNL     1      -3.745   1.927  -2.909  0.00  0.00    +0.117 C 
ATOM     30  C   UNL     1      -1.912   3.061   1.847  0.00  0.00    +0.000 C 
ATOM     31  C   UNL     1      -2.440   3.940   0.903  0.00  0.00    +0.001 C 
ENDBRANCH   5  23
TORSDOF 3
