REMARK  Name = 11219835
REMARK  4 active torsions:
REMARK  status: ('A' for Active; 'I' for Inactive)
REMARK    1  A    between atoms: C_4  and  C_13
REMARK    2  A    between atoms: C_5  and  C_7
REMARK    3  A    between atoms: C_15  and  C_20
REMARK    4  A    between atoms: C_20  and  O_21
REMARK                            x       y       z     vdW  Elec       q    Type
REMARK                         _______ _______ _______ _____ _____    ______ ____
ROOT
ATOM      1  O   UNL     1      -1.668  -2.009   0.001  0.00  0.00    -0.311 OA
ATOM      2  N   UNL     1      -0.550  -0.068  -0.002  0.00  0.00    -0.308 NA
ATOM      3  N   UNL     1      -0.307  -2.342   0.001  0.00  0.00    -0.007 NA
ATOM      4  C   UNL     1       0.285  -1.145  -0.001  0.00  0.00    +0.127 C 
ATOM      5  C   UNL     1      -1.722  -0.651  -0.001  0.00  0.00    +0.319 C 
ENDROOT
BRANCH   5   7
ATOM      6  F   UNL     1      -2.151   2.123   0.000  0.00  0.00    -0.204 F 
ATOM      7  C   UNL     1      -3.039  -0.083  -0.001  0.00  0.00    +0.097 C 
ATOM      8  C   UNL     1      -3.213   1.306  -0.001  0.00  0.00    +0.146 C 
ATOM      9  C   UNL     1      -4.163  -0.916   0.000  0.00  0.00    +0.008 C 
ATOM     10  C   UNL     1      -4.496   1.854   0.001  0.00  0.00    +0.030 C 
ATOM     11  C   UNL     1      -5.446  -0.368   0.001  0.00  0.00    +0.000 C 
ATOM     12  C   UNL     1      -5.612   1.017   0.002  0.00  0.00    +0.002 C 
ENDBRANCH   5   7
BRANCH   4  13
ATOM     13  C   UNL     1       1.713  -0.991  -0.001  0.00  0.00    +0.077 C 
ATOM     14  C   UNL     1       2.276   0.285  -0.001  0.00  0.00    +0.018 C 
ATOM     15  C   UNL     1       3.663   0.435   0.000  0.00  0.00    +0.076 C 
ATOM     16  C   UNL     1       2.536  -2.117   0.000  0.00  0.00    +0.011 C 
ATOM     17  C   UNL     1       4.487  -0.691   0.001  0.00  0.00    +0.006 C 
ATOM     18  C   UNL     1       3.923  -1.967   0.001  0.00  0.00    +0.001 C 
BRANCH  15  20
ATOM     19  O   UNL     1       3.620   2.828  -0.001  0.00  0.00    -0.245 OA
ATOM     20  C   UNL     1       4.251   1.766   0.000  0.00  0.00    +0.338 C 
BRANCH  20  21
ATOM     21  O   UNL     1       5.612   1.733   0.002  0.00  0.00    -0.477 OA
ATOM     22  H   UNL     1       6.061   0.910   0.003  0.00  0.00    +0.295 HD
ENDBRANCH  20  21
ENDBRANCH  15  20
ENDBRANCH   4  13
TORSDOF 4
