REMARK  Name = 219104
REMARK  4 active torsions:
REMARK  status: ('A' for Active; 'I' for Inactive)
REMARK    1  A    between atoms: C_3  and  S_8
REMARK    2  A    between atoms: S_8  and  S_9
REMARK    3  A    between atoms: S_9  and  C_10
REMARK    4  A    between atoms: C_10  and  C_12
REMARK                            x       y       z     vdW  Elec       q    Type
REMARK                         _______ _______ _______ _____ _____    ______ ____
ROOT
ATOM      1  N   UNL     1      -2.478  -0.771   0.623  0.00  0.00    -0.308 N 
ATOM      2  N   UNL     1      -1.625   0.810  -0.682  0.00  0.00    -0.308 N 
ATOM      3  C   UNL     1      -1.551  -0.411  -0.282  0.00  0.00    +0.205 C 
ATOM      4  C   UNL     1      -3.241   0.343   0.836  0.00  0.00    +0.076 C 
ATOM      5  C   UNL     1      -2.695   1.305   0.020  0.00  0.00    +0.076 C 
ATOM      6  H   UNL     1      -2.586  -1.654   1.045  0.00  0.00    +0.149 HD
ATOM      7  H   UNL     1      -1.052   1.276  -1.334  0.00  0.00    +0.149 HD
ENDROOT
BRANCH   3   8
ATOM      8  S   UNL     1      -0.366  -1.609  -0.817  0.00  0.00    -0.042 S 
BRANCH   8   9
ATOM      9  S   UNL     1       1.207  -0.351  -1.226  0.00  0.00    -0.080 S 
BRANCH   9  10
ATOM     10  C   UNL     1       2.064  -0.308   0.388  0.00  0.00    +0.058 C 
ATOM     11  C   UNL     1       2.493  -1.728   0.752  0.00  0.00    +0.013 C 
BRANCH  10  12
ATOM     12  C   UNL     1       3.272   0.640   0.369  0.00  0.00    +0.012 C 
ATOM     13  C   UNL     1       2.921   2.081   0.020  0.00  0.00    +0.001 C 
ENDBRANCH  10  12
ENDBRANCH   9  10
ENDBRANCH   8   9
ENDBRANCH   3   8
TORSDOF 4
