REMARK  Name = 11256587
REMARK  8 active torsions:
REMARK  status: ('A' for Active; 'I' for Inactive)
REMARK    1  A    between atoms: N_1  and  C_4
REMARK    2  A    between atoms: N_1  and  C_13
REMARK    3  A    between atoms: N_1  and  C_21
REMARK    4  A    between atoms: C_13  and  C_14
REMARK    5  A    between atoms: C_14  and  C_15
REMARK    6  A    between atoms: C_15  and  C_16
REMARK    7  A    between atoms: C_16  and  N_17
REMARK    8  A    between atoms: C_21  and  C_24
REMARK                            x       y       z     vdW  Elec       q    Type
REMARK                         _______ _______ _______ _____ _____    ______ ____
ROOT
ATOM      1  N   UNL     1       0.589  -0.356   0.159  0.00  0.00    +0.394 N 
ATOM      2  H   UNL     1       0.438  -0.214   1.157  0.00  0.00    -0.079 HD
ENDROOT
BRANCH   1   4
ATOM      3  N   UNL     1       2.352   1.374   1.536  0.00  0.00    -0.250 NA
ATOM      4  C   UNL     1       2.031  -0.423  -0.094  0.00  0.00    -0.016 C 
ATOM      5  C   UNL     1       2.269  -0.753  -1.576  0.00  0.00    -0.015 C 
ATOM      6  C   UNL     1       3.754  -0.663  -1.907  0.00  0.00    +0.003 C 
ATOM      7  C   UNL     1       2.749   0.836   0.352  0.00  0.00    +0.036 C 
ATOM      8  C   UNL     1       4.255   0.763  -1.699  0.00  0.00    +0.027 C 
ATOM      9  C   UNL     1       3.817   1.356  -0.388  0.00  0.00    -0.011 C 
ATOM     10  C   UNL     1       4.456   2.500   0.101  0.00  0.00    -0.002 C 
ATOM     11  C   UNL     1       4.050   3.071   1.300  0.00  0.00    +0.020 C 
ATOM     12  C   UNL     1       3.003   2.473   1.975  0.00  0.00    +0.098 C 
ENDBRANCH   1   4
BRANCH   1  13
ATOM     13  C   UNL     1      -0.053  -1.610  -0.231  0.00  0.00    -0.077 C 
BRANCH  13  14
ATOM     14  C   UNL     1       0.547  -2.779   0.551  0.00  0.00    -0.025 C 
BRANCH  14  15
ATOM     15  C   UNL     1      -0.109  -4.104   0.149  0.00  0.00    -0.026 C 
BRANCH  15  16
ATOM     16  C   UNL     1       0.469  -5.319   0.879  0.00  0.00    -0.086 C 
BRANCH  16  17
ATOM     17  N   UNL     1      -0.174  -6.564   0.478  0.00  0.00    +0.380 N 
ATOM     18  H   UNL     1       0.243  -7.342   0.990  0.00  0.00    -0.089 HD
ATOM     19  H   UNL     1      -0.045  -6.707  -0.523  0.00  0.00    -0.089 HD
ATOM     20  H   UNL     1      -1.171  -6.515   0.689  0.00  0.00    -0.089 HD
ENDBRANCH  16  17
ENDBRANCH  15  16
ENDBRANCH  14  15
ENDBRANCH  13  14
ENDBRANCH   1  13
BRANCH   1  21
ATOM     21  C   UNL     1      -0.001   0.769  -0.563  0.00  0.00    -0.036 C 
BRANCH  21  24
ATOM     22  N   UNL     1      -2.323   1.090  -1.364  0.00  0.00    -0.320 N 
ATOM     23  N   UNL     1      -2.076   0.764   0.821  0.00  0.00    -0.320 N 
ATOM     24  C   UNL     1      -1.484   0.870  -0.327  0.00  0.00    +0.122 C 
ATOM     25  C   UNL     1      -3.591   1.132  -0.842  0.00  0.00    +0.059 C 
ATOM     26  C   UNL     1      -3.410   0.926   0.523  0.00  0.00    +0.059 C 
ATOM     27  C   UNL     1      -4.841   1.326  -1.429  0.00  0.00    +0.016 C 
ATOM     28  C   UNL     1      -4.533   0.910   1.367  0.00  0.00    +0.016 C 
ATOM     29  C   UNL     1      -5.948   1.308  -0.573  0.00  0.00    +0.001 C 
ATOM     30  C   UNL     1      -5.798   1.103   0.800  0.00  0.00    +0.001 C 
ATOM     31  H   UNL     1      -2.073   1.198  -2.310  0.00  0.00    +0.148 HD
ATOM     32  H   UNL     1      -1.667   0.605   1.702  0.00  0.00    +0.148 HD
ENDBRANCH  21  24
ENDBRANCH   1  21
TORSDOF 8
