REMARK  Name = 388136
REMARK  2 active torsions:
REMARK  status: ('A' for Active; 'I' for Inactive)
REMARK    1  A    between atoms: C_5  and  C_14
REMARK    2  A    between atoms: C_6  and  O_15
REMARK                            x       y       z     vdW  Elec       q    Type
REMARK                         _______ _______ _______ _____ _____    ______ ____
ROOT
ATOM      1 CL   UNL     1      -1.669   2.501   0.230  0.00  0.00    -0.078 Cl
ATOM      2 CL   UNL     1       3.579   0.919  -0.137  0.00  0.00    -0.074 Cl
ATOM      3  O   UNL     1       1.270   2.779   0.132  0.00  0.00    -0.285 OA
ATOM      4  N   UNL     1       0.120  -1.048  -0.181  0.00  0.00    -0.324 N 
ATOM      5  C   UNL     1      -0.863  -0.086  -0.049  0.00  0.00    +0.092 A 
ATOM      6  C   UNL     1       1.462  -0.760  -0.209  0.00  0.00    +0.217 A 
ATOM      7  C   UNL     1      -0.534   1.218   0.061  0.00  0.00    +0.112 A 
ATOM      8  C   UNL     1       1.913   0.500  -0.108  0.00  0.00    +0.148 A 
ATOM      9  C   UNL     1       0.917   1.608   0.037  0.00  0.00    +0.222 A 
ATOM     10  H   UNL     1      -0.156  -1.990  -0.260  0.00  0.00    +0.169 HD
ENDROOT
BRANCH   5  14
ATOM     11 CL   UNL     1      -3.156   0.105  -1.401  0.00  0.00    -0.077 Cl
ATOM     12 CL   UNL     1      -2.237  -2.387  -0.210  0.00  0.00    -0.077 Cl
ATOM     13 CL   UNL     1      -3.057  -0.182   1.494  0.00  0.00    -0.077 Cl
ATOM     14  C   UNL     1      -2.271  -0.617  -0.040  0.00  0.00    +0.232 C 
ENDBRANCH   5  14
BRANCH   6  15
ATOM     15  O   UNL     1       2.336  -1.819  -0.345  0.00  0.00    -0.457 OA
ATOM     16  C   UNL     1       2.190  -2.731   0.726  0.00  0.00    +0.254 C 
ENDBRANCH   6  15
TORSDOF 2
