REMARK  Name = 16752640
REMARK  7 active torsions:
REMARK  status: ('A' for Active; 'I' for Inactive)
REMARK    1  A    between atoms: C_1  and  N_4
REMARK    2  A    between atoms: C_1  and  C_18
REMARK    3  A    between atoms: C_1  and  C_21
REMARK    4  A    between atoms: C_11  and  C_14
REMARK    5  A    between atoms: C_14  and  O_15
REMARK    6  A    between atoms: C_18  and  O_19
REMARK    7  A    between atoms: C_21  and  C_22
REMARK                            x       y       z     vdW  Elec       q    Type
REMARK                         _______ _______ _______ _____ _____    ______ ____
ROOT
ATOM      1  C   UNL     1      -0.938   1.586   0.169  0.00  0.00    +0.186 C 
ENDROOT
BRANCH   1   4
ATOM      2  O   UNL     1       1.350   1.607  -1.747  0.00  0.00    -0.269 OA
ATOM      3  O   UNL     1       0.171  -0.003   2.435  0.00  0.00    -0.269 OA
ATOM      4  N   UNL     1       0.371   0.978   0.303  0.00  0.00    -0.213 N 
ATOM      5  C   UNL     1       2.490   0.305  -0.129  0.00  0.00    +0.059 C 
ATOM      6  C   UNL     1       1.353   1.055  -0.662  0.00  0.00    +0.256 C 
ATOM      7  C   UNL     1       0.771   0.258   1.409  0.00  0.00    +0.256 C 
ATOM      8  C   UNL     1       2.138  -0.177   1.123  0.00  0.00    +0.058 C 
ATOM      9  C   UNL     1       3.729   0.061  -0.683  0.00  0.00    +0.011 C 
ATOM     10  C   UNL     1       3.007  -0.928   1.887  0.00  0.00    +0.005 C 
ATOM     11  C   UNL     1       4.627  -0.698   0.073  0.00  0.00    +0.076 C 
ATOM     12  C   UNL     1       4.269  -1.189   1.345  0.00  0.00    +0.007 C 
BRANCH  11  14
ATOM     13  O   UNL     1       6.824  -1.644   0.114  0.00  0.00    -0.245 OA
ATOM     14  C   UNL     1       5.949  -0.987  -0.460  0.00  0.00    +0.338 C 
BRANCH  14  15
ATOM     15  O   UNL     1       6.142  -0.448  -1.694  0.00  0.00    -0.477 OA
ATOM     16  H   UNL     1       5.458   0.045  -2.102  0.00  0.00    +0.295 HD
ENDBRANCH  14  15
ENDBRANCH  11  14
ENDBRANCH   1   4
BRANCH   1  18
ATOM     17  O   UNL     1      -1.810   3.841   0.070  0.00  0.00    -0.248 OA
ATOM     18  C   UNL     1      -0.830   3.103   0.099  0.00  0.00    +0.333 C 
BRANCH  18  19
ATOM     19  O   UNL     1       0.436   3.583   0.078  0.00  0.00    -0.479 OA
ATOM     20  H   UNL     1       1.162   2.991   0.101  0.00  0.00    +0.295 HD
ENDBRANCH  18  19
ENDBRANCH   1  18
BRANCH   1  21
ATOM     21  C   UNL     1      -1.678   1.056  -1.066  0.00  0.00    +0.058 C 
BRANCH  21  22
ATOM     22  C   UNL     1      -2.280  -0.312  -0.850  0.00  0.00    -0.020 C 
ATOM     23  C   UNL     1      -3.584  -0.481  -0.357  0.00  0.00    -0.004 C 
ATOM     24  C   UNL     1      -4.090  -1.790  -0.177  0.00  0.00    -0.000 C 
ATOM     25  C   UNL     1      -1.486  -1.416  -1.161  0.00  0.00    -0.004 C 
ATOM     26  C   UNL     1      -4.396   0.619  -0.038  0.00  0.00    -0.000 C 
ATOM     27  C   UNL     1      -3.278  -2.891  -0.496  0.00  0.00    -0.000 C 
ATOM     28  C   UNL     1      -1.985  -2.704  -0.984  0.00  0.00    -0.000 C 
ATOM     29  C   UNL     1      -5.394  -1.960   0.316  0.00  0.00    -0.000 C 
ATOM     30  C   UNL     1      -5.689   0.432   0.451  0.00  0.00    -0.000 C 
ATOM     31  C   UNL     1      -6.187  -0.855   0.628  0.00  0.00    -0.000 C 
ENDBRANCH  21  22
ENDBRANCH   1  21
TORSDOF 7
