REMARK  Name = 2361
REMARK  1 active torsions:
REMARK  status: ('A' for Active; 'I' for Inactive)
REMARK    1  A    between atoms: C_8  and  C_16
REMARK                            x       y       z     vdW  Elec       q    Type
REMARK                         _______ _______ _______ _____ _____    ______ ____
ROOT
ATOM      1  O   UNL     1      -0.939   0.946  -0.083  0.00  0.00    -0.453 OA
ATOM      2  O   UNL     1       0.893  -2.670   0.186  0.00  0.00    -0.286 OA
ATOM      3  C   UNL     1       1.175  -0.292   0.018  0.00  0.00    +0.074 C 
ATOM      4  C   UNL     1       2.608  -0.246   0.018  0.00  0.00    +0.006 C 
ATOM      5  C   UNL     1       0.433   0.893  -0.078  0.00  0.00    +0.148 C 
ATOM      6  C   UNL     1       3.232   1.029  -0.087  0.00  0.00    +0.000 C 
ATOM      7  C   UNL     1       0.392  -1.557   0.113  0.00  0.00    +0.202 C 
ATOM      8  C   UNL     1      -1.649  -0.231   0.027  0.00  0.00    +0.148 C 
ATOM      9  C   UNL     1       1.070   2.126  -0.179  0.00  0.00    +0.038 C 
ATOM     10  C   UNL     1       2.457   2.191  -0.183  0.00  0.00    +0.003 C 
ATOM     11  C   UNL     1       3.482  -1.363   0.114  0.00  0.00    +0.000 C 
ATOM     12  C   UNL     1      -1.080  -1.439   0.116  0.00  0.00    +0.080 C 
ATOM     13  C   UNL     1       4.632   1.147  -0.094  0.00  0.00    +0.000 C 
ATOM     14  C   UNL     1       4.874  -1.229   0.105  0.00  0.00    +0.000 C 
ATOM     15  C   UNL     1       5.449   0.026   0.001  0.00  0.00    +0.000 C 
ENDROOT
BRANCH   8  16
ATOM     16  C   UNL     1      -3.115  -0.055   0.014  0.00  0.00    +0.035 C 
ATOM     17  C   UNL     1      -3.938  -1.052  -0.519  0.00  0.00    +0.003 C 
ATOM     18  C   UNL     1      -3.688   1.109   0.533  0.00  0.00    +0.003 C 
ATOM     19  C   UNL     1      -5.322  -0.886  -0.531  0.00  0.00    +0.000 C 
ATOM     20  C   UNL     1      -5.073   1.275   0.521  0.00  0.00    +0.000 C 
ATOM     21  C   UNL     1      -5.890   0.277  -0.012  0.00  0.00    +0.000 C 
ENDBRANCH   8  16
TORSDOF 1
