REMARK  Name = 459963
REMARK  8 active torsions:
REMARK  status: ('A' for Active; 'I' for Inactive)
REMARK    1  A    between atoms: C_2  and  C_6
REMARK    2  A    between atoms: C_3  and  C_19
REMARK    3  A    between atoms: C_9  and  C_14
REMARK    4  A    between atoms: N_13  and  C_14
REMARK    5  A    between atoms: N_13  and  O_17
REMARK    6  A    between atoms: C_22  and  C_27
REMARK    7  A    between atoms: N_26  and  C_27
REMARK    8  A    between atoms: N_26  and  O_30
REMARK                            x       y       z     vdW  Elec       q    Type
REMARK                         _______ _______ _______ _____ _____    ______ ____
ROOT
ATOM      1  O   UNL     1       0.003  -0.716   0.002  0.00  0.00    -0.453 OA
ATOM      2  C   UNL     1       1.086  -1.531  -0.043  0.00  0.00    +0.145 C 
ATOM      3  C   UNL     1      -1.086  -1.529   0.046  0.00  0.00    +0.145 C 
ATOM      4  C   UNL     1       0.710  -2.849  -0.029  0.00  0.00    +0.041 C 
ATOM      5  C   UNL     1      -0.704  -2.850   0.029  0.00  0.00    +0.041 C 
ENDROOT
BRANCH   2   6
ATOM      6  C   UNL     1       2.359  -0.855  -0.096  0.00  0.00    +0.035 C 
ATOM      7  C   UNL     1       3.540  -1.595  -0.148  0.00  0.00    +0.003 C 
ATOM      8  C   UNL     1       2.409   0.539  -0.097  0.00  0.00    +0.003 C 
ATOM      9  C   UNL     1       4.821   0.452  -0.201  0.00  0.00    +0.036 C 
ATOM     10  C   UNL     1       4.771  -0.942  -0.200  0.00  0.00    +0.003 C 
ATOM     11  C   UNL     1       3.640   1.193  -0.149  0.00  0.00    +0.003 C 
BRANCH   9  13
ATOM     12  N   UNL     1       6.200   2.388  -0.870  0.00  0.00    -0.381 N 
ATOM     13  C   UNL     1       6.105   1.133  -0.255  0.00  0.00    +0.160 C 
ATOM     14  H   UNL     1       7.067   2.852  -0.909  0.00  0.00    +0.157 HD
ATOM     15  H   UNL     1       5.400   2.805  -1.263  0.00  0.00    +0.157 HD
BRANCH  13  16
ATOM     16  N   UNL     1       7.159   0.536   0.282  0.00  0.00    -0.114 NA
BRANCH  16  17
ATOM     17  O   UNL     1       8.325   1.304   0.155  0.00  0.00    -0.232 OA
ATOM     18  C   UNL     1       9.393   0.587   0.756  0.00  0.00    +0.211 C 
ENDBRANCH  16  17
ENDBRANCH  13  16
ENDBRANCH   9  13
ENDBRANCH   2   6
BRANCH   3  19
ATOM     19  C   UNL     1      -2.353  -0.856   0.098  0.00  0.00    +0.035 C 
ATOM     20  C   UNL     1      -3.540  -1.595   0.146  0.00  0.00    +0.003 C 
ATOM     21  C   UNL     1      -2.410   0.541   0.102  0.00  0.00    +0.003 C 
ATOM     22  C   UNL     1      -4.823   0.452   0.201  0.00  0.00    +0.036 C 
ATOM     23  C   UNL     1      -4.771  -0.942   0.198  0.00  0.00    +0.003 C 
ATOM     24  C   UNL     1      -3.642   1.193   0.154  0.00  0.00    +0.003 C 
BRANCH  22  26
ATOM     25  N   UNL     1      -6.204   2.385   0.872  0.00  0.00    -0.381 N 
ATOM     26  C   UNL     1      -6.107   1.132   0.255  0.00  0.00    +0.160 C 
ATOM     27  H   UNL     1      -7.071   2.849   0.911  0.00  0.00    +0.157 HD
ATOM     28  H   UNL     1      -5.405   2.802   1.268  0.00  0.00    +0.157 HD
BRANCH  26  29
ATOM     29  N   UNL     1      -7.160   0.535  -0.286  0.00  0.00    -0.114 NA
BRANCH  29  30
ATOM     30  O   UNL     1      -8.327   1.303  -0.159  0.00  0.00    -0.232 OA
ATOM     31  C   UNL     1      -9.393   0.586  -0.764  0.00  0.00    +0.211 C 
ENDBRANCH  29  30
ENDBRANCH  26  29
ENDBRANCH  22  26
ENDBRANCH   3  19
TORSDOF 8
