REMARK  Name = 5312125
REMARK  15 active torsions:
REMARK  status: ('A' for Active; 'I' for Inactive)
REMARK    1  A    between atoms: C_1  and  C_7
REMARK    2  A    between atoms: C_1  and  C_21
REMARK    3  A    between atoms: N_2  and  C_16
REMARK    4  A    between atoms: C_8  and  C_13
REMARK    5  A    between atoms: C_16  and  C_17
REMARK    6  A    between atoms: C_17  and  C_18
REMARK    7  A    between atoms: C_18  and  O_19
REMARK    8  A    between atoms: C_21  and  N_23
REMARK    9  A    between atoms: N_23  and  C_26
REMARK   10  A    between atoms: C_26  and  C_27
REMARK   11  A    between atoms: C_27  and  O_28
REMARK   12  A    between atoms: O_28  and  C_29
REMARK   13  A    between atoms: C_30  and  O_35
REMARK   14  A    between atoms: O_35  and  C_36
REMARK   15  A    between atoms: C_36  and  C_40
REMARK                            x       y       z     vdW  Elec       q    Type
REMARK                         _______ _______ _______ _____ _____    ______ ____
ROOT
ATOM      1  C   UNL     1      -0.827   3.710   1.084  0.00  0.00    +0.005 C 
ENDROOT
BRANCH   1   7
ATOM      2  N   UNL     1       3.510   0.180   0.268  0.00  0.00    -0.307 N 
ATOM      3  C   UNL     1       2.368   0.916   0.552  0.00  0.00    +0.048 C 
ATOM      4  C   UNL     1       4.230   0.897  -0.782  0.00  0.00    +0.095 C 
ATOM      5  C   UNL     1       2.423   2.191  -0.026  0.00  0.00    -0.007 C 
ATOM      6  C   UNL     1       3.719   2.352  -0.753  0.00  0.00    +0.049 C 
ATOM      7  C   UNL     1       0.294   2.744   0.890  0.00  0.00    -0.024 C 
ATOM      8  C   UNL     1       1.264   0.550   1.308  0.00  0.00    +0.066 C 
ATOM      9  C   UNL     1       1.405   3.116   0.135  0.00  0.00    -0.007 C 
ATOM     10  C   UNL     1       0.224   1.470   1.472  0.00  0.00    +0.001 C 
BRANCH   8  13
ATOM     11  O   UNL     1       0.599  -1.708   1.359  0.00  0.00    -0.270 OA
ATOM     12  N   UNL     1       1.605  -0.884   3.247  0.00  0.00    -0.325 N 
ATOM     13  C   UNL     1       1.121  -0.747   1.950  0.00  0.00    +0.244 C 
ATOM     14  H   UNL     1       1.526  -1.747   3.714  0.00  0.00    +0.145 HD
ATOM     15  H   UNL     1       2.028  -0.118   3.698  0.00  0.00    +0.145 HD
ENDBRANCH   8  13
BRANCH   2  16
ATOM     16  C   UNL     1       3.616  -1.246   0.444  0.00  0.00    +0.093 C 
BRANCH  16  17
ATOM     17  C   UNL     1       5.003  -1.741   0.051  0.00  0.00    +0.053 C 
BRANCH  17  18
ATOM     18  C   UNL     1       5.166  -3.247   0.219  0.00  0.00    +0.139 C 
BRANCH  18  19
ATOM     19  O   UNL     1       6.489  -3.609  -0.154  0.00  0.00    -0.382 OA
ATOM     20  H   UNL     1       6.603  -4.567  -0.051  0.00  0.00    +0.210 HD
ENDBRANCH  18  19
ENDBRANCH  17  18
ENDBRANCH  16  17
ENDBRANCH   2  16
ENDBRANCH   1   7
BRANCH   1  21
ATOM     21  C   UNL     1      -1.930   3.627   0.003  0.00  0.00    -0.057 C 
ATOM     22  C   UNL     1      -1.386   3.891  -1.402  0.00  0.00    -0.023 C 
BRANCH  21  23
ATOM     23  N   UNL     1      -2.550   2.299   0.015  0.00  0.00    +0.388 N 
ATOM     24  H   UNL     1      -1.822   1.590   0.096  0.00  0.00    -0.084 HD
ATOM     25  H   UNL     1      -3.072   2.172  -0.852  0.00  0.00    -0.084 HD
BRANCH  23  26
ATOM     26  C   UNL     1      -3.466   2.172   1.137  0.00  0.00    -0.033 C 
BRANCH  26  27
ATOM     27  C   UNL     1      -4.112   0.796   1.149  0.00  0.00    +0.182 C 
BRANCH  27  28
ATOM     28  O   UNL     1      -3.090  -0.187   1.248  0.00  0.00    -0.475 OA
BRANCH  28  29
ATOM     29  C   UNL     1      -3.350  -1.408   0.682  0.00  0.00    +0.172 C 
ATOM     30  C   UNL     1      -2.539  -1.903  -0.340  0.00  0.00    +0.173 C 
ATOM     31  C   UNL     1      -4.437  -2.156   1.134  0.00  0.00    +0.040 C 
ATOM     32  C   UNL     1      -2.815  -3.147  -0.908  0.00  0.00    +0.040 C 
ATOM     33  C   UNL     1      -4.713  -3.400   0.566  0.00  0.00    +0.003 C 
ATOM     34  C   UNL     1      -3.902  -3.895  -0.456  0.00  0.00    +0.003 C 
BRANCH  30  35
ATOM     35  O   UNL     1      -1.475  -1.183  -0.790  0.00  0.00    -0.463 OA
BRANCH  35  36
ATOM     36  C   UNL     1      -1.105  -1.357  -2.156  0.00  0.00    +0.308 C 
BRANCH  36  40
ATOM     37  F   UNL     1      -1.351   0.946  -2.561  0.00  0.00    -0.166 F 
ATOM     38  F   UNL     1      -0.129  -0.194  -3.963  0.00  0.00    -0.166 F 
ATOM     39  F   UNL     1       0.622   0.238  -1.956  0.00  0.00    -0.166 F 
ATOM     40  C   UNL     1      -0.482  -0.083  -2.664  0.00  0.00    +0.438 C 
ENDBRANCH  36  40
ENDBRANCH  35  36
ENDBRANCH  30  35
ENDBRANCH  28  29
ENDBRANCH  27  28
ENDBRANCH  26  27
ENDBRANCH  23  26
ENDBRANCH  21  23
ENDBRANCH   1  21
TORSDOF 15
