REMARK  Name = 4494
REMARK  8 active torsions:
REMARK  status: ('A' for Active; 'I' for Inactive)
REMARK    1  A    between atoms: C_2  and  C_9
REMARK    2  A    between atoms: C_3  and  C_19
REMARK    3  A    between atoms: C_4  and  C_25
REMARK    4  A    between atoms: C_6  and  C_29
REMARK    5  A    between atoms: C_12  and  N_17
REMARK    6  A    between atoms: C_19  and  O_20
REMARK    7  A    between atoms: O_20  and  C_21
REMARK    8  A    between atoms: C_25  and  O_26
REMARK                            x       y       z     vdW  Elec       q    Type
REMARK                         _______ _______ _______ _____ _____    ______ ____
ROOT
ATOM      1  N   UNL     1       2.869  -1.650   0.514  0.00  0.00    -0.322 N 
ATOM      2  C   UNL     1       0.711  -0.139  -0.560  0.00  0.00    +0.012 C 
ATOM      3  C   UNL     1       0.680  -1.666  -0.394  0.00  0.00    +0.071 C 
ATOM      4  C   UNL     1       2.079   0.463  -0.232  0.00  0.00    +0.099 C 
ATOM      5  C   UNL     1       1.723  -2.340   0.146  0.00  0.00    +0.099 C 
ATOM      6  C   UNL     1       3.054  -0.304   0.291  0.00  0.00    +0.121 C 
ATOM      7  C   UNL     1       1.769  -3.824   0.392  0.00  0.00    +0.026 C 
ATOM      8  H   UNL     1       3.591  -2.151   0.958  0.00  0.00    +0.148 HD
ENDROOT
BRANCH   2   9
ATOM      9  C   UNL     1      -0.348   0.492   0.297  0.00  0.00    +0.002 C 
ATOM     10  C   UNL     1      -1.374   1.216  -0.298  0.00  0.00    +0.024 C 
ATOM     11  C   UNL     1      -0.290   0.347   1.678  0.00  0.00    +0.000 C 
ATOM     12  C   UNL     1      -2.357   1.803   0.499  0.00  0.00    +0.143 C 
ATOM     13  C   UNL     1      -1.273   0.934   2.475  0.00  0.00    +0.002 C 
ATOM     14  C   UNL     1      -2.306   1.662   1.885  0.00  0.00    +0.024 C 
BRANCH  12  17
ATOM     15  O   UNL     1      -4.282   3.059   0.638  0.00  0.00    -0.126 OA
ATOM     16  O   UNL     1      -3.432   2.655  -1.350  0.00  0.00    -0.126 OA
ATOM     17  N   UNL     1      -3.410   2.543  -0.101  0.00  0.00    +0.058 N 
ENDBRANCH  12  17
ENDBRANCH   2   9
BRANCH   3  19
ATOM     18  O   UNL     1      -0.630  -2.741  -2.052  0.00  0.00    -0.245 OA
ATOM     19  C   UNL     1      -0.517  -2.357  -0.902  0.00  0.00    +0.339 C 
BRANCH  19  20
ATOM     20  O   UNL     1      -1.409  -2.469   0.111  0.00  0.00    -0.449 OA
BRANCH  20  21
ATOM     21  C   UNL     1      -2.634  -3.126  -0.229  0.00  0.00    +0.169 C 
ATOM     22  C   UNL     1      -3.518  -3.208   1.007  0.00  0.00    +0.047 C 
ATOM     23  C   UNL     1      -3.311  -2.367  -1.360  0.00  0.00    +0.047 C 
ENDBRANCH  20  21
ENDBRANCH  19  20
ENDBRANCH   3  19
BRANCH   4  25
ATOM     24  O   UNL     1       3.061   2.596   0.091  0.00  0.00    -0.245 OA
ATOM     25  C   UNL     1       2.291   1.888  -0.533  0.00  0.00    +0.343 C 
BRANCH  25  26
ATOM     26  O   UNL     1       1.502   2.227  -1.581  0.00  0.00    -0.441 OA
ATOM     27  C   UNL     1       1.598   3.593  -1.996  0.00  0.00    +0.256 C 
ENDBRANCH  25  26
ENDBRANCH   4  25
BRANCH   6  29
ATOM     28  N   UNL     1       5.405   0.549   0.925  0.00  0.00    -0.190 NA
ATOM     29  C   UNL     1       4.348   0.165   0.640  0.00  0.00    +0.115 C 
ENDBRANCH   6  29
TORSDOF 8
