REMARK  Name = 9549223
REMARK  6 active torsions:
REMARK  status: ('A' for Active; 'I' for Inactive)
REMARK    1  A    between atoms: N_1  and  N_4
REMARK    2  A    between atoms: N_1  and  C_15
REMARK    3  A    between atoms: C_5  and  C_7
REMARK    4  A    between atoms: C_12  and  O_13
REMARK    5  A    between atoms: C_15  and  C_17
REMARK    6  A    between atoms: C_16  and  C_22
REMARK                            x       y       z     vdW  Elec       q    Type
REMARK                         _______ _______ _______ _____ _____    ______ ____
ROOT
ATOM      1  N   UNL     1      -0.013   0.019  -0.597  0.00  0.00    -0.225 NA
ATOM      2  H   UNL     1      -0.315  -0.158  -1.555  0.00  0.00    +0.145 HD
ENDROOT
BRANCH   1   4
ATOM      3  O   UNL     1       1.879   1.914   0.100  0.00  0.00    -0.269 OA
ATOM      4  N   UNL     1       1.339  -0.266  -0.482  0.00  0.00    -0.246 N 
ATOM      5  C   UNL     1       2.237   0.744  -0.125  0.00  0.00    +0.259 C 
ATOM      6  H   UNL     1       1.666  -1.179  -0.652  0.00  0.00    +0.169 HD
BRANCH   5   7
ATOM      7  C   UNL     1       3.641   0.373  -0.043  0.00  0.00    +0.055 C 
ATOM      8  C   UNL     1       4.629   1.335  -0.255  0.00  0.00    +0.008 C 
ATOM      9  C   UNL     1       4.000  -0.943   0.248  0.00  0.00    +0.008 C 
ATOM     10  C   UNL     1       5.976   0.980  -0.175  0.00  0.00    +0.037 C 
ATOM     11  C   UNL     1       5.347  -1.297   0.328  0.00  0.00    +0.037 C 
ATOM     12  C   UNL     1       6.335  -0.336   0.116  0.00  0.00    +0.134 C 
BRANCH  12  13
ATOM     13  O   UNL     1       7.649  -0.681   0.195  0.00  0.00    -0.506 OA
ATOM     14  H   UNL     1       8.312  -0.036   0.053  0.00  0.00    +0.292 HD
ENDBRANCH  12  13
ENDBRANCH   5   7
ENDBRANCH   1   4
BRANCH   1  15
ATOM     15  C   UNL     1      -0.782  -0.819   0.313  0.00  0.00    +0.114 C 
BRANCH  15  17
ATOM     16  C   UNL     1      -4.995  -0.174  -0.088  0.00  0.00    -0.023 C 
ATOM     17  C   UNL     1      -2.260  -0.592   0.172  0.00  0.00    -0.005 C 
ATOM     18  C   UNL     1      -4.361  -1.144  -0.865  0.00  0.00    -0.005 C 
ATOM     19  C   UNL     1      -4.257   0.586   0.818  0.00  0.00    -0.005 C 
ATOM     20  C   UNL     1      -2.988  -1.354  -0.734  0.00  0.00    -0.003 C 
ATOM     21  C   UNL     1      -2.884   0.376   0.949  0.00  0.00    -0.003 C 
BRANCH  16  22
ATOM     22  C   UNL     1      -6.463   0.051  -0.228  0.00  0.00    +0.022 C 
ATOM     23  C   UNL     1      -6.797   1.472  -0.719  0.00  0.00    +0.005 C 
ATOM     24  C   UNL     1      -7.231  -0.246   1.074  0.00  0.00    +0.005 C 
ENDBRANCH  16  22
ENDBRANCH  15  17
ENDBRANCH   1  15
TORSDOF 6
