REMARK  Name = 25113615
REMARK  7 active torsions:
REMARK  status: ('A' for Active; 'I' for Inactive)
REMARK    1  A    between atoms: N_2  and  C_20
REMARK    2  A    between atoms: C_3  and  C_7
REMARK    3  A    between atoms: C_11  and  C_12
REMARK    4  A    between atoms: C_12  and  C_13
REMARK    5  A    between atoms: C_13  and  C_14
REMARK    6  A    between atoms: C_20  and  C_21
REMARK    7  A    between atoms: C_26  and  C_29
REMARK                            x       y       z     vdW  Elec       q    Type
REMARK                         _______ _______ _______ _____ _____    ______ ____
ROOT
ATOM      1  O   UNL     1       2.569  -1.736   0.992  0.00  0.00    -0.273 OA
ATOM      2  N   UNL     1       1.740  -2.057  -1.160  0.00  0.00    -0.299 N 
ATOM      3  C   UNL     1       2.528  -1.444  -0.201  0.00  0.00    +0.241 C 
ATOM      4  H   UNL     1       1.794  -1.733  -2.088  0.00  0.00    +0.150 HD
ENDROOT
BRANCH   3   7
ATOM      5  O   UNL     1       3.138   2.520   1.493  0.00  0.00    -0.275 OA
ATOM      6  N   UNL     1       3.641   0.624   0.272  0.00  0.00    -0.273 N 
ATOM      7  C   UNL     1       3.384  -0.358  -0.779  0.00  0.00    +0.152 C 
ATOM      8  C   UNL     1       4.765  -0.896  -1.144  0.00  0.00    +0.031 C 
ATOM      9  C   UNL     1       5.552  -0.764   0.158  0.00  0.00    +0.024 C 
ATOM     10  C   UNL     1       5.009   0.521   0.762  0.00  0.00    +0.094 C 
ATOM     11  C   UNL     1       2.803   1.643   0.693  0.00  0.00    +0.226 C 
BRANCH  11  12
ATOM     12  C   UNL     1       1.412   1.642   0.111  0.00  0.00    +0.090 C 
BRANCH  12  13
ATOM     13  C   UNL     1       0.603   2.810   0.656  0.00  0.00    +0.036 C 
BRANCH  13  14
ATOM     14  C   UNL     1      -0.809   2.857   0.125  0.00  0.00    -0.022 C 
ATOM     15  C   UNL     1      -1.092   3.566  -1.042  0.00  0.00    -0.004 C 
ATOM     16  C   UNL     1      -1.831   2.192   0.802  0.00  0.00    -0.004 C 
ATOM     17  C   UNL     1      -2.397   3.610  -1.534  0.00  0.00    -0.000 C 
ATOM     18  C   UNL     1      -3.136   2.236   0.311  0.00  0.00    -0.000 C 
ATOM     19  C   UNL     1      -3.419   2.945  -0.857  0.00  0.00    -0.000 C 
ENDBRANCH  13  14
ENDBRANCH  12  13
ENDBRANCH  11  12
ENDBRANCH   3   7
BRANCH   2  20
ATOM     20  C   UNL     1       0.842  -3.150  -0.864  0.00  0.00    +0.116 C 
BRANCH  20  21
ATOM     21  C   UNL     1      -0.529  -2.664  -0.491  0.00  0.00    -0.003 C 
ATOM     22  C   UNL     1      -1.065  -2.982   0.757  0.00  0.00    -0.003 C 
ATOM     23  C   UNL     1      -1.268  -1.897  -1.393  0.00  0.00    -0.003 C 
ATOM     24  C   UNL     1      -2.340  -2.533   1.103  0.00  0.00    +0.002 C 
ATOM     25  C   UNL     1      -2.542  -1.448  -1.046  0.00  0.00    +0.002 C 
ATOM     26  C   UNL     1      -3.078  -1.766   0.202  0.00  0.00    +0.031 C 
BRANCH  26  29
ATOM     27  N   UNL     1      -4.968  -1.597   1.803  0.00  0.00    -0.343 N 
ATOM     28  N   UNL     1      -5.105  -0.574  -0.293  0.00  0.00    -0.285 NA
ATOM     29  C   UNL     1      -4.406  -1.297   0.564  0.00  0.00    +0.117 C 
ATOM     30  H   UNL     1      -5.869  -1.270   2.027  0.00  0.00    +0.144 HD
ATOM     31  H   UNL     1      -4.465  -2.137   2.454  0.00  0.00    +0.144 HD
ATOM     32  H   UNL     1      -6.004  -0.256  -0.050  0.00  0.00    +0.188 HD
ENDBRANCH  26  29
ENDBRANCH  20  21
ENDBRANCH   2  20
TORSDOF 7
