REMARK  Name = 9838022
REMARK  6 active torsions:
REMARK  status: ('A' for Active; 'I' for Inactive)
REMARK    1  A    between atoms: C_1  and  C_2
REMARK    2  A    between atoms: C_1  and  C_10
REMARK    3  A    between atoms: C_1  and  C_17
REMARK    4  A    between atoms: C_5  and  O_8
REMARK    5  A    between atoms: C_10  and  C_12
REMARK    6  A    between atoms: C_12  and  N_13
REMARK                            x       y       z     vdW  Elec       q    Type
REMARK                         _______ _______ _______ _____ _____    ______ ____
ROOT
ATOM      1  C   UNL     1       0.126   1.455   0.258  0.00  0.00    +0.020 C 
ENDROOT
BRANCH   1   2
ATOM      2  C   UNL     1      -0.937   0.364   0.341  0.00  0.00    -0.020 C 
ATOM      3  C   UNL     1      -1.312  -0.286  -0.815  0.00  0.00    +0.032 C 
ATOM      4  C   UNL     1      -1.487   0.065   1.569  0.00  0.00    -0.004 C 
ATOM      5  C   UNL     1      -2.284  -1.283  -0.740  0.00  0.00    +0.133 C 
ATOM      6  C   UNL     1      -2.459  -0.932   1.644  0.00  0.00    +0.003 C 
ATOM      7  C   UNL     1      -2.858  -1.606   0.490  0.00  0.00    +0.037 C 
BRANCH   5   8
ATOM      8  O   UNL     1      -2.674  -1.940  -1.866  0.00  0.00    -0.506 OA
ATOM      9  H   UNL     1      -2.289  -1.723  -2.692  0.00  0.00    +0.292 HD
ENDBRANCH   5   8
ENDBRANCH   1   2
BRANCH   1  10
ATOM     10  C   UNL     1       1.496   0.883  -0.248  0.00  0.00    -0.017 C 
ATOM     11  C   UNL     1       2.563   1.979  -0.402  0.00  0.00    -0.002 C 
BRANCH  10  12
ATOM     12  C   UNL     1       2.045  -0.262   0.641  0.00  0.00    -0.077 C 
BRANCH  12  13
ATOM     13  N   UNL     1       3.211  -0.932   0.075  0.00  0.00    +0.384 N 
ATOM     14  C   UNL     1       2.905  -1.461  -1.255  0.00  0.00    -0.101 C 
ATOM     15  C   UNL     1       3.666  -2.008   0.957  0.00  0.00    -0.101 C 
ATOM     16  H   UNL     1       3.961  -0.247  -0.014  0.00  0.00    -0.080 HD
ENDBRANCH  12  13
ENDBRANCH  10  12
ENDBRANCH   1  10
BRANCH   1  17
ATOM     17  C   UNL     1      -0.373   2.646  -0.601  0.00  0.00    +0.004 C 
ATOM     18  C   UNL     1      -1.625   3.319  -0.047  0.00  0.00    +0.000 C 
ENDBRANCH   1  17
TORSDOF 6
