REMARK  Name = 3057996
REMARK  4 active torsions:
REMARK  status: ('A' for Active; 'I' for Inactive)
REMARK    1  A    between atoms: C_1  and  C_4
REMARK    2  A    between atoms: C_1  and  C_11
REMARK    3  A    between atoms: C_11  and  N_13
REMARK    4  A    between atoms: N_13  and  C_16
REMARK                            x       y       z     vdW  Elec       q    Type
REMARK                         _______ _______ _______ _____ _____    ______ ____
ROOT
ATOM      1  C   UNL     1       1.229   0.145  -0.670  0.00  0.00    +0.005 C 
ENDROOT
BRANCH   1   4
ATOM      2  O   UNL     1      -3.542   1.378  -0.346  0.00  0.00    -0.435 OA
ATOM      3  O   UNL     1      -4.189  -0.844   0.329  0.00  0.00    -0.435 OA
ATOM      4  C   UNL     1      -0.208  -0.153  -0.396  0.00  0.00    -0.021 C 
ATOM      5  C   UNL     1      -1.165   0.855  -0.532  0.00  0.00    +0.036 C 
ATOM      6  C   UNL     1      -0.585  -1.449  -0.002  0.00  0.00    -0.001 C 
ATOM      7  C   UNL     1      -2.479   0.531  -0.268  0.00  0.00    +0.176 C 
ATOM      8  C   UNL     1      -2.849  -0.738   0.117  0.00  0.00    +0.176 C 
ATOM      9  C   UNL     1      -1.924  -1.752   0.259  0.00  0.00    +0.040 C 
ATOM     10  C   UNL     1      -4.622   0.500   0.033  0.00  0.00    +0.429 C 
ENDBRANCH   1   4
BRANCH   1  11
ATOM     11  C   UNL     1       2.022   0.629   0.566  0.00  0.00    -0.057 C 
ATOM     12  C   UNL     1       1.457   1.925   1.148  0.00  0.00    -0.023 C 
BRANCH  11  13
ATOM     13  N   UNL     1       3.424   0.860   0.204  0.00  0.00    +0.387 N 
ATOM     14  H   UNL     1       3.944   1.138   1.037  0.00  0.00    -0.084 HD
ATOM     15  H   UNL     1       3.465   1.597  -0.500  0.00  0.00    -0.084 HD
BRANCH  13  16
ATOM     16  C   UNL     1       4.016  -0.348  -0.347  0.00  0.00    -0.062 C 
ATOM     17  C   UNL     1       3.962  -1.478   0.677  0.00  0.00    -0.023 C 
ATOM     18  C   UNL     1       5.452  -0.061  -0.772  0.00  0.00    -0.023 C 
ENDBRANCH  13  16
ENDBRANCH  11  13
ENDBRANCH   1  11
TORSDOF 4
