REMARK  Name = 11245700
REMARK  5 active torsions:
REMARK  status: ('A' for Active; 'I' for Inactive)
REMARK    1  A    between atoms: C_4  and  C_19
REMARK    2  A    between atoms: C_10  and  O_12
REMARK    3  A    between atoms: O_12  and  S_13
REMARK    4  A    between atoms: S_13  and  N_16
REMARK    5  A    between atoms: C_19  and  C_20
REMARK                            x       y       z     vdW  Elec       q    Type
REMARK                         _______ _______ _______ _____ _____    ______ ____
ROOT
ATOM      1  S   UNL     1       0.219  -0.224  -1.060  0.00  0.00    +0.024 S 
ATOM      2  O   UNL     1      -0.062  -0.315  -2.478  0.00  0.00    -0.165 OA
ATOM      3  O   UNL     1       0.625  -1.359  -0.258  0.00  0.00    -0.165 OA
ATOM      4  C   UNL     1       1.233   1.159  -0.725  0.00  0.00    +0.088 C 
ATOM      5  C   UNL     1       0.555   2.114  -0.065  0.00  0.00    +0.016 C 
ATOM      6  C   UNL     1      -1.167   0.498  -0.292  0.00  0.00    +0.113 C 
ATOM      7  C   UNL     1      -0.835   1.758   0.197  0.00  0.00    +0.019 C 
ATOM      8  C   UNL     1      -2.419  -0.068  -0.171  0.00  0.00    +0.059 C 
ATOM      9  C   UNL     1      -1.801   2.506   0.848  0.00  0.00    +0.005 C 
ATOM     10  C   UNL     1      -3.390   0.687   0.484  0.00  0.00    +0.174 C 
ATOM     11  C   UNL     1      -3.085   1.964   0.990  0.00  0.00    +0.040 C 
ENDROOT
BRANCH  10  12
ATOM     12  O   UNL     1      -4.648   0.186   0.637  0.00  0.00    -0.349 OA
BRANCH  12  13
ATOM     13  S   UNL     1      -5.106  -1.288   0.086  0.00  0.00    +0.086 S 
ATOM     14  O   UNL     1      -4.385  -2.301   0.836  0.00  0.00    -0.046 OA
ATOM     15  O   UNL     1      -5.065  -1.267  -1.365  0.00  0.00    -0.046 OA
BRANCH  13  16
ATOM     16  N   UNL     1      -6.755  -1.384   0.551  0.00  0.00    -0.194 NA
ATOM     17  H   UNL     1      -6.821  -1.401   1.569  0.00  0.00    +0.145 HD
ATOM     18  H   UNL     1      -7.167  -2.235   0.170  0.00  0.00    +0.145 HD
ENDBRANCH  13  16
ENDBRANCH  12  13
ENDBRANCH  10  12
BRANCH   4  19
ATOM     19  C   UNL     1       2.655   1.181  -1.155  0.00  0.00    +0.045 C 
BRANCH  19  20
ATOM     20  C   UNL     1       3.452   0.037  -0.516  0.00  0.00    +0.006 C 
ATOM     21  C   UNL     1       4.899   0.063  -1.039  0.00  0.00    +0.000 C 
ATOM     22  C   UNL     1       3.333   0.134   1.012  0.00  0.00    +0.000 C 
ATOM     23  C   UNL     1       5.665  -1.224  -0.739  0.00  0.00    +0.000 C 
ATOM     24  C   UNL     1       4.107  -0.921   1.802  0.00  0.00    +0.000 C 
ATOM     25  C   UNL     1       6.364  -1.263   0.615  0.00  0.00    +0.000 C 
ATOM     26  C   UNL     1       5.611  -0.671   1.802  0.00  0.00    +0.000 C 
ENDBRANCH  19  20
ENDBRANCH   4  19
TORSDOF 5
