REMARK  Name = 1712095
REMARK  9 active torsions:
REMARK  status: ('A' for Active; 'I' for Inactive)
REMARK    1  A    between atoms: C_9  and  O_25
REMARK    2  A    between atoms: C_10  and  O_28
REMARK    3  A    between atoms: C_11  and  C_13
REMARK    4  A    between atoms: C_16  and  O_19
REMARK    5  A    between atoms: C_17  and  O_22
REMARK    6  A    between atoms: O_19  and  C_20
REMARK    7  A    between atoms: O_22  and  C_23
REMARK    8  A    between atoms: O_25  and  C_26
REMARK    9  A    between atoms: O_28  and  C_29
REMARK                            x       y       z     vdW  Elec       q    Type
REMARK                         _______ _______ _______ _____ _____    ______ ____
ROOT
ATOM      1  N   UNL     1      -0.092  -1.699   1.223  0.00  0.00    -0.332 N 
ATOM      2  C   UNL     1       2.081  -2.755   1.445  0.00  0.00    +0.048 C 
ATOM      3  C   UNL     1       2.668  -1.522   0.798  0.00  0.00    -0.016 C 
ATOM      4  C   UNL     1       1.815  -0.541   0.238  0.00  0.00    +0.012 C 
ATOM      5  C   UNL     1       0.768  -2.413   2.140  0.00  0.00    +0.092 C 
ATOM      6  C   UNL     1       0.338  -0.747   0.316  0.00  0.00    +0.044 C 
ATOM      7  C   UNL     1       4.061  -1.378   0.722  0.00  0.00    +0.036 C 
ATOM      8  C   UNL     1       2.402   0.595  -0.343  0.00  0.00    +0.041 C 
ATOM      9  C   UNL     1       4.620  -0.251   0.126  0.00  0.00    +0.172 C 
ATOM     10  C   UNL     1       3.792   0.737  -0.399  0.00  0.00    +0.172 C 
ATOM     11  C   UNL     1      -0.521  -0.081  -0.477  0.00  0.00    +0.014 C 
ATOM     12  H   UNL     1      -1.055  -1.905   1.247  0.00  0.00    +0.147 HD
ENDROOT
BRANCH  11  13
ATOM     13  C   UNL     1      -1.982  -0.225  -0.464  0.00  0.00    +0.004 C 
ATOM     14  C   UNL     1      -2.754   0.570   0.383  0.00  0.00    +0.040 C 
ATOM     15  C   UNL     1      -2.598  -1.157  -1.299  0.00  0.00    +0.003 C 
ATOM     16  C   UNL     1      -4.142   0.434   0.395  0.00  0.00    +0.172 C 
ATOM     17  C   UNL     1      -4.758  -0.498  -0.439  0.00  0.00    +0.172 C 
ATOM     18  C   UNL     1      -3.986  -1.294  -1.286  0.00  0.00    +0.040 C 
BRANCH  16  19
ATOM     19  O   UNL     1      -4.885   1.215   1.228  0.00  0.00    -0.472 OA
BRANCH  19  20
ATOM     20  C   UNL     1      -4.368   2.507   1.538  0.00  0.00    +0.206 C 
ATOM     21  C   UNL     1      -5.523   3.456   1.778  0.00  0.00    +0.051 C 
ENDBRANCH  19  20
ENDBRANCH  16  19
BRANCH  17  22
ATOM     22  O   UNL     1      -6.113  -0.640  -0.438  0.00  0.00    -0.472 OA
BRANCH  22  23
ATOM     23  C   UNL     1      -6.723  -1.053  -1.659  0.00  0.00    +0.206 C 
ATOM     24  C   UNL     1      -8.125  -0.485  -1.727  0.00  0.00    +0.051 C 
ENDBRANCH  22  23
ENDBRANCH  17  22
ENDBRANCH  11  13
BRANCH   9  25
ATOM     25  O   UNL     1       5.974  -0.129   0.059  0.00  0.00    -0.472 OA
BRANCH  25  26
ATOM     26  C   UNL     1       6.682  -1.142  -0.652  0.00  0.00    +0.206 C 
ATOM     27  C   UNL     1       7.925  -0.536  -1.268  0.00  0.00    +0.051 C 
ENDBRANCH  25  26
ENDBRANCH   9  25
BRANCH  10  28
ATOM     28  O   UNL     1       4.326   1.852  -0.972  0.00  0.00    -0.472 OA
BRANCH  28  29
ATOM     29  C   UNL     1       3.983   3.107  -0.387  0.00  0.00    +0.206 C 
ATOM     30  C   UNL     1       5.134   4.072  -0.581  0.00  0.00    +0.051 C 
ENDBRANCH  28  29
ENDBRANCH  10  28
TORSDOF 9
