REMARK  Name = 24768547
REMARK  8 active torsions:
REMARK  status: ('A' for Active; 'I' for Inactive)
REMARK    1  A    between atoms: C_1  and  C_5
REMARK    2  A    between atoms: C_1  and  C_18
REMARK    3  A    between atoms: C_1  and  C_22
REMARK    4  A    between atoms: C_6  and  C_8
REMARK    5  A    between atoms: C_11  and  S_14
REMARK    6  A    between atoms: C_18  and  C_19
REMARK    7  A    between atoms: C_22  and  C_24
REMARK    8  A    between atoms: C_22  and  N_30
REMARK                            x       y       z     vdW  Elec       q    Type
REMARK                         _______ _______ _______ _____ _____    ______ ____
ROOT
ATOM      1  C   UNL     1      -2.918   1.302   0.604  0.00  0.00    +0.079 C 
ENDROOT
BRANCH   1   5
ATOM      2  O   UNL     1      -1.515   0.674  -1.313  0.00  0.00    -0.316 OA
ATOM      3  N   UNL     1      -0.387   0.878   0.612  0.00  0.00    -0.313 NA
ATOM      4  N   UNL     1      -0.177   0.389  -1.613  0.00  0.00    -0.007 NA
ATOM      5  C   UNL     1      -1.551   0.953   0.017  0.00  0.00    +0.292 C 
ATOM      6  C   UNL     1       0.425   0.529  -0.428  0.00  0.00    +0.128 C 
BRANCH   6   8
ATOM      7 CL   UNL     1       1.295  -1.666   1.547  0.00  0.00    -0.081 Cl
ATOM      8  C   UNL     1       1.834   0.329  -0.249  0.00  0.00    +0.088 C 
ATOM      9  C   UNL     1       2.335  -0.638   0.622  0.00  0.00    +0.069 C 
ATOM     10  C   UNL     1       2.711   1.135  -0.975  0.00  0.00    +0.013 C 
ATOM     11  C   UNL     1       4.590   0.006   0.040  0.00  0.00    +0.107 C 
ATOM     12  C   UNL     1       3.713  -0.800   0.766  0.00  0.00    +0.030 C 
ATOM     13  C   UNL     1       4.088   0.974  -0.831  0.00  0.00    +0.019 C 
BRANCH  11  14
ATOM     14  S   UNL     1       6.315  -0.196   0.220  0.00  0.00    +0.010 S 
ATOM     15  O   UNL     1       6.953   1.063  -0.138  0.00  0.00    -0.169 OA
ATOM     16  O   UNL     1       6.586  -0.801   1.517  0.00  0.00    -0.169 OA
ATOM     17  C   UNL     1       6.750  -1.399  -1.015  0.00  0.00    +0.182 C 
ENDBRANCH  11  14
ENDBRANCH   6   8
ENDBRANCH   1   5
BRANCH   1  18
ATOM     18  C   UNL     1      -3.529   2.615   0.049  0.00  0.00    +0.009 C 
BRANCH  18  19
ATOM     19  C   UNL     1      -2.703   3.827   0.378  0.00  0.00    +0.000 C 
ATOM     20  C   UNL     1      -2.880   5.077  -0.433  0.00  0.00    +0.000 C 
ATOM     21  C   UNL     1      -1.628   4.262  -0.574  0.00  0.00    +0.000 C 
ENDBRANCH  18  19
ENDBRANCH   1  18
BRANCH   1  22
ATOM     22  C   UNL     1      -3.879   0.073   0.523  0.00  0.00    -0.004 C 
BRANCH  22  24
ATOM     23  F   UNL     1      -2.655  -1.381   2.090  0.00  0.00    -0.212 F 
ATOM     24  C   UNL     1      -3.226  -1.242   0.870  0.00  0.00    +0.090 C 
ATOM     25  C   UNL     1      -3.161  -2.285   0.035  0.00  0.00    -0.023 C 
ATOM     26  C   UNL     1      -2.516  -3.602   0.362  0.00  0.00    +0.024 C 
ATOM     27  C   UNL     1      -3.725  -2.299  -1.358  0.00  0.00    +0.024 C 
ATOM     28  C   UNL     1      -2.443  -4.294  -0.994  0.00  0.00    +0.005 C 
ATOM     29  C   UNL     1      -3.667  -3.775  -1.736  0.00  0.00    +0.005 C 
ENDBRANCH  22  24
BRANCH  22  30
ATOM     30  N   UNL     1      -5.035   0.290   1.405  0.00  0.00    +0.386 N 
ATOM     31  H   UNL     1      -5.478   1.179   1.171  0.00  0.00    -0.089 HD
ATOM     32  H   UNL     1      -4.723   0.310   2.375  0.00  0.00    -0.089 HD
ATOM     33  H   UNL     1      -5.706  -0.468   1.278  0.00  0.00    -0.089 HD
ENDBRANCH  22  30
ENDBRANCH   1  22
TORSDOF 8
