REMARK  Name = 46937030
REMARK  7 active torsions:
REMARK  status: ('A' for Active; 'I' for Inactive)
REMARK    1  A    between atoms: C_3  and  C_10
REMARK    2  A    between atoms: C_7  and  C_25
REMARK    3  A    between atoms: N_9  and  C_12
REMARK    4  A    between atoms: C_12  and  C_13
REMARK    5  A    between atoms: C_18  and  C_21
REMARK    6  A    between atoms: C_25  and  N_26
REMARK    7  A    between atoms: N_26  and  C_29
REMARK                            x       y       z     vdW  Elec       q    Type
REMARK                         _______ _______ _______ _____ _____    ______ ____
ROOT
ATOM      1  O   UNL     1       2.558  -3.127  -0.869  0.00  0.00    -0.277 OA
ATOM      2  N   UNL     1       3.617  -1.209  -0.136  0.00  0.00    -0.275 N 
ATOM      3  C   UNL     1       3.723  -0.013   0.698  0.00  0.00    +0.152 C 
ATOM      4  C   UNL     1       5.223   0.239   0.814  0.00  0.00    +0.031 C 
ATOM      5  C   UNL     1       4.896  -1.530  -0.756  0.00  0.00    +0.094 C 
ATOM      6  C   UNL     1       5.779  -0.321  -0.493  0.00  0.00    +0.024 C 
ATOM      7  C   UNL     1       2.530  -2.061  -0.251  0.00  0.00    +0.204 C 
ENDROOT
BRANCH   3  10
ATOM      8  O   UNL     1       2.991   1.157  -1.250  0.00  0.00    -0.273 OA
ATOM      9  N   UNL     1       2.549   2.068   0.846  0.00  0.00    -0.299 N 
ATOM     10  C   UNL     1       3.050   1.115  -0.024  0.00  0.00    +0.241 C 
ATOM     11  H   UNL     1       2.657   1.923   1.814  0.00  0.00    +0.150 HD
BRANCH   9  12
ATOM     12  C   UNL     1       1.874   3.267   0.403  0.00  0.00    +0.116 C 
BRANCH  12  13
ATOM     13  C   UNL     1       0.393   3.060   0.266  0.00  0.00    -0.003 C 
ATOM     14  C   UNL     1      -0.226   3.254  -0.969  0.00  0.00    -0.003 C 
ATOM     15  C   UNL     1      -0.363   2.675   1.373  0.00  0.00    -0.003 C 
ATOM     16  C   UNL     1      -1.602   3.062  -1.097  0.00  0.00    +0.002 C 
ATOM     17  C   UNL     1      -1.739   2.483   1.245  0.00  0.00    +0.002 C 
ATOM     18  C   UNL     1      -2.358   2.676   0.010  0.00  0.00    +0.031 C 
BRANCH  18  21
ATOM     19  N   UNL     1      -4.440   2.660  -1.343  0.00  0.00    -0.343 N 
ATOM     20  N   UNL     1      -4.507   2.114   0.928  0.00  0.00    -0.285 NA
ATOM     21  C   UNL     1      -3.792   2.475  -0.123  0.00  0.00    +0.117 C 
ATOM     22  H   UNL     1      -5.412   2.518  -1.410  0.00  0.00    +0.144 HD
ATOM     23  H   UNL     1      -3.926   2.932  -2.137  0.00  0.00    +0.144 HD
ATOM     24  H   UNL     1      -5.478   1.978   0.840  0.00  0.00    +0.188 HD
ENDBRANCH  18  21
ENDBRANCH  12  13
ENDBRANCH   9  12
ENDBRANCH   3  10
BRANCH   7  25
ATOM     25  C   UNL     1       1.264  -1.617   0.437  0.00  0.00    +0.006 C 
BRANCH  25  26
ATOM     26  N   UNL     1       0.267  -2.648   0.199  0.00  0.00    +0.391 N 
ATOM     27  H   UNL     1       0.119  -2.746  -0.806  0.00  0.00    -0.084 HD
ATOM     28  H   UNL     1       0.602  -3.527   0.593  0.00  0.00    -0.084 HD
BRANCH  26  29
ATOM     29  C   UNL     1      -1.003  -2.295   0.841  0.00  0.00    -0.061 C 
ATOM     30  C   UNL     1      -1.659  -1.113   0.115  0.00  0.00    -0.021 C 
ATOM     31  C   UNL     1      -1.850  -3.567   0.999  0.00  0.00    -0.021 C 
ATOM     32  C   UNL     1      -3.287  -3.329   1.467  0.00  0.00    -0.002 C 
ATOM     33  C   UNL     1      -2.066  -1.316  -1.345  0.00  0.00    -0.002 C 
ATOM     34  C   UNL     1      -4.341  -3.445   0.363  0.00  0.00    -0.000 C 
ATOM     35  C   UNL     1      -3.134  -2.368  -1.641  0.00  0.00    -0.000 C 
ATOM     36  C   UNL     1      -4.344  -2.349  -0.706  0.00  0.00    -0.000 C 
ENDBRANCH  26  29
ENDBRANCH  25  26
ENDBRANCH   7  25
TORSDOF 7
