REMARK  Name = 25249
REMARK  1 active torsions:
REMARK  status: ('A' for Active; 'I' for Inactive)
REMARK    1  A    between atoms: C_8  and  O_25
REMARK                            x       y       z     vdW  Elec       q    Type
REMARK                         _______ _______ _______ _____ _____    ______ ____
ROOT
ATOM      1  N   UNL     1       5.561   0.266  -0.173  0.00  0.00    -0.240 N 
ATOM      2  N   UNL     1       6.006  -0.996  -0.323  0.00  0.00    -0.180 NA
ATOM      3  C   UNL     1      -2.416   0.695  -0.313  0.00  0.00    +0.002 C 
ATOM      4  C   UNL     1      -0.995   0.946   0.213  0.00  0.00    +0.000 C 
ATOM      5  C   UNL     1      -3.059  -0.585   0.261  0.00  0.00    +0.023 C 
ATOM      6  C   UNL     1      -0.097  -0.276  -0.158  0.00  0.00    +0.000 C 
ATOM      7  C   UNL     1       1.393  -0.085   0.311  0.00  0.00    +0.004 C 
ATOM      8  C   UNL     1      -4.491  -0.488  -0.352  0.00  0.00    +0.088 C 
ATOM      9  C   UNL     1      -2.195  -1.780  -0.174  0.00  0.00    +0.002 C 
ATOM     10  C   UNL     1      -0.731  -1.623   0.278  0.00  0.00    +0.000 C 
ATOM     11  C   UNL     1       1.922   1.279  -0.294  0.00  0.00    +0.006 C 
ATOM     12  C   UNL     1      -3.477   1.765  -0.077  0.00  0.00    +0.002 C 
ATOM     13  C   UNL     1      -0.414   2.247  -0.357  0.00  0.00    +0.000 C 
ATOM     14  C   UNL     1      -4.818   1.026  -0.248  0.00  0.00    +0.027 C 
ATOM     15  C   UNL     1       1.032   2.473   0.072  0.00  0.00    +0.000 C 
ATOM     16  C   UNL     1       2.277  -1.267  -0.239  0.00  0.00    +0.029 C 
ATOM     17  C   UNL     1      -3.152  -0.581   1.816  0.00  0.00    +0.002 C 
ATOM     18  C   UNL     1       1.495  -0.085   1.859  0.00  0.00    +0.000 C 
ATOM     19  C   UNL     1       3.403   1.586   0.055  0.00  0.00    +0.042 C 
ATOM     20  C   UNL     1      -4.612  -0.959  -1.806  0.00  0.00    +0.029 C 
ATOM     21  C   UNL     1       3.725  -0.928  -0.239  0.00  0.00    +0.009 C 
ATOM     22  C   UNL     1       4.204   0.354  -0.122  0.00  0.00    +0.040 C 
ATOM     23  C   UNL     1       4.881  -1.720  -0.362  0.00  0.00    +0.114 C 
ATOM     24  H   UNL     1       6.157   1.047  -0.107  0.00  0.00    +0.174 HD
ENDROOT
BRANCH   8  25
ATOM     25  O   UNL     1      -5.444  -1.261   0.374  0.00  0.00    -0.387 OA
ATOM     26  H   UNL     1      -5.419  -1.010   1.310  0.00  0.00    +0.210 HD
ENDBRANCH   8  25
TORSDOF 1
