REMARK  Name = 16666708
REMARK  7 active torsions:
REMARK  status: ('A' for Active; 'I' for Inactive)
REMARK    1  A    between atoms: C_3  and  N_19
REMARK    2  A    between atoms: C_4  and  C_12
REMARK    3  A    between atoms: N_11  and  O_14
REMARK    4  A    between atoms: O_14  and  C_15
REMARK    5  A    between atoms: C_15  and  C_16
REMARK    6  A    between atoms: C_16  and  O_17
REMARK    7  A    between atoms: N_19  and  C_23
REMARK                            x       y       z     vdW  Elec       q    Type
REMARK                         _______ _______ _______ _____ _____    ______ ____
ROOT
ATOM      1  O   UNL     1      -4.712   1.376   0.857  0.00  0.00    -0.270 OA
ATOM      2  N   UNL     1      -2.591   1.226  -0.110  0.00  0.00    -0.242 N 
ATOM      3  C   UNL     1      -1.501   0.434  -0.547  0.00  0.00    +0.111 C 
ATOM      4  C   UNL     1      -1.602  -0.909  -0.386  0.00  0.00    +0.083 C 
ATOM      5  C   UNL     1      -3.815  -0.782   0.627  0.00  0.00    +0.032 C 
ATOM      6  C   UNL     1      -3.756   0.701   0.473  0.00  0.00    +0.250 C 
ATOM      7  C   UNL     1      -2.774  -1.508   0.207  0.00  0.00    +0.007 C 
ATOM      8  C   UNL     1      -2.497   2.679  -0.275  0.00  0.00    +0.122 C 
ATOM      9  C   UNL     1      -5.039  -1.380   1.246  0.00  0.00    +0.036 C 
ENDROOT
BRANCH   4  12
ATOM     10  O   UNL     1      -0.519  -2.307  -1.935  0.00  0.00    -0.268 OA
ATOM     11  N   UNL     1       0.376  -2.065   0.192  0.00  0.00    -0.190 N 
ATOM     12  C   UNL     1      -0.531  -1.836  -0.804  0.00  0.00    +0.270 C 
ATOM     13  H   UNL     1       0.273  -1.691   1.097  0.00  0.00    +0.183 HD
BRANCH  11  14
ATOM     14  O   UNL     1       1.468  -2.877  -0.170  0.00  0.00    -0.263 OA
BRANCH  14  15
ATOM     15  C   UNL     1       2.593  -2.488   0.607  0.00  0.00    +0.203 C 
BRANCH  15  16
ATOM     16  C   UNL     1       3.779  -3.354   0.228  0.00  0.00    +0.172 C 
BRANCH  16  17
ATOM     17  O   UNL     1       3.467  -4.715   0.504  0.00  0.00    -0.379 OA
ATOM     18  H   UNL     1       4.222  -5.274   0.264  0.00  0.00    +0.211 HD
ENDBRANCH  16  17
ENDBRANCH  15  16
ENDBRANCH  14  15
ENDBRANCH  11  14
ENDBRANCH   4  12
BRANCH   3  19
ATOM     19  N   UNL     1      -0.389   1.023  -1.111  0.00  0.00    -0.299 N 
ATOM     20  H   UNL     1      -0.412   1.141  -2.089  0.00  0.00    +0.153 HD
BRANCH  19  23
ATOM     21  I   UNL     1       4.792   3.045   1.801  0.00  0.00    -0.042 I 
ATOM     22  F   UNL     1       1.710   2.180  -2.526  0.00  0.00    -0.203 F 
ATOM     23  C   UNL     1       0.759   1.472  -0.468  0.00  0.00    +0.077 C 
ATOM     24  C   UNL     1       1.811   2.054  -1.196  0.00  0.00    +0.154 C 
ATOM     25  C   UNL     1       0.891   1.352   0.925  0.00  0.00    +0.017 C 
ATOM     26  C   UNL     1       2.962   2.502  -0.548  0.00  0.00    +0.037 C 
ATOM     27  C   UNL     1       2.042   1.800   1.573  0.00  0.00    +0.007 C 
ATOM     28  C   UNL     1       3.077   2.376   0.836  0.00  0.00    +0.032 C 
ENDBRANCH  19  23
ENDBRANCH   3  19
TORSDOF 7
