REMARK  Name = 216235
REMARK  6 active torsions:
REMARK  status: ('A' for Active; 'I' for Inactive)
REMARK    1  A    between atoms: C_2  and  S_6
REMARK    2  A    between atoms: C_3  and  C_19
REMARK    3  A    between atoms: S_6  and  N_9
REMARK    4  A    between atoms: N_9  and  C_14
REMARK    5  A    between atoms: C_19  and  C_20
REMARK    6  A    between atoms: C_20  and  C_23
REMARK                            x       y       z     vdW  Elec       q    Type
REMARK                         _______ _______ _______ _____ _____    ______ ____
ROOT
ATOM      1  S   UNL     1      -1.324  -1.759  -2.459  0.00  0.00    -0.082 S 
ATOM      2  C   UNL     1      -1.986  -1.628   0.020  0.00  0.00    +0.134 C 
ATOM      3  C   UNL     1      -1.047  -1.247  -0.871  0.00  0.00    +0.083 C 
ATOM      4  C   UNL     1      -3.005  -2.390  -0.621  0.00  0.00    +0.028 C 
ATOM      5  C   UNL     1      -2.769  -2.537  -1.970  0.00  0.00    +0.037 C 
ENDROOT
BRANCH   2   6
ATOM      6  S   UNL     1      -1.993  -1.269   1.699  0.00  0.00    +0.076 S 
ATOM      7  O   UNL     1      -0.631  -1.570   2.121  0.00  0.00    -0.150 OA
ATOM      8  O   UNL     1      -3.126  -2.011   2.238  0.00  0.00    -0.150 OA
BRANCH   6   9
ATOM      9  N   UNL     1      -2.304   0.424   1.904  0.00  0.00    -0.182 N 
ATOM     10  H   UNL     1      -1.847   0.977   2.578  0.00  0.00    +0.177 HD
BRANCH   9  14
ATOM     11 CL   UNL     1      -1.875   3.154   0.100  0.00  0.00    -0.076 Cl
ATOM     12  O   UNL     1      -4.518   0.387   0.777  0.00  0.00    -0.336 OA
ATOM     13  N   UNL     1      -5.219   1.145  -0.152  0.00  0.00    -0.079 NA
ATOM     14  C   UNL     1      -3.323   0.964   0.971  0.00  0.00    +0.255 A 
ATOM     15  C   UNL     1      -3.175   2.078   0.221  0.00  0.00    +0.127 A 
ATOM     16  C   UNL     1      -4.398   2.150  -0.470  0.00  0.00    +0.113 A 
ATOM     17  C   UNL     1      -4.837   3.160  -1.448  0.00  0.00    +0.057 C 
ENDBRANCH   9  14
ENDBRANCH   6   9
ENDBRANCH   2   6
BRANCH   3  19
ATOM     18  O   UNL     1       0.218   0.403   0.268  0.00  0.00    -0.290 OA
ATOM     19  C   UNL     1       0.166  -0.448  -0.623  0.00  0.00    +0.185 C 
BRANCH  19  20
ATOM     20  C   UNL     1       1.393  -0.693  -1.507  0.00  0.00    +0.096 C 
BRANCH  20  23
ATOM     21  O   UNL     1       5.074   2.355  -0.309  0.00  0.00    -0.435 OA
ATOM     22  O   UNL     1       6.248   0.655   0.931  0.00  0.00    -0.435 OA
ATOM     23  C   UNL     1       2.693  -0.386  -0.837  0.00  0.00    -0.015 C 
ATOM     24  C   UNL     1       3.378  -1.378  -0.114  0.00  0.00    -0.022 C 
ATOM     25  C   UNL     1       3.215   0.906  -0.942  0.00  0.00    +0.036 C 
ATOM     26  C   UNL     1       4.416   1.164  -0.315  0.00  0.00    +0.176 C 
ATOM     27  C   UNL     1       5.087   0.193   0.393  0.00  0.00    +0.176 C 
ATOM     28  C   UNL     1       4.593  -1.090   0.513  0.00  0.00    +0.036 C 
ATOM     29  C   UNL     1       2.818  -2.759   0.001  0.00  0.00    +0.031 C 
ATOM     30  C   UNL     1       6.234   2.026   0.483  0.00  0.00    +0.429 C 
ENDBRANCH  20  23
ENDBRANCH  19  20
ENDBRANCH   3  19
TORSDOF 6
