REMARK  Name = 11634458
REMARK  5 active torsions:
REMARK  status: ('A' for Active; 'I' for Inactive)
REMARK    1  A    between atoms: N_3  and  C_11
REMARK    2  A    between atoms: C_4  and  C_19
REMARK    3  A    between atoms: C_5  and  O_35
REMARK    4  A    between atoms: N_18  and  C_22
REMARK    5  A    between atoms: C_25  and  N_29
REMARK                            x       y       z     vdW  Elec       q    Type
REMARK                         _______ _______ _______ _____ _____    ______ ____
ROOT
ATOM      1  O   UNL     1      -4.996  -0.549   0.874  0.00  0.00    -0.252 OA
ATOM      2  N   UNL     1      -3.333  -1.818  -0.074  0.00  0.00    -0.255 N 
ATOM      3  N   UNL     1      -3.279   0.518  -0.287  0.00  0.00    -0.268 N 
ATOM      4  C   UNL     1      -2.196  -2.058  -0.961  0.00  0.00    +0.156 C 
ATOM      5  C   UNL     1      -2.924  -4.154  -0.026  0.00  0.00    +0.137 C 
ATOM      6  C   UNL     1      -2.232  -3.559  -1.250  0.00  0.00    +0.061 C 
ATOM      7  C   UNL     1      -3.912  -3.076   0.392  0.00  0.00    +0.125 C 
ATOM      8  C   UNL     1      -3.953  -0.594   0.219  0.00  0.00    +0.308 C 
ATOM      9  H   UNL     1      -2.455   0.331  -0.792  0.00  0.00    +0.156 HD
ENDROOT
BRANCH   3  11
ATOM     10 CL   UNL     1      -4.771   6.226   0.240  0.00  0.00    -0.082 Cl
ATOM     11  C   UNL     1      -3.636   1.883  -0.161  0.00  0.00    +0.052 C 
ATOM     12  C   UNL     1      -2.831   2.865  -0.732  0.00  0.00    +0.016 C 
ATOM     13  C   UNL     1      -4.790   2.236   0.534  0.00  0.00    +0.016 C 
ATOM     14  C   UNL     1      -3.182   4.210  -0.608  0.00  0.00    +0.013 C 
ATOM     15  C   UNL     1      -5.141   3.580   0.658  0.00  0.00    +0.013 C 
ATOM     16  C   UNL     1      -4.337   4.567   0.087  0.00  0.00    +0.058 C 
ENDBRANCH   3  11
BRANCH   4  19
ATOM     17  O   UNL     1      -0.871  -1.750   0.985  0.00  0.00    -0.273 OA
ATOM     18  N   UNL     1       0.045  -1.264  -1.127  0.00  0.00    -0.281 N 
ATOM     19  C   UNL     1      -0.938  -1.678  -0.238  0.00  0.00    +0.244 C 
ATOM     20  H   UNL     1      -0.199  -1.272  -2.081  0.00  0.00    +0.155 HD
BRANCH  18  22
ATOM     21  F   UNL     1       1.808  -0.488  -3.127  0.00  0.00    -0.203 F 
ATOM     22  C   UNL     1       1.357  -0.831  -0.821  0.00  0.00    +0.078 C 
ATOM     23  C   UNL     1       2.205  -0.452  -1.847  0.00  0.00    +0.155 C 
ATOM     24  C   UNL     1       1.764  -0.797   0.503  0.00  0.00    +0.018 C 
ATOM     25  C   UNL     1       3.924   0.013  -0.214  0.00  0.00    +0.061 C 
ATOM     26  C   UNL     1       3.498  -0.027  -1.542  0.00  0.00    +0.046 C 
ATOM     27  C   UNL     1       3.057  -0.372   0.808  0.00  0.00    +0.017 C 
BRANCH  25  29
ATOM     28  O   UNL     1       4.692   1.450   2.176  0.00  0.00    -0.269 OA
ATOM     29  N   UNL     1       5.269   0.455   0.103  0.00  0.00    -0.233 N 
ATOM     30  C   UNL     1       5.524   1.118   1.331  0.00  0.00    +0.257 C 
ATOM     31  C   UNL     1       6.313   0.253  -0.802  0.00  0.00    +0.072 C 
ATOM     32  C   UNL     1       6.945   1.497   1.600  0.00  0.00    +0.059 C 
ATOM     33  C   UNL     1       7.570   0.632  -0.552  0.00  0.00    +0.017 C 
ATOM     34  C   UNL     1       7.894   1.266   0.690  0.00  0.00    +0.006 C 
ENDBRANCH  25  29
ENDBRANCH  18  22
ENDBRANCH   4  19
BRANCH   5  35
ATOM     35  O   UNL     1      -1.968  -4.375   1.005  0.00  0.00    -0.352 OA
ATOM     36  C   UNL     1      -2.572  -4.930   2.165  0.00  0.00    +0.174 C 
ENDBRANCH   5  35
TORSDOF 5
