REMARK  Name = 12136798
REMARK  7 active torsions:
REMARK  status: ('A' for Active; 'I' for Inactive)
REMARK    1  A    between atoms: C_1  and  C_21
REMARK    2  A    between atoms: C_2  and  C_9
REMARK    3  A    between atoms: N_8  and  C_12
REMARK    4  A    between atoms: C_13  and  N_18
REMARK    5  A    between atoms: C_21  and  N_23
REMARK    6  A    between atoms: C_24  and  C_26
REMARK    7  A    between atoms: C_27  and  C_29
REMARK                            x       y       z     vdW  Elec       q    Type
REMARK                         _______ _______ _______ _____ _____    ______ ____
ROOT
ATOM      1  C   UNL     1       0.529   2.753  -0.217  0.00  0.00    -0.003 C 
ATOM      2  C   UNL     1      -2.013   1.756   0.303  0.00  0.00    +0.054 C 
ATOM      3  C   UNL     1      -0.101   1.950  -1.160  0.00  0.00    -0.002 C 
ATOM      4  C   UNL     1      -0.098   3.062   0.984  0.00  0.00    -0.002 C 
ATOM      5  C   UNL     1      -1.377   1.450  -0.900  0.00  0.00    +0.004 C 
ATOM      6  C   UNL     1      -1.374   2.562   1.245  0.00  0.00    +0.004 C 
ENDROOT
BRANCH   2   9
ATOM      7  O   UNL     1      -4.101   1.873   1.322  0.00  0.00    -0.270 OA
ATOM      8  N   UNL     1      -3.670   0.031  -0.066  0.00  0.00    -0.279 N 
ATOM      9  C   UNL     1      -3.343   1.233   0.576  0.00  0.00    +0.250 C 
ATOM     10  H   UNL     1      -2.963  -0.360  -0.629  0.00  0.00    +0.155 HD
BRANCH   8  12
ATOM     11  F   UNL     1      -8.439  -2.751   0.195  0.00  0.00    -0.204 F 
ATOM     12  C   UNL     1      -4.885  -0.696  -0.011  0.00  0.00    +0.064 C 
ATOM     13  C   UNL     1      -5.027  -1.877  -0.720  0.00  0.00    +0.057 C 
ATOM     14  C   UNL     1      -5.917  -0.192   0.765  0.00  0.00    +0.018 C 
ATOM     15  C   UNL     1      -6.233  -2.575  -0.650  0.00  0.00    +0.045 C 
ATOM     16  C   UNL     1      -7.122  -0.890   0.835  0.00  0.00    +0.031 C 
ATOM     17  C   UNL     1      -7.281  -2.081   0.127  0.00  0.00    +0.141 C 
BRANCH  13  18
ATOM     18  N   UNL     1      -3.980  -2.396  -1.513  0.00  0.00    -0.356 N 
ATOM     19  H   UNL     1      -3.123  -1.915  -1.572  0.00  0.00    +0.142 HD
ATOM     20  H   UNL     1      -4.106  -3.239  -2.006  0.00  0.00    +0.142 HD
ENDBRANCH  13  18
ENDBRANCH   8  12
ENDBRANCH   2   9
BRANCH   1  21
ATOM     21  C   UNL     1       1.902   3.292  -0.497  0.00  0.00    +0.117 C 
BRANCH  21  23
ATOM     22  O   UNL     1       3.162   1.145  -1.979  0.00  0.00    -0.270 OA
ATOM     23  N   UNL     1       2.940   2.398  -0.034  0.00  0.00    -0.297 N 
ATOM     24  C   UNL     1       3.482   1.397  -0.822  0.00  0.00    +0.246 C 
ATOM     25  H   UNL     1       3.277   2.507   0.885  0.00  0.00    +0.150 HD
BRANCH  24  26
ATOM     26  C   UNL     1       4.531   0.627  -0.095  0.00  0.00    +0.058 C 
ATOM     27  C   UNL     1       5.173  -0.376  -0.712  0.00  0.00    +0.006 C 
BRANCH  27  29
ATOM     28  N   UNL     1       7.300  -1.988   1.901  0.00  0.00    -0.242 NA
ATOM     29  C   UNL     1       6.232  -1.195  -0.095  0.00  0.00    +0.019 C 
ATOM     30  C   UNL     1       7.109  -1.907  -0.886  0.00  0.00    +0.003 C 
ATOM     31  C   UNL     1       6.352  -1.256   1.272  0.00  0.00    +0.099 C 
ATOM     32  C   UNL     1       8.098  -2.671  -0.276  0.00  0.00    +0.021 C 
ATOM     33  C   UNL     1       8.150  -2.678   1.108  0.00  0.00    +0.099 C 
ENDBRANCH  27  29
ENDBRANCH  24  26
ENDBRANCH  21  23
ENDBRANCH   1  21
TORSDOF 7
