REMARK  Name = 70177
REMARK  7 active torsions:
REMARK  status: ('A' for Active; 'I' for Inactive)
REMARK    1  A    between atoms: N_2  and  C_15
REMARK    2  A    between atoms: C_3  and  C_6
REMARK    3  A    between atoms: C_11  and  N_12
REMARK    4  A    between atoms: C_15  and  C_16
REMARK    5  A    between atoms: C_16  and  N_17
REMARK    6  A    between atoms: N_17  and  C_19
REMARK    7  A    between atoms: N_17  and  C_21
REMARK                            x       y       z     vdW  Elec       q    Type
REMARK                         _______ _______ _______ _____ _____    ______ ____
ROOT
ATOM      1  O   UNL     1       0.087   1.706  -0.472  0.00  0.00    -0.270 OA
ATOM      2  N   UNL     1      -0.560  -0.517  -0.615  0.00  0.00    -0.303 N 
ATOM      3  C   UNL     1       0.356   0.508  -0.413  0.00  0.00    +0.246 C 
ATOM      4  H   UNL     1      -0.249  -1.449  -0.546  0.00  0.00    +0.150 HD
ENDROOT
BRANCH   3   6
ATOM      5 CL   UNL     1       5.381   1.623  -0.630  0.00  0.00    -0.081 Cl
ATOM      6  C   UNL     1       1.753   0.091  -0.130  0.00  0.00    +0.054 C 
ATOM      7  C   UNL     1       2.785   0.943  -0.466  0.00  0.00    +0.017 C 
ATOM      8  C   UNL     1       1.975  -1.138   0.455  0.00  0.00    +0.006 C 
ATOM      9  C   UNL     1       4.097   0.549  -0.204  0.00  0.00    +0.071 C 
ATOM     10  C   UNL     1       3.287  -1.533   0.717  0.00  0.00    +0.015 C 
ATOM     11  C   UNL     1       4.348  -0.689   0.387  0.00  0.00    +0.052 C 
BRANCH  11  12
ATOM     12  N   UNL     1       5.666  -1.116   0.666  0.00  0.00    -0.356 N 
ATOM     13  H   UNL     1       6.429  -0.536   0.441  0.00  0.00    +0.142 HD
ATOM     14  H   UNL     1       5.821  -1.994   1.084  0.00  0.00    +0.142 HD
ENDBRANCH  11  12
ENDBRANCH   3   6
BRANCH   2  15
ATOM     15  C   UNL     1      -1.943  -0.274  -0.922  0.00  0.00    +0.067 C 
BRANCH  15  16
ATOM     16  C   UNL     1      -2.780  -0.180   0.345  0.00  0.00    -0.056 C 
BRANCH  16  17
ATOM     17  N   UNL     1      -4.177   0.097   0.013  0.00  0.00    +0.388 N 
ATOM     18  H   UNL     1      -4.220   0.980  -0.497  0.00  0.00    -0.080 HD
BRANCH  17  19
ATOM     19  C   UNL     1      -4.977   0.226   1.230  0.00  0.00    -0.077 C 
ATOM     20  C   UNL     1      -4.430   1.318   2.133  0.00  0.00    -0.025 C 
ENDBRANCH  17  19
BRANCH  17  21
ATOM     21  C   UNL     1      -4.717  -0.958  -0.845  0.00  0.00    -0.077 C 
ATOM     22  C   UNL     1      -6.150  -0.656  -1.251  0.00  0.00    -0.025 C 
ENDBRANCH  17  21
ENDBRANCH  16  17
ENDBRANCH  15  16
ENDBRANCH   2  15
TORSDOF 7
