REMARK  Name = 4826
REMARK  4 active torsions:
REMARK  status: ('A' for Active; 'I' for Inactive)
REMARK    1  A    between atoms: N_1  and  C_15
REMARK    2  A    between atoms: N_2  and  C_8
REMARK    3  A    between atoms: N_3  and  C_14
REMARK    4  A    between atoms: C_15  and  C_17
REMARK                            x       y       z     vdW  Elec       q    Type
REMARK                         _______ _______ _______ _____ _____    ______ ____
ROOT
ATOM      1  N   UNL     1       0.900   0.119   0.407  0.00  0.00    -0.241 NA
ATOM      2  N   UNL     1      -1.168  -1.083   0.258  0.00  0.00    -0.324 N 
ATOM      3  N   UNL     1       0.925  -2.213   0.155  0.00  0.00    -0.263 N 
ATOM      4  C   UNL     1       0.212  -0.967   0.306  0.00  0.00    +0.211 C 
ATOM      5  H   UNL     1      -1.515  -2.002   0.327  0.00  0.00    +0.169 HD
ATOM      6  H   UNL     1       1.854  -2.314   0.467  0.00  0.00    +0.181 HD
ENDROOT
BRANCH   2   8
ATOM      7  N   UNL     1      -4.095   1.910  -0.139  0.00  0.00    -0.242 NA
ATOM      8  C   UNL     1      -2.152  -0.077   0.124  0.00  0.00    +0.062 C 
ATOM      9  C   UNL     1      -3.459  -0.327   0.521  0.00  0.00    +0.038 C 
ATOM     10  C   UNL     1      -1.812   1.161  -0.404  0.00  0.00    +0.038 C 
ATOM     11  C   UNL     1      -4.386   0.692   0.370  0.00  0.00    +0.100 C 
ATOM     12  C   UNL     1      -2.812   2.113  -0.514  0.00  0.00    +0.100 C 
ENDBRANCH   2   8
BRANCH   3  14
ATOM     13  N   UNL     1      -0.290  -4.113  -0.931  0.00  0.00    -0.171 NA
ATOM     14  C   UNL     1       0.269  -3.229  -0.427  0.00  0.00    +0.184 C 
ENDBRANCH   3  14
BRANCH   1  15
ATOM     15  C   UNL     1       2.367  -0.012   0.360  0.00  0.00    +0.106 C 
ATOM     16  C   UNL     1       2.854  -0.327   1.774  0.00  0.00    +0.026 C 
BRANCH  15  17
ATOM     17  C   UNL     1       2.991   1.253  -0.305  0.00  0.00    +0.021 C 
ATOM     18  C   UNL     1       2.431   1.513  -1.716  0.00  0.00    +0.002 C 
ATOM     19  C   UNL     1       2.704   2.491   0.571  0.00  0.00    +0.002 C 
ATOM     20  C   UNL     1       4.522   1.097  -0.411  0.00  0.00    +0.002 C 
ENDBRANCH  15  17
ENDBRANCH   1  15
TORSDOF 4
