REMARK  Name = 193961
REMARK  11 active torsions:
REMARK  status: ('A' for Active; 'I' for Inactive)
REMARK    1  A    between atoms: C_1  and  C_2
REMARK    2  A    between atoms: C_1  and  C_17
REMARK    3  A    between atoms: C_1  and  C_30
REMARK    4  A    between atoms: C_2  and  N_4
REMARK    5  A    between atoms: C_17  and  C_18
REMARK    6  A    between atoms: C_18  and  O_19
REMARK    7  A    between atoms: O_19  and  C_21
REMARK    8  A    between atoms: C_21  and  C_22
REMARK    9  A    between atoms: C_22  and  N_23
REMARK   10  A    between atoms: C_22  and  C_27
REMARK   11  A    between atoms: C_30  and  O_31
REMARK                            x       y       z     vdW  Elec       q    Type
REMARK                         _______ _______ _______ _____ _____    ______ ____
ROOT
ATOM      1  C   UNL     1      -0.385   1.573   0.467  0.00  0.00    +0.049 C 
ENDROOT
BRANCH   1   2
ATOM      2  C   UNL     1       1.007   1.894   1.058  0.00  0.00    +0.078 C 
BRANCH   2   4
ATOM      3  O   UNL     1       5.440  -1.084  -1.523  0.00  0.00    -0.208 OA
ATOM      4  N   UNL     1       2.123   1.375   0.273  0.00  0.00    -0.232 NA
ATOM      5  N   UNL     1       2.466  -0.830   1.229  0.00  0.00    -0.279 N 
ATOM      6  N   UNL     1       3.736   1.308  -1.262  0.00  0.00    -0.241 NA
ATOM      7  N   UNL     1       4.254  -2.067   0.209  0.00  0.00    -0.301 NA
ATOM      8  N   UNL     1       2.976  -2.956   1.979  0.00  0.00    -0.320 N 
ATOM      9  C   UNL     1       2.720   0.179   0.392  0.00  0.00    +0.189 C 
ATOM     10  C   UNL     1       2.763   2.034  -0.739  0.00  0.00    +0.203 C 
ATOM     11  C   UNL     1       3.706   0.142  -0.549  0.00  0.00    +0.183 C 
ATOM     12  C   UNL     1       4.548  -1.029  -0.684  0.00  0.00    +0.224 C 
ATOM     13  C   UNL     1       3.280  -1.953   1.093  0.00  0.00    +0.245 C 
ATOM     14  H   UNL     1       1.749  -0.783   1.902  0.00  0.00    +0.152 HD
ATOM     15  H   UNL     1       2.243  -2.837   2.624  0.00  0.00    +0.146 HD
ATOM     16  H   UNL     1       3.492  -3.795   1.968  0.00  0.00    +0.146 HD
ENDBRANCH   2   4
ENDBRANCH   1   2
BRANCH   1  17
ATOM     17  C   UNL     1      -1.459   2.120   1.431  0.00  0.00    +0.051 C 
BRANCH  17  18
ATOM     18  C   UNL     1      -2.890   1.897   0.956  0.00  0.00    +0.208 C 
BRANCH  18  19
ATOM     19  O   UNL     1      -3.106   0.492   0.793  0.00  0.00    -0.450 OA
BRANCH  19  21
ATOM     20  O   UNL     1      -5.271   0.905   0.123  0.00  0.00    -0.252 OA
ATOM     21  C   UNL     1      -4.354   0.132   0.367  0.00  0.00    +0.296 C 
BRANCH  21  22
ATOM     22  C   UNL     1      -4.425  -1.382   0.239  0.00  0.00    +0.036 C 
BRANCH  22  23
ATOM     23  N   UNL     1      -5.798  -1.752  -0.106  0.00  0.00    +0.389 N 
ATOM     24  H   UNL     1      -5.865  -2.766  -0.196  0.00  0.00    -0.088 HD
ATOM     25  H   UNL     1      -6.056  -1.315  -0.990  0.00  0.00    -0.088 HD
ATOM     26  H   UNL     1      -6.431  -1.434   0.628  0.00  0.00    -0.088 HD
ENDBRANCH  22  23
BRANCH  22  27
ATOM     27  C   UNL     1      -3.383  -1.924  -0.768  0.00  0.00    -0.010 C 
ATOM     28  C   UNL     1      -3.393  -3.452  -0.900  0.00  0.00    -0.002 C 
ATOM     29  C   UNL     1      -3.562  -1.285  -2.149  0.00  0.00    -0.002 C 
ENDBRANCH  22  27
ENDBRANCH  21  22
ENDBRANCH  19  21
ENDBRANCH  18  19
ENDBRANCH  17  18
ENDBRANCH   1  17
BRANCH   1  30
ATOM     30  C   UNL     1      -0.544   2.122  -0.961  0.00  0.00    +0.139 C 
BRANCH  30  31
ATOM     31  O   UNL     1      -0.450   3.539  -0.969  0.00  0.00    -0.382 OA
ATOM     32  H   UNL     1      -0.552   3.864  -1.877  0.00  0.00    +0.210 HD
ENDBRANCH  30  31
ENDBRANCH   1  30
TORSDOF 11
