REMARK  Name = 5327159
REMARK  3 active torsions:
REMARK  status: ('A' for Active; 'I' for Inactive)
REMARK    1  A    between atoms: C_1  and  C_9
REMARK    2  A    between atoms: C_4  and  C_16
REMARK    3  A    between atoms: C_16  and  O_17
REMARK                            x       y       z     vdW  Elec       q    Type
REMARK                         _______ _______ _______ _____ _____    ______ ____
ROOT
ATOM      1  C   UNL     1      -0.137   0.000   0.012  0.00  0.00    +0.004 C 
ATOM      2  C   UNL     1       0.569  -0.001  -1.191  0.00  0.00    +0.000 C 
ATOM      3  C   UNL     1       0.552   0.001   1.225  0.00  0.00    +0.000 C 
ATOM      4  C   UNL     1       2.653   0.000   0.032  0.00  0.00    +0.075 C 
ATOM      5  C   UNL     1       1.964  -0.001  -1.181  0.00  0.00    +0.006 C 
ATOM      6  C   UNL     1       1.947   0.001   1.235  0.00  0.00    +0.006 C 
ENDROOT
BRANCH   1   9
ATOM      7  F   UNL     1      -1.625  -2.377   0.003  0.00  0.00    -0.204 F 
ATOM      8  F   UNL     1      -1.627   2.378   0.002  0.00  0.00    -0.204 F 
ATOM      9  C   UNL     1      -1.584   0.000   0.003  0.00  0.00    +0.055 C 
ATOM     10  C   UNL     1      -2.281  -1.208  -0.001  0.00  0.00    +0.142 C 
ATOM     11  C   UNL     1      -2.282   1.208  -0.004  0.00  0.00    +0.142 C 
ATOM     12  C   UNL     1      -3.676  -1.208  -0.011  0.00  0.00    +0.030 C 
ATOM     13  C   UNL     1      -3.677   1.208  -0.013  0.00  0.00    +0.030 C 
ATOM     14  C   UNL     1      -4.374  -0.001  -0.017  0.00  0.00    +0.005 C 
ENDBRANCH   1   9
BRANCH   4  16
ATOM     15  O   UNL     1       4.793   0.001   1.063  0.00  0.00    -0.245 OA
ATOM     16  C   UNL     1       4.107   0.000   0.043  0.00  0.00    +0.338 C 
BRANCH  16  17
ATOM     17  O   UNL     1       4.677   0.000  -1.197  0.00  0.00    -0.477 OA
ATOM     18  H   UNL     1       4.136  -0.001  -1.962  0.00  0.00    +0.295 HD
ENDBRANCH  16  17
ENDBRANCH   4  16
TORSDOF 3
