9905633
  -OEChem-06121800463D

 44 46  0     0  0  0  0  0  0999 V2000
   -2.7592    0.1107    2.0926 O   0  0  0  0  0  0  0  0  0  0  0  0
    1.2360   -2.8026   -1.5073 O   0  0  0  0  0  0  0  0  0  0  0  0
    1.8476    3.6208    0.1698 O   0  0  0  0  0  0  0  0  0  0  0  0
   -2.9888    0.6126   -0.1959 N   0  0  0  0  0  0  0  0  0  0  0  0
   -0.6062   -2.1294   -0.2596 N   0  0  0  0  0  0  0  0  0  0  0  0
    2.3789   -0.7478    1.1561 N   0  0  0  0  0  0  0  0  0  0  0  0
    2.6655   -0.1272   -1.1765 N   0  0  0  0  0  0  0  0  0  0  0  0
    1.9235    1.2796    1.9650 N   0  0  0  0  0  0  0  0  0  0  0  0
    2.3634    2.2231   -1.6090 N   0  0  0  0  0  0  0  0  0  0  0  0
   -4.0705    0.9267   -1.0989 C   0  0  0  0  0  0  0  0  0  0  0  0
   -5.2843    0.3563   -0.3930 C   0  0  0  0  0  0  0  0  0  0  0  0
   -1.6052    0.7101   -0.6077 C   0  0  0  0  0  0  0  0  0  0  0  0
   -4.9351    0.4706    1.0860 C   0  0  0  0  0  0  0  0  0  0  0  0
   -3.4292    0.3496    1.0991 C   0  0  0  0  0  0  0  0  0  0  0  0
   -1.2585   -0.2623   -1.7332 C   0  0  0  0  0  0  0  0  0  0  0  0
   -1.4434   -1.7309   -1.3577 C   0  0  0  0  0  0  0  0  0  0  0  0
    2.6130   -2.1872    1.1370 C   0  0  0  0  0  0  0  0  0  0  0  0
    1.3280   -2.9754    0.9038 C   0  0  0  0  0  0  0  0  0  0  0  0
    0.6782   -2.6379   -0.4258 C   0  0  0  0  0  0  0  0  0  0  0  0
    2.4160    0.1012    0.1165 C   0  0  0  0  0  0  0  0  0  0  0  0
    2.1363    1.3421    0.6167 C   0  0  0  0  0  0  0  0  0  0  0  0
    2.0781   -0.0002    2.2608 C   0  0  0  0  0  0  0  0  0  0  0  0
    2.0966    2.5010   -0.2599 C   0  0  0  0  0  0  0  0  0  0  0  0
    2.6194    0.9966   -1.9788 C   0  0  0  0  0  0  0  0  0  0  0  0
   -4.1311    2.0154   -1.1978 H   0  0  0  0  0  0  0  0  0  0  0  0
   -3.9310    0.4717   -2.0816 H   0  0  0  0  0  0  0  0  0  0  0  0
   -6.2113    0.8743   -0.6541 H   0  0  0  0  0  0  0  0  0  0  0  0
   -5.4033   -0.7021   -0.6572 H   0  0  0  0  0  0  0  0  0  0  0  0
   -0.9600    0.5415    0.2607 H   0  0  0  0  0  0  0  0  0  0  0  0
   -1.4342    1.7398   -0.9418 H   0  0  0  0  0  0  0  0  0  0  0  0
   -5.2128    1.4497    1.4885 H   0  0  0  0  0  0  0  0  0  0  0  0
   -5.3979   -0.3240    1.6760 H   0  0  0  0  0  0  0  0  0  0  0  0
   -0.2148   -0.0941   -2.0222 H   0  0  0  0  0  0  0  0  0  0  0  0
   -1.8583   -0.0463   -2.6240 H   0  0  0  0  0  0  0  0  0  0  0  0
   -2.4803   -1.9379   -1.0737 H   0  0  0  0  0  0  0  0  0  0  0  0
   -1.2092   -2.3572   -2.2258 H   0  0  0  0  0  0  0  0  0  0  0  0
   -0.9835   -2.0172    0.6764 H   0  0  0  0  0  0  0  0  0  0  0  0
    3.0616   -2.4588    2.0991 H   0  0  0  0  0  0  0  0  0  0  0  0
    3.3537   -2.3898    0.3554 H   0  0  0  0  0  0  0  0  0  0  0  0
    0.6324   -2.8034    1.7333 H   0  0  0  0  0  0  0  0  0  0  0  0
    1.5498   -4.0488    0.8948 H   0  0  0  0  0  0  0  0  0  0  0  0
    1.9820   -0.4309    3.2483 H   0  0  0  0  0  0  0  0  0  0  0  0
    2.8753   -1.0416   -1.5627 H   0  0  0  0  0  0  0  0  0  0  0  0
    2.8284    0.7695   -3.0360 H   0  0  0  0  0  0  0  0  0  0  0  0
  1 14  2  0  0  0  0
  2 19  2  0  0  0  0
  3 23  2  0  0  0  0
  4 10  1  0  0  0  0
  4 12  1  0  0  0  0
  4 14  1  0  0  0  0
  5 16  1  0  0  0  0
  5 19  1  0  0  0  0
  5 37  1  0  0  0  0
  6 17  1  0  0  0  0
  6 20  1  0  0  0  0
  6 22  1  0  0  0  0
  7 20  1  0  0  0  0
  7 24  1  0  0  0  0
  7 43  1  0  0  0  0
  8 21  1  0  0  0  0
  8 22  2  0  0  0  0
  9 23  1  0  0  0  0
  9 24  2  0  0  0  0
 10 11  1  0  0  0  0
 10 25  1  0  0  0  0
 10 26  1  0  0  0  0
 11 13  1  0  0  0  0
 11 27  1  0  0  0  0
 11 28  1  0  0  0  0
 12 15  1  0  0  0  0
 12 29  1  0  0  0  0
 12 30  1  0  0  0  0
 13 14  1  0  0  0  0
 13 31  1  0  0  0  0
 13 32  1  0  0  0  0
 15 16  1  0  0  0  0
 15 33  1  0  0  0  0
 15 34  1  0  0  0  0
 16 35  1  0  0  0  0
 16 36  1  0  0  0  0
 17 18  1  0  0  0  0
 17 38  1  0  0  0  0
 17 39  1  0  0  0  0
 18 19  1  0  0  0  0
 18 40  1  0  0  0  0
 18 41  1  0  0  0  0
 20 21  2  0  0  0  0
 21 23  1  0  0  0  0
 22 42  1  0  0  0  0
 24 44  1  0  0  0  0
M  END
> <DATABASE_ID>
DB06106

> <DATABASE_NAME>
drugbank

> <ORIGINAL_SOURCE>
PUBCHEM

> <ORIGINAL_SOURCE_URL>
https://pubchem.ncbi.nlm.nih.gov/rest/pug/compound/inchikey/FBVDVFULNXWYRF-UHFFFAOYSA-N/SDF?record_type=3d

> <SMILES>
O=C(CCN1C=NC2=C1NC=NC2=O)NCCCN1CCCC1=O

> <INCHI_IDENTIFIER>
InChI=1S/C15H20N6O3/c22-11(16-5-2-7-20-6-1-3-12(20)23)4-8-21-10-19-13-14(21)17-9-18-15(13)24/h9-10H,1-8H2,(H,16,22)(H,17,18,24)

> <INCHI_KEY>
FBVDVFULNXWYRF-UHFFFAOYSA-N

> <FORMULA>
C15H20N6O3

> <MOLECULAR_WEIGHT>
332.364

> <EXACT_MASS>
332.159688528

> <JCHEM_ACCEPTOR_COUNT>
6

> <JCHEM_ATOM_COUNT>
44

> <JCHEM_AVERAGE_POLARIZABILITY>
34.24680836674569

> <JCHEM_BIOAVAILABILITY>
1

> <JCHEM_DONOR_COUNT>
2

> <JCHEM_FORMAL_CHARGE>
0

> <JCHEM_GHOSE_FILTER>
0

> <JCHEM_IUPAC>
3-(6-oxo-6,9-dihydro-3H-purin-9-yl)-N-[3-(2-oxopyrrolidin-1-yl)propyl]propanamide

> <ALOGPS_LOGP>
-0.54

> <JCHEM_LOGP>
-1.5130689693333332

> <ALOGPS_LOGS>
-2.07

> <JCHEM_MDDR_LIKE_RULE>
1

> <JCHEM_NUMBER_OF_RINGS>
3

> <JCHEM_PHYSIOLOGICAL_CHARGE>
0

> <JCHEM_PKA>
15.16394792453437

> <JCHEM_PKA_STRONGEST_ACIDIC>
10.964455649338323

> <JCHEM_PKA_STRONGEST_BASIC>
2.987090651144212

> <JCHEM_POLAR_SURFACE_AREA>
108.69

> <JCHEM_REFRACTIVITY>
86.7527

> <JCHEM_ROTATABLE_BOND_COUNT>
7

> <JCHEM_RULE_OF_FIVE>
1

> <ALOGPS_SOLUBILITY>
2.80e+00 g/l

> <JCHEM_TRADITIONAL_IUPAC>
3-(6-oxo-3H-purin-9-yl)-N-[3-(2-oxopyrrolidin-1-yl)propyl]propanamide

> <JCHEM_VEBER_RULE>
0

> <DRUGBANK_ID>
DB06106

> <DRUG_GROUPS>
investigational

> <GENERIC_NAME>
AIT-034

$$$$
