REMARK  Name = 11143173
REMARK  9 active torsions:
REMARK  status: ('A' for Active; 'I' for Inactive)
REMARK    1  A    between atoms: C_1  and  C_4
REMARK    2  A    between atoms: C_1  and  C_17
REMARK    3  A    between atoms: C_1  and  C_26
REMARK    4  A    between atoms: N_3  and  C_6
REMARK    5  A    between atoms: C_7  and  O_15
REMARK    6  A    between atoms: C_17  and  C_18
REMARK    7  A    between atoms: C_21  and  O_24
REMARK    8  A    between atoms: C_26  and  C_29
REMARK    9  A    between atoms: N_28  and  O_31
REMARK                            x       y       z     vdW  Elec       q    Type
REMARK                         _______ _______ _______ _____ _____    ______ ____
ROOT
ATOM      1  C   UNL     1      -1.385  -1.868   0.204  0.00  0.00    +0.090 C 
ENDROOT
BRANCH   1   4
ATOM      2  O   UNL     1      -0.477  -1.097   2.318  0.00  0.00    -0.275 OA
ATOM      3  N   UNL     1       0.424  -0.257   0.350  0.00  0.00    -0.300 N 
ATOM      4  C   UNL     1      -0.448  -1.042   1.091  0.00  0.00    +0.223 C 
ATOM      5  H   UNL     1       0.362  -0.288  -0.632  0.00  0.00    +0.150 HD
BRANCH   3   6
ATOM      6  C   UNL     1       1.412   0.597   0.945  0.00  0.00    +0.121 C 
ATOM      7  C   UNL     1       0.914   2.036   1.203  0.00  0.00    +0.137 C 
ATOM      8  C   UNL     1       2.165   2.934   1.170  0.00  0.00    +0.057 C 
ATOM      9  C   UNL     1       2.611   0.850   0.078  0.00  0.00    -0.006 C 
ATOM     10  C   UNL     1       3.042   2.177   0.216  0.00  0.00    -0.022 C 
ATOM     11  C   UNL     1       3.308  -0.041  -0.724  0.00  0.00    -0.003 C 
ATOM     12  C   UNL     1       4.167   2.638  -0.446  0.00  0.00    -0.004 C 
ATOM     13  C   UNL     1       4.436   0.420  -1.406  0.00  0.00    -0.000 C 
ATOM     14  C   UNL     1       4.863   1.750  -1.268  0.00  0.00    -0.000 C 
BRANCH   7  15
ATOM     15  O   UNL     1       0.025   2.448   0.162  0.00  0.00    -0.382 OA
ATOM     16  H   UNL     1      -0.767   1.889   0.173  0.00  0.00    +0.210 HD
ENDBRANCH   7  15
ENDBRANCH   3   6
ENDBRANCH   1   4
BRANCH   1  17
ATOM     17  C   UNL     1      -2.853  -1.464   0.458  0.00  0.00    +0.036 C 
BRANCH  17  18
ATOM     18  C   UNL     1      -3.242  -0.150  -0.173  0.00  0.00    -0.019 C 
ATOM     19  C   UNL     1      -3.083   1.024   0.548  0.00  0.00    +0.032 C 
ATOM     20  C   UNL     1      -3.752  -0.139  -1.462  0.00  0.00    -0.004 C 
ATOM     21  C   UNL     1      -3.443   2.239  -0.036  0.00  0.00    +0.133 C 
ATOM     22  C   UNL     1      -4.111   1.076  -2.045  0.00  0.00    +0.003 C 
ATOM     23  C   UNL     1      -3.957   2.265  -1.333  0.00  0.00    +0.037 C 
BRANCH  21  24
ATOM     24  O   UNL     1      -3.292   3.399   0.659  0.00  0.00    -0.506 OA
ATOM     25  H   UNL     1      -2.947   3.382   1.530  0.00  0.00    +0.292 HD
ENDBRANCH  21  24
ENDBRANCH  17  18
ENDBRANCH   1  17
BRANCH   1  26
ATOM     26  C   UNL     1      -1.139  -3.367   0.467  0.00  0.00    +0.097 C 
BRANCH  26  29
ATOM     27  O   UNL     1       1.147  -3.799   1.145  0.00  0.00    -0.273 OA
ATOM     28  N   UNL     1       0.531  -4.197  -1.043  0.00  0.00    -0.197 N 
ATOM     29  C   UNL     1       0.305  -3.796   0.251  0.00  0.00    +0.245 C 
ATOM     30  H   UNL     1      -0.176  -4.177  -1.727  0.00  0.00    +0.182 HD
BRANCH  28  31
ATOM     31  O   UNL     1       1.830  -4.636  -1.329  0.00  0.00    -0.295 OA
ATOM     32  H   UNL     1       1.886  -4.895  -2.263  0.00  0.00    +0.241 HD
ENDBRANCH  28  31
ENDBRANCH  26  29
ENDBRANCH   1  26
TORSDOF 9
