REMARK  Name = 9909368
REMARK  3 active torsions:
REMARK  status: ('A' for Active; 'I' for Inactive)
REMARK    1  A    between atoms: C_12  and  C_24
REMARK    2  A    between atoms: C_13  and  O_28
REMARK    3  A    between atoms: C_18  and  O_30
REMARK                            x       y       z     vdW  Elec       q    Type
REMARK                         _______ _______ _______ _____ _____    ______ ____
ROOT
ATOM      1  O   UNL     1      -0.362   0.461  -1.662  0.00  0.00    -0.312 OA
ATOM      2  O   UNL     1       0.405   2.719   0.746  0.00  0.00    -0.451 OA
ATOM      3  O   UNL     1       0.124  -1.859  -1.532  0.00  0.00    -0.423 OA
ATOM      4  O   UNL     1      -3.311  -0.482   1.627  0.00  0.00    -0.450 OA
ATOM      5  O   UNL     1      -0.590   3.286  -1.229  0.00  0.00    -0.247 OA
ATOM      6  O   UNL     1       0.232  -3.739  -0.222  0.00  0.00    -0.247 OA
ATOM      7  O   UNL     1      -4.808  -1.593   0.297  0.00  0.00    -0.250 OA
ATOM      8  C   UNL     1       0.122   0.345   0.684  0.00  0.00    +0.084 C 
ATOM      9  C   UNL     1       1.253  -0.365  -0.090  0.00  0.00    +0.106 C 
ATOM     10  C   UNL     1      -0.728   1.004  -0.402  0.00  0.00    +0.214 C 
ATOM     11  C   UNL     1       0.752   1.514   1.443  0.00  0.00    +0.172 C 
ATOM     12  C   UNL     1       2.425   0.653  -0.035  0.00  0.00    +0.013 C 
ATOM     13  C   UNL     1      -2.208   0.782  -0.029  0.00  0.00    +0.167 C 
ATOM     14  C   UNL     1      -0.865  -0.451   1.542  0.00  0.00    +0.053 C 
ATOM     15  C   UNL     1       0.663  -0.527  -1.483  0.00  0.00    +0.293 C 
ATOM     16  C   UNL     1       2.256   1.299   1.342  0.00  0.00    +0.044 C 
ATOM     17  C   UNL     1      -2.164   0.343   1.426  0.00  0.00    +0.197 C 
ATOM     18  C   UNL     1       1.611  -1.798   0.277  0.00  0.00    +0.216 C 
ATOM     19  C   UNL     1      -0.315   2.454  -0.377  0.00  0.00    +0.344 C 
ATOM     20  C   UNL     1      -2.941  -0.382  -0.701  0.00  0.00    +0.130 C 
ATOM     21  C   UNL     1       0.588  -2.600  -0.481  0.00  0.00    +0.346 C 
ATOM     22  C   UNL     1      -3.818  -0.888   0.422  0.00  0.00    +0.319 C 
ATOM     23  C   UNL     1      -3.749  -0.017  -1.935  0.00  0.00    +0.014 C 
ENDROOT
BRANCH  12  24
ATOM     24  C   UNL     1       3.834   0.115  -0.239  0.00  0.00    +0.000 C 
ATOM     25  C   UNL     1       4.858   1.254  -0.078  0.00  0.00    +0.000 C 
ATOM     26  C   UNL     1       4.134  -0.980   0.801  0.00  0.00    +0.000 C 
ATOM     27  C   UNL     1       3.968  -0.483  -1.651  0.00  0.00    +0.000 C 
ENDBRANCH  12  24
BRANCH  13  28
ATOM     28  O   UNL     1      -2.982   1.973  -0.117  0.00  0.00    -0.380 OA
ATOM     29  H   UNL     1      -2.505   2.701   0.312  0.00  0.00    +0.211 HD
ENDBRANCH  13  28
BRANCH  18  30
ATOM     30  O   UNL     1       1.614  -2.038   1.657  0.00  0.00    -0.374 OA
ATOM     31  H   UNL     1       2.294  -1.490   2.079  0.00  0.00    +0.211 HD
ENDBRANCH  18  30
TORSDOF 3
