REMARK  Name = 1712
REMARK  5 active torsions:
REMARK  status: ('A' for Active; 'I' for Inactive)
REMARK    1  A    between atoms: C_1  and  N_18
REMARK    2  A    between atoms: C_2  and  S_7
REMARK    3  A    between atoms: S_7  and  N_10
REMARK    4  A    between atoms: N_18  and  C_20
REMARK    5  A    between atoms: C_20  and  C_26
REMARK                            x       y       z     vdW  Elec       q    Type
REMARK                         _______ _______ _______ _____ _____    ______ ____
ROOT
ATOM      1  C   UNL     1       0.526  -1.382  -0.305  0.00  0.00    +0.045 C 
ATOM      2  C   UNL     1       3.336  -1.421  -0.444  0.00  0.00    +0.125 C 
ATOM      3  C   UNL     1       1.308  -1.089   0.827  0.00  0.00    +0.016 C 
ATOM      4  C   UNL     1       1.184  -1.696  -1.508  0.00  0.00    +0.016 C 
ATOM      5  C   UNL     1       2.701  -1.108   0.758  0.00  0.00    +0.021 C 
ATOM      6  C   UNL     1       2.577  -1.715  -1.577  0.00  0.00    +0.021 C 
ENDROOT
BRANCH   2   7
ATOM      7  S   UNL     1       5.079  -1.446  -0.530  0.00  0.00    +0.075 S 
ATOM      8  O   UNL     1       5.458  -2.318  -1.636  0.00  0.00    -0.150 OA
ATOM      9  O   UNL     1       5.608  -1.727   0.799  0.00  0.00    -0.150 OA
BRANCH   7  10
ATOM     10  N   UNL     1       5.463   0.175  -0.972  0.00  0.00    -0.199 N 
ATOM     11  H   UNL     1       6.047   0.365  -1.741  0.00  0.00    +0.175 HD
ATOM     12  N   UNL     1       5.361   1.334   1.080  0.00  0.00    -0.228 NA
ATOM     13  C   UNL     1       4.905   1.241  -0.184  0.00  0.00    +0.147 C 
ATOM     14  C   UNL     1       3.965   2.082  -0.747  0.00  0.00    +0.036 C 
ATOM     15  C   UNL     1       3.453   3.099   0.051  0.00  0.00    +0.005 C 
ATOM     16  C   UNL     1       4.840   2.334   1.826  0.00  0.00    +0.100 C 
ATOM     17  C   UNL     1       3.894   3.234   1.363  0.00  0.00    +0.021 C 
ENDBRANCH   7  10
ENDBRANCH   2   7
BRANCH   1  18
ATOM     18  N   UNL     1      -0.859  -1.362  -0.237  0.00  0.00    -0.328 N 
ATOM     19  H   UNL     1      -1.367  -1.573  -1.054  0.00  0.00    +0.147 HD
BRANCH  18  20
ATOM     20  C   UNL     1      -1.599  -1.048   0.960  0.00  0.00    +0.127 C 
BRANCH  20  26
ATOM     21  S   UNL     1      -2.579   2.250  -0.126  0.00  0.00    -0.104 S 
ATOM     22  O   UNL     1      -3.324  -3.413   1.235  0.00  0.00    -0.210 OA
ATOM     23  N   UNL     1      -5.141  -2.147   0.514  0.00  0.00    -0.333 NA
ATOM     24  N   UNL     1      -4.894   3.165  -0.856  0.00  0.00    -0.262 NA
ATOM     25  C   UNL     1      -3.931  -0.190   0.243  0.00  0.00    +0.033 C 
ATOM     26  C   UNL     1      -3.052  -1.094   0.669  0.00  0.00    +0.092 C 
ATOM     27  C   UNL     1      -5.215  -0.905   0.166  0.00  0.00    +0.142 C 
ATOM     28  C   UNL     1      -3.891   1.167  -0.112  0.00  0.00    +0.114 C 
ATOM     29  C   UNL     1      -3.820  -2.364   0.849  0.00  0.00    +0.202 C 
ATOM     30  C   UNL     1      -5.028   1.840  -0.530  0.00  0.00    +0.069 C 
ATOM     31  C   UNL     1      -6.412  -0.147  -0.288  0.00  0.00    +0.034 C 
ATOM     32  C   UNL     1      -6.283   1.156  -0.609  0.00  0.00    +0.018 C 
ATOM     33  C   UNL     1      -3.632   3.495  -0.679  0.00  0.00    +0.183 C 
ENDBRANCH  20  26
ENDBRANCH  18  20
ENDBRANCH   1  18
TORSDOF 5
