REMARK  Name = 204105
REMARK  6 active torsions:
REMARK  status: ('A' for Active; 'I' for Inactive)
REMARK    1  A    between atoms: C_3  and  C_27
REMARK    2  A    between atoms: C_8  and  C_13
REMARK    3  A    between atoms: C_10  and  O_23
REMARK    4  A    between atoms: C_11  and  O_25
REMARK    5  A    between atoms: C_16  and  O_19
REMARK    6  A    between atoms: C_18  and  O_21
REMARK                            x       y       z     vdW  Elec       q    Type
REMARK                         _______ _______ _______ _____ _____    ______ ____
ROOT
ATOM      1  N   UNL     1      -1.405   3.030  -1.217  0.00  0.00    -0.156 NA
ATOM      2  N   UNL     1      -0.142   2.514  -0.973  0.00  0.00    -0.149 NA
ATOM      3  C   UNL     1      -2.313   1.969   0.870  0.00  0.00    +0.060 C 
ATOM      4  C   UNL     1      -2.084   0.558   0.385  0.00  0.00    -0.012 C 
ATOM      5  C   UNL     1      -0.996   0.240  -0.442  0.00  0.00    +0.019 C 
ATOM      6  C   UNL     1      -2.356   2.875  -0.349  0.00  0.00    +0.062 C 
ATOM      7  C   UNL     1      -3.011  -0.449   0.695  0.00  0.00    +0.036 C 
ATOM      8  C   UNL     1       0.053   1.259  -0.699  0.00  0.00    +0.103 C 
ATOM      9  C   UNL     1      -0.854  -1.052  -0.967  0.00  0.00    +0.041 C 
ATOM     10  C   UNL     1      -2.862  -1.738   0.182  0.00  0.00    +0.172 C 
ATOM     11  C   UNL     1      -1.789  -2.037  -0.654  0.00  0.00    +0.172 C 
ATOM     12  C   UNL     1      -3.662   3.583  -0.626  0.00  0.00    +0.049 C 
ENDROOT
BRANCH   8  13
ATOM     13  C   UNL     1       1.480   0.835  -0.567  0.00  0.00    +0.023 C 
ATOM     14  C   UNL     1       1.815  -0.169   0.332  0.00  0.00    +0.042 C 
ATOM     15  C   UNL     1       2.452   1.451  -1.343  0.00  0.00    +0.005 C 
ATOM     16  C   UNL     1       3.147  -0.564   0.456  0.00  0.00    +0.172 C 
ATOM     17  C   UNL     1       3.784   1.057  -1.219  0.00  0.00    +0.040 C 
ATOM     18  C   UNL     1       4.131   0.049  -0.319  0.00  0.00    +0.172 C 
BRANCH  16  19
ATOM     19  O   UNL     1       3.475  -1.549   1.338  0.00  0.00    -0.468 OA
ATOM     20  C   UNL     1       3.458  -2.889   0.849  0.00  0.00    +0.253 C 
ENDBRANCH  16  19
BRANCH  18  21
ATOM     21  O   UNL     1       5.436  -0.328  -0.207  0.00  0.00    -0.468 OA
ATOM     22  C   UNL     1       6.230   0.363   0.755  0.00  0.00    +0.253 C 
ENDBRANCH  18  21
ENDBRANCH   8  13
BRANCH  10  23
ATOM     23  O   UNL     1      -3.780  -2.693   0.499  0.00  0.00    -0.468 OA
ATOM     24  C   UNL     1      -4.912  -2.815  -0.361  0.00  0.00    +0.253 C 
ENDBRANCH  10  23
BRANCH  11  25
ATOM     25  O   UNL     1      -1.638  -3.290  -1.165  0.00  0.00    -0.468 OA
ATOM     26  C   UNL     1      -0.870  -4.215  -0.398  0.00  0.00    +0.253 C 
ENDBRANCH  11  25
BRANCH   3  27
ATOM     27  C   UNL     1      -1.359   2.447   1.959  0.00  0.00    +0.010 C 
ATOM     28  C   UNL     1      -1.427   1.558   3.187  0.00  0.00    +0.001 C 
ENDBRANCH   3  27
TORSDOF 6
