REMARK  Name = 11243969
REMARK  5 active torsions:
REMARK  status: ('A' for Active; 'I' for Inactive)
REMARK    1  A    between atoms: C_1  and  C_2
REMARK    2  A    between atoms: C_1  and  C_20
REMARK    3  A    between atoms: C_1  and  N_24
REMARK    4  A    between atoms: C_3  and  O_12
REMARK    5  A    between atoms: C_21  and  C_23
REMARK                            x       y       z     vdW  Elec       q    Type
REMARK                         _______ _______ _______ _____ _____    ______ ____
ROOT
ATOM      1  C   UNL     1      -0.061  -1.588   0.108  0.00  0.00    +0.013 C 
ENDROOT
BRANCH   1   2
ATOM      2  C   UNL     1       1.234  -0.772   0.077  0.00  0.00    -0.008 C 
ATOM      3  C   UNL     1       2.276   1.485   0.560  0.00  0.00    +0.088 C 
ATOM      4  C   UNL     1       3.611  -0.615   0.945  0.00  0.00    +0.002 C 
ATOM      5  C   UNL     1       3.082   0.133  -1.405  0.00  0.00    +0.002 C 
ATOM      6  C   UNL     1       0.976   0.663   0.591  0.00  0.00    +0.025 C 
ATOM      7  C   UNL     1       2.308  -1.433   0.974  0.00  0.00    -0.001 C 
ATOM      8  C   UNL     1       1.780  -0.688  -1.369  0.00  0.00    -0.001 C 
ATOM      9  C   UNL     1       3.327   0.806   1.455  0.00  0.00    +0.027 C 
ATOM     10  C   UNL     1       2.800   1.551  -0.885  0.00  0.00    +0.027 C 
ATOM     11  C   UNL     1       4.130  -0.539  -0.501  0.00  0.00    +0.000 C 
BRANCH   3  12
ATOM     12  O   UNL     1       2.026   2.805   1.021  0.00  0.00    -0.387 OA
ATOM     13  H   UNL     1       1.695   2.772   1.932  0.00  0.00    +0.210 HD
ENDBRANCH   3  12
ENDBRANCH   1   2
BRANCH   1  20
ATOM     14  O   UNL     1      -0.892  -0.776  -1.971  0.00  0.00    -0.277 OA
ATOM     15  N   UNL     1      -2.271  -0.561  -0.126  0.00  0.00    -0.272 N 
ATOM     16  C   UNL     1      -2.583  -0.764   1.265  0.00  0.00    +0.076 C 
ATOM     17  C   UNL     1      -4.015  -0.379   1.502  0.00  0.00    +0.023 C 
ATOM     18  C   UNL     1      -2.912   0.379   2.186  0.00  0.00    +0.022 C 
ATOM     19  C   UNL     1      -4.592   0.026   0.173  0.00  0.00    +0.037 C 
ATOM     20  C   UNL     1      -1.103  -0.939  -0.768  0.00  0.00    +0.206 C 
ATOM     21  C   UNL     1      -3.405   0.085  -0.817  0.00  0.00    +0.167 C 
BRANCH  21  23
ATOM     22  N   UNL     1      -2.817   2.572  -1.444  0.00  0.00    -0.194 NA
ATOM     23  C   UNL     1      -3.076   1.476  -1.168  0.00  0.00    +0.093 C 
ENDBRANCH  21  23
ENDBRANCH   1  20
BRANCH   1  24
ATOM     24  N   UNL     1       0.176  -2.927  -0.404  0.00  0.00    +0.387 N 
ATOM     25  H   UNL     1       0.878  -3.392   0.171  0.00  0.00    -0.089 HD
ATOM     26  H   UNL     1       0.508  -2.869  -1.367  0.00  0.00    -0.089 HD
ATOM     27  H   UNL     1      -0.694  -3.460  -0.376  0.00  0.00    -0.089 HD
ENDBRANCH   1  24
TORSDOF 5
