REMARK  Name = 24941248
REMARK  7 active torsions:
REMARK  status: ('A' for Active; 'I' for Inactive)
REMARK    1  A    between atoms: N_2  and  C_24
REMARK    2  A    between atoms: C_6  and  C_14
REMARK    3  A    between atoms: C_13  and  C_19
REMARK    4  A    between atoms: C_19  and  C_20
REMARK    5  A    between atoms: C_20  and  C_21
REMARK    6  A    between atoms: C_21  and  O_22
REMARK    7  A    between atoms: C_24  and  C_26
REMARK                            x       y       z     vdW  Elec       q    Type
REMARK                         _______ _______ _______ _____ _____    ______ ____
ROOT
ATOM      1  O   UNL     1      -0.326  -3.595   1.202  0.00  0.00    -0.352 OA
ATOM      2  N   UNL     1       2.402   0.248  -1.494  0.00  0.00    -0.316 N 
ATOM      3  N   UNL     1      -1.636  -3.133   1.167  0.00  0.00    -0.077 NA
ATOM      4  N   UNL     1       2.470  -1.820  -0.315  0.00  0.00    -0.226 NA
ATOM      5  C   UNL     1      -0.279  -1.657   0.077  0.00  0.00    +0.062 A 
ATOM      6  C   UNL     1      -1.586  -1.979   0.494  0.00  0.00    +0.123 A 
ATOM      7  C   UNL     1       1.731  -0.781  -0.783  0.00  0.00    +0.129 C 
ATOM      8  C   UNL     1       0.356  -0.632  -0.626  0.00  0.00    +0.039 C 
ATOM      9  C   UNL     1       0.479  -2.713   0.552  0.00  0.00    +0.196 A 
ATOM     10  C   UNL     1       1.845  -2.811   0.366  0.00  0.00    +0.140 C 
ATOM     11  H   UNL     1       1.876   1.006  -1.839  0.00  0.00    +0.148 HD
ENDROOT
BRANCH   6  14
ATOM     12 CL   UNL     1      -6.319  -1.738  -1.536  0.00  0.00    -0.082 Cl
ATOM     13  C   UNL     1      -4.051   0.823   0.537  0.00  0.00    -0.021 C 
ATOM     14  C   UNL     1      -2.786  -1.217   0.267  0.00  0.00    +0.021 C 
ATOM     15  C   UNL     1      -2.888   0.085   0.756  0.00  0.00    -0.003 C 
ATOM     16  C   UNL     1      -5.112   0.259  -0.172  0.00  0.00    +0.007 C 
ATOM     17  C   UNL     1      -3.847  -1.781  -0.442  0.00  0.00    +0.013 C 
ATOM     18  C   UNL     1      -5.010  -1.043  -0.661  0.00  0.00    +0.057 C 
BRANCH  13  19
ATOM     19  C   UNL     1      -4.161   2.215   1.061  0.00  0.00    +0.029 C 
BRANCH  19  20
ATOM     20  C   UNL     1      -3.659   3.257   0.053  0.00  0.00    +0.036 C 
BRANCH  20  21
ATOM     21  C   UNL     1      -3.727   4.672   0.609  0.00  0.00    +0.138 C 
BRANCH  21  22
ATOM     22  O   UNL     1      -3.261   5.578  -0.382  0.00  0.00    -0.382 OA
ATOM     23  H   UNL     1      -3.301   6.483  -0.036  0.00  0.00    +0.210 HD
ENDBRANCH  21  22
ENDBRANCH  20  21
ENDBRANCH  19  20
ENDBRANCH  13  19
ENDBRANCH   6  14
BRANCH   2  24
ATOM     24  C   UNL     1       3.808   0.229  -1.729  0.00  0.00    +0.093 C 
ATOM     25  C   UNL     1       4.131   1.084  -2.952  0.00  0.00    +0.026 C 
BRANCH  24  26
ATOM     26  C   UNL     1       4.552   0.669  -0.487  0.00  0.00    -0.005 C 
ATOM     27  C   UNL     1       5.803   0.128  -0.195  0.00  0.00    -0.003 C 
ATOM     28  C   UNL     1       3.986   1.617   0.366  0.00  0.00    -0.003 C 
ATOM     29  C   UNL     1       6.489   0.533   0.951  0.00  0.00    -0.000 C 
ATOM     30  C   UNL     1       4.671   2.022   1.511  0.00  0.00    -0.000 C 
ATOM     31  C   UNL     1       5.923   1.481   1.803  0.00  0.00    -0.000 C 
ENDBRANCH  24  26
ENDBRANCH   2  24
TORSDOF 7
