REMARK  Name = 170345
REMARK  8 active torsions:
REMARK  status: ('A' for Active; 'I' for Inactive)
REMARK    1  A    between atoms: C_1  and  C_2
REMARK    2  A    between atoms: C_1  and  C_12
REMARK    3  A    between atoms: C_5  and  O_8
REMARK    4  A    between atoms: C_7  and  O_10
REMARK    5  A    between atoms: C_12  and  N_13
REMARK    6  A    between atoms: C_12  and  C_18
REMARK    7  A    between atoms: C_18  and  O_19
REMARK    8  A    between atoms: O_19  and  C_20
REMARK                            x       y       z     vdW  Elec       q    Type
REMARK                         _______ _______ _______ _____ _____    ______ ____
ROOT
ATOM      1  C   UNL     1      -1.009   1.938   0.328  0.00  0.00    +0.015 C 
ENDROOT
BRANCH   1   2
ATOM      2  C   UNL     1       0.343   1.295   0.124  0.00  0.00    -0.021 C 
ATOM      3  C   UNL     1       0.778   0.334   1.021  0.00  0.00    +0.035 C 
ATOM      4  C   UNL     1       1.121   1.680  -0.956  0.00  0.00    -0.001 C 
ATOM      5  C   UNL     1       2.027  -0.260   0.833  0.00  0.00    +0.167 C 
ATOM      6  C   UNL     1       2.369   1.087  -1.143  0.00  0.00    +0.039 C 
ATOM      7  C   UNL     1       2.822   0.117  -0.249  0.00  0.00    +0.167 C 
BRANCH   5   8
ATOM      8  O   UNL     1       2.459  -1.204   1.715  0.00  0.00    -0.503 OA
ATOM      9  H   UNL     1       1.918  -1.451   2.439  0.00  0.00    +0.292 HD
ENDBRANCH   5   8
BRANCH   7  10
ATOM     10  O   UNL     1       4.043  -0.455  -0.443  0.00  0.00    -0.503 OA
ATOM     11  H   UNL     1       4.355  -1.108   0.153  0.00  0.00    +0.292 HD
ENDBRANCH   7  10
ENDBRANCH   1   2
BRANCH   1  12
ATOM     12  C   UNL     1      -2.146   1.188  -0.380  0.00  0.00    +0.040 C 
BRANCH  12  13
ATOM     13  N   UNL     1      -3.414   1.878  -0.139  0.00  0.00    +0.389 N 
ATOM     14  H   UNL     1      -3.355   2.832  -0.497  0.00  0.00    -0.088 HD
ATOM     15  H   UNL     1      -3.603   1.902   0.863  0.00  0.00    -0.088 HD
ATOM     16  H   UNL     1      -4.167   1.382  -0.616  0.00  0.00    -0.088 HD
ENDBRANCH  12  13
BRANCH  12  18
ATOM     17  O   UNL     1      -2.966  -0.521   1.153  0.00  0.00    -0.252 OA
ATOM     18  C   UNL     1      -2.297  -0.219   0.172  0.00  0.00    +0.296 C 
BRANCH  18  19
ATOM     19  O   UNL     1      -1.599  -1.092  -0.614  0.00  0.00    -0.450 OA
BRANCH  19  20
ATOM     20  C   UNL     1      -1.677  -2.468  -0.229  0.00  0.00    +0.208 C 
ATOM     21  C   UNL     1      -0.855  -3.297  -1.194  0.00  0.00    +0.051 C 
ENDBRANCH  19  20
ENDBRANCH  18  19
ENDBRANCH  12  18
ENDBRANCH   1  12
TORSDOF 8
