REMARK  Name = 2159
REMARK  8 active torsions:
REMARK  status: ('A' for Active; 'I' for Inactive)
REMARK    1  A    between atoms: C_1  and  C_9
REMARK    2  A    between atoms: C_2  and  S_20
REMARK    3  A    between atoms: C_4  and  O_28
REMARK    4  A    between atoms: C_5  and  N_25
REMARK    5  A    between atoms: N_8  and  C_11
REMARK    6  A    between atoms: C_11  and  C_13
REMARK    7  A    between atoms: N_12  and  C_18
REMARK    8  A    between atoms: S_20  and  C_23
REMARK                            x       y       z     vdW  Elec       q    Type
REMARK                         _______ _______ _______ _____ _____    ______ ____
ROOT
ATOM      1  C   UNL     1      -0.778   0.844  -0.404  0.00  0.00    +0.089 C 
ATOM      2  C   UNL     1      -2.900  -0.123   0.123  0.00  0.00    +0.119 C 
ATOM      3  C   UNL     1      -1.583  -0.274  -0.312  0.00  0.00    +0.027 C 
ATOM      4  C   UNL     1      -1.234   2.106  -0.080  0.00  0.00    +0.144 C 
ATOM      5  C   UNL     1      -3.384   1.143   0.456  0.00  0.00    +0.062 C 
ATOM      6  C   UNL     1      -2.550   2.257   0.354  0.00  0.00    +0.052 C 
ENDROOT
BRANCH   1   9
ATOM      7  O   UNL     1       1.182   1.579  -1.462  0.00  0.00    -0.270 OA
ATOM      8  N   UNL     1       1.215  -0.563  -0.571  0.00  0.00    -0.303 N 
ATOM      9  C   UNL     1       0.621   0.661  -0.870  0.00  0.00    +0.249 C 
ATOM     10  H   UNL     1       0.685  -1.240  -0.092  0.00  0.00    +0.150 HD
BRANCH   8  11
ATOM     11  C   UNL     1       2.565  -0.880  -0.931  0.00  0.00    +0.069 C 
BRANCH  11  13
ATOM     12  N   UNL     1       4.925  -0.880  -0.100  0.00  0.00    +0.389 N 
ATOM     13  C   UNL     1       3.537  -0.479   0.171  0.00  0.00    -0.038 C 
ATOM     14  C   UNL     1       3.231  -1.197   1.487  0.00  0.00    -0.021 C 
ATOM     15  C   UNL     1       4.585  -1.403   2.157  0.00  0.00    -0.025 C 
ATOM     16  C   UNL     1       5.600  -0.804   1.198  0.00  0.00    -0.077 C 
ATOM     17  H   UNL     1       4.957  -1.816  -0.504  0.00  0.00    -0.080 HD
BRANCH  12  18
ATOM     18  C   UNL     1       5.584  -0.043  -1.095  0.00  0.00    -0.077 C 
ATOM     19  C   UNL     1       7.034  -0.439  -1.280  0.00  0.00    -0.025 C 
ENDBRANCH  12  18
ENDBRANCH  11  13
ENDBRANCH   8  11
ENDBRANCH   1   9
BRANCH   2  20
ATOM     20  S   UNL     1      -3.915  -1.545   0.237  0.00  0.00    +0.010 S 
ATOM     21  O   UNL     1      -3.090  -2.704  -0.070  0.00  0.00    -0.169 OA
ATOM     22  O   UNL     1      -4.655  -1.491   1.488  0.00  0.00    -0.169 OA
BRANCH  20  23
ATOM     23  C   UNL     1      -5.095  -1.346  -1.077  0.00  0.00    +0.156 C 
ATOM     24  C   UNL     1      -6.067  -2.503  -1.129  0.00  0.00    +0.028 C 
ENDBRANCH  20  23
ENDBRANCH   2  20
BRANCH   5  25
ATOM     25  N   UNL     1      -4.713   1.322   0.898  0.00  0.00    -0.356 N 
ATOM     26  H   UNL     1      -5.315   0.546   0.975  0.00  0.00    +0.142 HD
ATOM     27  H   UNL     1      -5.038   2.222   1.129  0.00  0.00    +0.142 HD
ENDBRANCH   5  25
BRANCH   4  28
ATOM     28  O   UNL     1      -0.435   3.206  -0.172  0.00  0.00    -0.471 OA
ATOM     29  C   UNL     1       0.321   3.557   0.985  0.00  0.00    +0.252 C 
ENDBRANCH   4  28
TORSDOF 8
