REMARK  Name = 11962412
REMARK  5 active torsions:
REMARK  status: ('A' for Active; 'I' for Inactive)
REMARK    1  A    between atoms: C_1  and  C_3
REMARK    2  A    between atoms: C_1  and  O_9
REMARK    3  A    between atoms: C_1  and  C_15
REMARK    4  A    between atoms: O_9  and  C_12
REMARK    5  A    between atoms: C_15  and  N_16
REMARK                            x       y       z     vdW  Elec       q    Type
REMARK                         _______ _______ _______ _____ _____    ______ ____
ROOT
ATOM      1  C   UNL     1       0.099   0.058   0.116  0.00  0.00    +0.217 C 
ENDROOT
BRANCH   1   3
ATOM      2 CL   UNL     1      -1.347   2.193   1.805  0.00  0.00    -0.082 Cl
ATOM      3  C   UNL     1      -1.349   0.304  -0.159  0.00  0.00    +0.030 C 
ATOM      4  C   UNL     1      -2.080   1.252   0.557  0.00  0.00    +0.057 C 
ATOM      5  C   UNL     1      -1.968  -0.441  -1.163  0.00  0.00    +0.000 C 
ATOM      6  C   UNL     1      -3.429   1.454   0.270  0.00  0.00    +0.011 C 
ATOM      7  C   UNL     1      -3.318  -0.238  -1.450  0.00  0.00    -0.000 C 
ATOM      8  C   UNL     1      -4.049   0.709  -0.733  0.00  0.00    +0.001 C 
ENDBRANCH   1   3
BRANCH   1   9
ATOM      9  O   UNL     1       0.390  -1.331  -0.089  0.00  0.00    -0.432 OA
BRANCH   9  12
ATOM     10  O   UNL     1      -1.138  -1.887   1.541  0.00  0.00    -0.227 OA
ATOM     11  N   UNL     1       0.055  -3.495   0.411  0.00  0.00    -0.295 N 
ATOM     12  C   UNL     1      -0.306  -2.202   0.697  0.00  0.00    +0.399 C 
ATOM     13  H   UNL     1       0.731  -3.676  -0.281  0.00  0.00    +0.148 HD
ATOM     14  H   UNL     1      -0.363  -4.242   0.898  0.00  0.00    +0.148 HD
ENDBRANCH   9  12
ENDBRANCH   1   9
BRANCH   1  15
ATOM     15  C   UNL     1       1.054   0.882  -0.771  0.00  0.00    +0.188 C 
BRANCH  15  16
ATOM     16  N   UNL     1       2.462   0.678  -0.453  0.00  0.00    -0.109 N 
ATOM     17  N   UNL     1       3.175  -0.275  -1.048  0.00  0.00    -0.135 NA
ATOM     18  N   UNL     1       3.084   1.437   0.446  0.00  0.00    -0.054 NA
ATOM     19  N   UNL     1       4.323   0.961   0.463  0.00  0.00    -0.107 NA
ATOM     20  C   UNL     1       4.344  -0.060  -0.440  0.00  0.00    +0.242 C 
ENDBRANCH  15  16
ENDBRANCH   1  15
TORSDOF 5
