REMARK  Name = 3033877
REMARK  12 active torsions:
REMARK  status: ('A' for Active; 'I' for Inactive)
REMARK    1  A    between atoms: C_2  and  O_3
REMARK    2  A    between atoms: C_2  and  C_11
REMARK    3  A    between atoms: O_3  and  C_4
REMARK    4  A    between atoms: C_4  and  C_5
REMARK    5  A    between atoms: C_5  and  O_6
REMARK    6  A    between atoms: C_5  and  C_8
REMARK    7  A    between atoms: C_8  and  O_9
REMARK    8  A    between atoms: C_11  and  C_12
REMARK    9  A    between atoms: C_12  and  C_13
REMARK   10  A    between atoms: C_13  and  C_14
REMARK   11  A    between atoms: C_14  and  C_15
REMARK   12  A    between atoms: C_15  and  C_16
REMARK                            x       y       z     vdW  Elec       q    Type
REMARK                         _______ _______ _______ _____ _____    ______ ____
ROOT
ATOM      1  O   UNL     1      -0.900  -1.828   0.291  0.00  0.00    -0.250 OA
ATOM      2  C   UNL     1      -0.930  -0.641  -0.001  0.00  0.00    +0.317 C 
ENDROOT
BRANCH   2   3
ATOM      3  O   UNL     1      -2.057   0.110  -0.183  0.00  0.00    -0.446 OA
BRANCH   3   4
ATOM      4  C   UNL     1      -3.296  -0.585  -0.010  0.00  0.00    +0.240 C 
BRANCH   4   5
ATOM      5  C   UNL     1      -4.461   0.369  -0.243  0.00  0.00    +0.184 C 
BRANCH   5   6
ATOM      6  O   UNL     1      -4.392   1.422   0.721  0.00  0.00    -0.378 OA
ATOM      7  H   UNL     1      -3.545   1.887   0.632  0.00  0.00    +0.211 HD
ENDBRANCH   5   6
BRANCH   5   8
ATOM      8  C   UNL     1      -5.801  -0.336  -0.073  0.00  0.00    +0.170 C 
BRANCH   8   9
ATOM      9  O   UNL     1      -6.848   0.607  -0.274  0.00  0.00    -0.379 OA
ATOM     10  H   UNL     1      -7.705   0.166  -0.168  0.00  0.00    +0.211 HD
ENDBRANCH   8   9
ENDBRANCH   5   8
ENDBRANCH   4   5
ENDBRANCH   3   4
ENDBRANCH   2   3
BRANCH   2  11
ATOM     11  C   UNL     1       0.284   0.243  -0.184  0.00  0.00    +0.110 C 
BRANCH  11  12
ATOM     12  C   UNL     1       1.605  -0.497   0.025  0.00  0.00    +0.012 C 
BRANCH  12  13
ATOM     13  C   UNL     1       2.820   0.428  -0.095  0.00  0.00    +0.001 C 
BRANCH  13  14
ATOM     14  C   UNL     1       4.127  -0.346   0.090  0.00  0.00    +0.000 C 
BRANCH  14  15
ATOM     15  C   UNL     1       5.342   0.571  -0.061  0.00  0.00    +0.000 C 
BRANCH  15  16
ATOM     16  C   UNL     1       6.648  -0.208   0.090  0.00  0.00    +0.000 C 
ATOM     17  C   UNL     1       7.859   0.693  -0.093  0.00  0.00    +0.000 C 
ENDBRANCH  15  16
ENDBRANCH  14  15
ENDBRANCH  13  14
ENDBRANCH  12  13
ENDBRANCH  11  12
ENDBRANCH   2  11
TORSDOF 12
