REMARK  Name = 22297
REMARK  4 active torsions:
REMARK  status: ('A' for Active; 'I' for Inactive)
REMARK    1  A    between atoms: C_1  and  N_3
REMARK    2  A    between atoms: C_1  and  C_7
REMARK    3  A    between atoms: C_7  and  C_8
REMARK    4  A    between atoms: C_8  and  C_9
REMARK                            x       y       z     vdW  Elec       q    Type
REMARK                         _______ _______ _______ _____ _____    ______ ____
ROOT
ATOM      1  C   UNL     1      -1.597  -0.267  -0.353  0.00  0.00    -0.062 C 
ATOM      2  C   UNL     1      -3.002  -0.560  -0.882  0.00  0.00    -0.023 C 
ENDROOT
BRANCH   1   3
ATOM      3  N   UNL     1      -1.652   0.852   0.588  0.00  0.00    +0.384 N 
ATOM      4  C   UNL     1      -2.157   2.049  -0.065  0.00  0.00    -0.106 C 
ATOM      5  H   UNL     1      -0.714   1.035   0.945  0.00  0.00    -0.085 HD
ATOM      6  H   UNL     1      -2.281   0.606   1.353  0.00  0.00    -0.085 HD
ENDBRANCH   1   3
BRANCH   1   7
ATOM      7  C   UNL     1      -1.004  -1.519   0.319  0.00  0.00    -0.017 C 
BRANCH   7   8
ATOM      8  C   UNL     1       0.386  -1.323   0.941  0.00  0.00    +0.023 C 
BRANCH   8   9
ATOM      9  C   UNL     1       1.433  -0.961  -0.075  0.00  0.00    -0.035 C 
ATOM     10  C   UNL     1       2.208   0.140  -0.118  0.00  0.00    -0.048 C 
ATOM     11  C   UNL     1       3.218   0.315  -1.221  0.00  0.00    +0.026 C 
ATOM     12  C   UNL     1       2.166   1.275   0.865  0.00  0.00    +0.026 C 
ENDBRANCH   8   9
ENDBRANCH   7   8
ENDBRANCH   1   7
TORSDOF 4
