REMARK  Name = 11069133
REMARK  5 active torsions:
REMARK  status: ('A' for Active; 'I' for Inactive)
REMARK    1  A    between atoms: S_1  and  C_6
REMARK    2  A    between atoms: S_1  and  N_16
REMARK    3  A    between atoms: C_9  and  N_12
REMARK    4  A    between atoms: C_20  and  S_22
REMARK    5  A    between atoms: S_22  and  N_25
REMARK                            x       y       z     vdW  Elec       q    Type
REMARK                         _______ _______ _______ _____ _____    ______ ____
ROOT
ATOM      1  S   UNL     1      -0.721  -1.067   0.784  0.00  0.00    +0.075 S 
ATOM      2  O   UNL     1      -0.804  -2.520   0.697  0.00  0.00    -0.150 OA
ATOM      3  O   UNL     1      -0.304  -0.461   2.042  0.00  0.00    -0.150 OA
ENDROOT
BRANCH   1   6
ATOM      4 CL   UNL     1      -4.348   2.930   1.018  0.00  0.00    -0.081 Cl
ATOM      5  F   UNL     1      -5.206  -1.371  -1.595  0.00  0.00    -0.203 F 
ATOM      6  C   UNL     1      -2.280  -0.418   0.340  0.00  0.00    +0.128 C 
ATOM      7  C   UNL     1      -2.665   0.844   0.792  0.00  0.00    +0.033 C 
ATOM      8  C   UNL     1      -3.142  -1.163  -0.466  0.00  0.00    +0.051 C 
ATOM      9  C   UNL     1      -4.772   0.617  -0.369  0.00  0.00    +0.080 C 
ATOM     10  C   UNL     1      -3.911   1.362   0.437  0.00  0.00    +0.074 C 
ATOM     11  C   UNL     1      -4.387  -0.645  -0.820  0.00  0.00    +0.155 C 
BRANCH   9  12
ATOM     12  N   UNL     1      -6.040   1.117  -0.743  0.00  0.00    -0.355 N 
ATOM     13  H   UNL     1      -6.329   2.006  -0.435  0.00  0.00    +0.142 HD
ATOM     14  H   UNL     1      -6.633   0.576  -1.313  0.00  0.00    +0.142 HD
ENDBRANCH   9  12
ENDBRANCH   1   6
BRANCH   1  16
ATOM     15  S   UNL     1       2.773   0.588  -1.136  0.00  0.00    -0.009 S 
ATOM     16  N   UNL     1       0.299  -0.513  -0.489  0.00  0.00    -0.192 N 
ATOM     17  N   UNL     1       2.324  -1.136   0.706  0.00  0.00    -0.123 NA
ATOM     18  N   UNL     1       3.684  -0.885   0.753  0.00  0.00    -0.119 NA
ATOM     19  C   UNL     1       1.713  -0.433  -0.237  0.00  0.00    +0.202 A 
ATOM     20  C   UNL     1       4.049  -0.005  -0.154  0.00  0.00    +0.256 A 
ATOM     21  H   UNL     1      -0.075  -0.257  -1.363  0.00  0.00    +0.176 HD
BRANCH  20  22
ATOM     22  S   UNL     1       5.659   0.581  -0.428  0.00  0.00    +0.081 S 
ATOM     23  O   UNL     1       6.610  -0.414   0.058  0.00  0.00    -0.151 OA
ATOM     24  O   UNL     1       5.763   1.056  -1.805  0.00  0.00    -0.151 OA
BRANCH  22  25
ATOM     25  N   UNL     1       5.707   1.935   0.616  0.00  0.00    -0.202 NA
ATOM     26  H   UNL     1       6.621   2.383   0.551  0.00  0.00    +0.144 HD
ATOM     27  H   UNL     1       5.545   1.630   1.576  0.00  0.00    +0.144 HD
ENDBRANCH  22  25
ENDBRANCH  20  22
ENDBRANCH   1  16
TORSDOF 5
