REMARK  Name = 21066379
REMARK  6 active torsions:
REMARK  status: ('A' for Active; 'I' for Inactive)
REMARK    1  A    between atoms: C_4  and  N_16
REMARK    2  A    between atoms: C_6  and  C_25
REMARK    3  A    between atoms: C_7  and  C_10
REMARK    4  A    between atoms: N_16  and  C_18
REMARK    5  A    between atoms: C_18  and  C_20
REMARK    6  A    between atoms: C_25  and  O_26
REMARK                            x       y       z     vdW  Elec       q    Type
REMARK                         _______ _______ _______ _____ _____    ______ ____
ROOT
ATOM      1  N   UNL     1       0.117  -1.591   0.151  0.00  0.00    -0.152 N 
ATOM      2  N   UNL     1       2.386  -0.787   0.151  0.00  0.00    -0.389 NA
ATOM      3  N   UNL     1      -0.568  -2.769   0.214  0.00  0.00    -0.173 NA
ATOM      4  C   UNL     1      -0.412  -0.295   0.045  0.00  0.00    +0.126 C 
ATOM      5  C   UNL     1       1.494  -1.813   0.197  0.00  0.00    +0.192 C 
ATOM      6  C   UNL     1       1.670  -3.174   0.292  0.00  0.00    +0.141 C 
ATOM      7  C   UNL     1       1.898   0.417   0.068  0.00  0.00    +0.135 C 
ATOM      8  C   UNL     1       0.439   0.744  -0.002  0.00  0.00    +0.064 C 
ATOM      9  C   UNL     1       0.375  -3.705   0.298  0.00  0.00    +0.103 C 
ENDROOT
BRANCH   7  10
ATOM     10  C   UNL     1       2.837   1.569   0.020  0.00  0.00    +0.030 C 
ATOM     11  C   UNL     1       2.446   2.808   0.528  0.00  0.00    +0.003 C 
ATOM     12  C   UNL     1       4.107   1.411  -0.533  0.00  0.00    +0.003 C 
ATOM     13  C   UNL     1       3.327   3.889   0.483  0.00  0.00    +0.000 C 
ATOM     14  C   UNL     1       4.988   2.492  -0.578  0.00  0.00    +0.000 C 
ATOM     15  C   UNL     1       4.597   3.731  -0.069  0.00  0.00    +0.000 C 
ENDBRANCH   7  10
BRANCH   4  16
ATOM     16  N   UNL     1      -1.771  -0.170  -0.010  0.00  0.00    -0.316 N 
ATOM     17  H   UNL     1      -2.317  -0.988   0.032  0.00  0.00    +0.148 HD
BRANCH  16  18
ATOM     18  C   UNL     1      -2.445   1.096  -0.126  0.00  0.00    +0.117 C 
BRANCH  18  20
ATOM     19  N   UNL     1      -5.997   0.740   1.127  0.00  0.00    -0.243 NA
ATOM     20  C   UNL     1      -3.936   0.901  -0.126  0.00  0.00    +0.017 C 
ATOM     21  C   UNL     1      -4.633   0.707  -1.313  0.00  0.00    +0.001 C 
ATOM     22  C   UNL     1      -4.658   0.909   1.057  0.00  0.00    +0.096 C 
ATOM     23  C   UNL     1      -6.012   0.529  -1.281  0.00  0.00    +0.020 C 
ATOM     24  C   UNL     1      -6.641   0.553  -0.047  0.00  0.00    +0.099 C 
ENDBRANCH  18  20
ENDBRANCH  16  18
ENDBRANCH   4  16
BRANCH   6  25
ATOM     25  C   UNL     1       2.942  -3.913   0.372  0.00  0.00    +0.152 C 
BRANCH  25  26
ATOM     26  O   UNL     1       3.447  -4.278  -0.917  0.00  0.00    -0.381 OA
ATOM     27  H   UNL     1       4.282  -4.760  -0.812  0.00  0.00    +0.210 HD
ENDBRANCH  25  26
ENDBRANCH   6  25
TORSDOF 6
