REMARK  Name = 8193
REMARK  11 active torsions:
REMARK  status: ('A' for Active; 'I' for Inactive)
REMARK    1  A    between atoms: C_1  and  C_2
REMARK    2  A    between atoms: C_1  and  C_8
REMARK    3  A    between atoms: C_2  and  C_3
REMARK    4  A    between atoms: C_3  and  C_4
REMARK    5  A    between atoms: C_4  and  C_5
REMARK    6  A    between atoms: C_5  and  C_6
REMARK    7  A    between atoms: C_8  and  C_9
REMARK    8  A    between atoms: C_9  and  C_10
REMARK    9  A    between atoms: C_10  and  C_11
REMARK   10  A    between atoms: C_11  and  C_12
REMARK   11  A    between atoms: C_12  and  O_13
REMARK                            x       y       z     vdW  Elec       q    Type
REMARK                         _______ _______ _______ _____ _____    ______ ____
ROOT
ATOM      1  C   UNL     1      -0.033   0.429   0.005  0.00  0.00    +0.000 C 
ENDROOT
BRANCH   1   2
ATOM      2  C   UNL     1       1.265  -0.387   0.017  0.00  0.00    +0.000 C 
BRANCH   2   3
ATOM      3  C   UNL     1       2.565   0.423   0.078  0.00  0.00    +0.000 C 
BRANCH   3   4
ATOM      4  C   UNL     1       3.825  -0.445   0.027  0.00  0.00    +0.000 C 
BRANCH   4   5
ATOM      5  C   UNL     1       5.123   0.369  -0.001  0.00  0.00    +0.000 C 
BRANCH   5   6
ATOM      6  C   UNL     1       6.383  -0.493  -0.079  0.00  0.00    +0.000 C 
ATOM      7  C   UNL     1       7.642   0.360  -0.028  0.00  0.00    +0.000 C 
ENDBRANCH   5   6
ENDBRANCH   4   5
ENDBRANCH   3   4
ENDBRANCH   2   3
ENDBRANCH   1   2
BRANCH   1   8
ATOM      8  C   UNL     1      -1.294  -0.438   0.035  0.00  0.00    +0.000 C 
BRANCH   8   9
ATOM      9  C   UNL     1      -2.590   0.378   0.011  0.00  0.00    +0.000 C 
BRANCH   9  10
ATOM     10  C   UNL     1      -3.852  -0.489   0.016  0.00  0.00    +0.003 C 
BRANCH  10  11
ATOM     11  C   UNL     1      -5.117   0.375  -0.037  0.00  0.00    +0.032 C 
BRANCH  11  12
ATOM     12  C   UNL     1      -6.389  -0.464  -0.007  0.00  0.00    +0.137 C 
BRANCH  12  13
ATOM     13  O   UNL     1      -7.529   0.384  -0.039  0.00  0.00    -0.382 OA
ATOM     14  H   UNL     1      -8.334  -0.157  -0.019  0.00  0.00    +0.210 HD
ENDBRANCH  12  13
ENDBRANCH  11  12
ENDBRANCH  10  11
ENDBRANCH   9  10
ENDBRANCH   8   9
ENDBRANCH   1   8
TORSDOF 11
