REMARK  Name = 6918837
REMARK  8 active torsions:
REMARK  status: ('A' for Active; 'I' for Inactive)
REMARK    1  A    between atoms: N_1  and  C_4
REMARK    2  A    between atoms: N_1  and  C_17
REMARK    3  A    between atoms: C_4  and  C_5
REMARK    4  A    between atoms: C_5  and  C_7
REMARK    5  A    between atoms: C_17  and  C_18
REMARK    6  A    between atoms: C_23  and  C_24
REMARK    7  A    between atoms: C_25  and  C_28
REMARK    8  A    between atoms: N_27  and  O_30
REMARK                            x       y       z     vdW  Elec       q    Type
REMARK                         _______ _______ _______ _____ _____    ______ ____
ROOT
ATOM      1  N   UNL     1      -0.714   0.549   0.015  0.00  0.00    +0.387 N 
ATOM      2  H   UNL     1      -0.522  -0.305   0.539  0.00  0.00    -0.084 HD
ATOM      3  H   UNL     1      -0.511   1.370   0.585  0.00  0.00    -0.084 HD
ENDROOT
BRANCH   1   4
ATOM      4  C   UNL     1      -2.124   0.575  -0.356  0.00  0.00    -0.076 C 
BRANCH   4   5
ATOM      5  C   UNL     1      -3.043   0.551   0.878  0.00  0.00    +0.004 C 
BRANCH   5   7
ATOM      6  N   UNL     1      -6.533   1.230   0.037  0.00  0.00    -0.357 N 
ATOM      7  C   UNL     1      -4.479   0.548   0.528  0.00  0.00    -0.011 A 
ATOM      8  C   UNL     1      -5.289  -0.601   0.311  0.00  0.00    +0.013 A 
ATOM      9  C   UNL     1      -5.272   1.659   0.353  0.00  0.00    +0.030 A 
ATOM     10  C   UNL     1      -6.573  -0.146   0.005  0.00  0.00    +0.056 A 
ATOM     11  C   UNL     1      -5.052  -1.990   0.346  0.00  0.00    +0.001 C 
ATOM     12  C   UNL     1      -4.960   3.098   0.451  0.00  0.00    +0.049 C 
ATOM     13  C   UNL     1      -7.637  -1.013  -0.269  0.00  0.00    +0.017 C 
ATOM     14  C   UNL     1      -6.107  -2.869   0.074  0.00  0.00    +0.000 C 
ATOM     15  C   UNL     1      -7.378  -2.386  -0.228  0.00  0.00    +0.001 C 
ATOM     16  H   UNL     1      -7.301   1.820  -0.140  0.00  0.00    +0.166 HD
ENDBRANCH   5   7
ENDBRANCH   4   5
ENDBRANCH   1   4
BRANCH   1  17
ATOM     17  C   UNL     1       0.134   0.582  -1.168  0.00  0.00    -0.054 C 
BRANCH  17  18
ATOM     18  C   UNL     1       1.597   0.563  -0.810  0.00  0.00    -0.044 C 
ATOM     19  C   UNL     1       2.254  -0.654  -0.687  0.00  0.00    -0.006 C 
ATOM     20  C   UNL     1       2.267   1.761  -0.608  0.00  0.00    -0.006 C 
ATOM     21  C   UNL     1       3.608  -0.672  -0.355  0.00  0.00    -0.000 C 
ATOM     22  C   UNL     1       3.622   1.743  -0.276  0.00  0.00    -0.000 C 
ATOM     23  C   UNL     1       4.292   0.526  -0.149  0.00  0.00    +0.000 C 
BRANCH  23  24
ATOM     24  C   UNL     1       5.705   0.507   0.197  0.00  0.00    +0.005 C 
ATOM     25  C   UNL     1       6.547  -0.529  -0.017  0.00  0.00    +0.060 C 
BRANCH  25  28
ATOM     26  O   UNL     1       8.459   0.561   0.907  0.00  0.00    -0.268 OA
ATOM     27  N   UNL     1       8.668  -1.578   0.058  0.00  0.00    -0.193 N 
ATOM     28  C   UNL     1       7.981  -0.433   0.370  0.00  0.00    +0.268 C 
ATOM     29  H   UNL     1       8.233  -2.349  -0.374  0.00  0.00    +0.183 HD
BRANCH  27  30
ATOM     30  O   UNL     1      10.029  -1.580   0.393  0.00  0.00    -0.295 OA
ATOM     31  H   UNL     1      10.425  -2.427   0.133  0.00  0.00    +0.241 HD
ENDBRANCH  27  30
ENDBRANCH  25  28
ENDBRANCH  23  24
ENDBRANCH  17  18
ENDBRANCH   1  17
TORSDOF 8
