REMARK  Name = 9861547
REMARK  6 active torsions:
REMARK  status: ('A' for Active; 'I' for Inactive)
REMARK    1  A    between atoms: C_1  and  S_7
REMARK    2  A    between atoms: C_6  and  O_17
REMARK    3  A    between atoms: S_7  and  N_10
REMARK    4  A    between atoms: C_11  and  S_15
REMARK    5  A    between atoms: O_17  and  C_18
REMARK    6  A    between atoms: C_18  and  C_19
REMARK                            x       y       z     vdW  Elec       q    Type
REMARK                         _______ _______ _______ _____ _____    ______ ____
ROOT
ATOM      1  C   UNL     1      -0.630  -1.076  -0.036  0.00  0.00    +0.122 C 
ATOM      2  C   UNL     1       0.127  -1.143   1.121  0.00  0.00    +0.023 C 
ATOM      3  C   UNL     1      -0.043  -0.879  -1.275  0.00  0.00    +0.023 C 
ATOM      4  C   UNL     1       1.512  -1.008   1.038  0.00  0.00    +0.038 C 
ATOM      5  C   UNL     1       1.343  -0.745  -1.358  0.00  0.00    +0.038 C 
ATOM      6  C   UNL     1       2.121  -0.809  -0.201  0.00  0.00    +0.140 C 
ENDROOT
BRANCH   1   7
ATOM      7  S   UNL     1      -2.386  -1.246   0.070  0.00  0.00    +0.063 S 
ATOM      8  O   UNL     1      -2.775  -2.317  -0.831  0.00  0.00    -0.153 OA
ATOM      9  O   UNL     1      -2.737  -1.307   1.477  0.00  0.00    -0.153 OA
BRANCH   7  10
ATOM     10  N   UNL     1      -2.881   0.246  -0.574  0.00  0.00    -0.155 NA
ATOM     11  C   UNL     1      -4.781   1.705  -0.314  0.00  0.00    +0.063 C 
ATOM     12  C   UNL     1      -4.316   0.403  -0.963  0.00  0.00    +0.106 C 
ATOM     13  C   UNL     1      -3.497   2.517  -0.227  0.00  0.00    +0.031 C 
ATOM     14  C   UNL     1      -2.434   1.484   0.124  0.00  0.00    +0.097 C 
BRANCH  11  15
ATOM     15  S   UNL     1      -5.495   1.405   1.341  0.00  0.00    -0.167 S 
ATOM     16  H   UNL     1      -6.638   0.678   1.217  0.00  0.00    +0.102 HD
ENDBRANCH  11  15
ENDBRANCH   7  10
ENDBRANCH   1   7
BRANCH   6  17
ATOM     17  O   UNL     1       3.473  -0.679  -0.282  0.00  0.00    -0.461 OA
BRANCH  17  18
ATOM     18  C   UNL     1       4.139  -0.108   0.843  0.00  0.00    +0.281 C 
BRANCH  18  19
ATOM     19  C   UNL     1       5.352   0.580   0.402  0.00  0.00    -0.044 C 
ATOM     20  C   UNL     1       6.348   1.145   0.042  0.00  0.00    -0.086 C 
ATOM     21  C   UNL     1       7.562   1.833  -0.397  0.00  0.00    +0.090 C 
ENDBRANCH  18  19
ENDBRANCH  17  18
ENDBRANCH   6  17
TORSDOF 6
