REMARK  Name = 6989215
REMARK  7 active torsions:
REMARK  status: ('A' for Active; 'I' for Inactive)
REMARK    1  A    between atoms: C_1  and  C_2
REMARK    2  A    between atoms: C_1  and  O_12
REMARK    3  A    between atoms: C_1  and  CA_14
REMARK    4  A    between atoms: C_5  and  O_8
REMARK    5  A    between atoms: C_7  and  O_10
REMARK    6  A    between atoms: CA_14  and  N_15
REMARK    7  A    between atoms: CA_14  and  C_21
REMARK                            x       y       z     vdW  Elec       q    Type
REMARK                         _______ _______ _______ _____ _____    ______ ____
ROOT
ATOM      1  C   UNL     1       1.302   1.048  -0.460  0.00  0.00    +0.124 C 
ENDROOT
BRANCH   1   2
ATOM      2  C   UNL     1      -0.139   0.576  -0.414  0.00  0.00    +0.006 C 
ATOM      3  C   UNL     1      -0.808   0.578   0.795  0.00  0.00    +0.038 C 
ATOM      4  C   UNL     1      -0.745   0.155  -1.582  0.00  0.00    +0.001 C 
ATOM      5  C   UNL     1      -2.133   0.143   0.838  0.00  0.00    +0.167 C 
ATOM      6  C   UNL     1      -2.070  -0.280  -1.540  0.00  0.00    +0.040 C 
ATOM      7  C   UNL     1      -2.764  -0.286  -0.330  0.00  0.00    +0.167 C 
BRANCH   5   8
ATOM      8  O   UNL     1      -2.801   0.144   2.025  0.00  0.00    -0.503 OA
ATOM      9  H   UNL     1      -2.370   0.434   2.805  0.00  0.00    +0.292 HD
ENDBRANCH   5   8
BRANCH   7  10
ATOM     10  O   UNL     1      -4.057  -0.712  -0.302  0.00  0.00    -0.503 OA
ATOM     11  H   UNL     1      -4.530  -0.719   0.506  0.00  0.00    +0.292 HD
ENDBRANCH   7  10
ENDBRANCH   1   2
BRANCH   1  12
ATOM     12  O   UNL     1       1.387   2.437  -0.139  0.00  0.00    -0.382 OA
ATOM     13  H   UNL     1       2.314   2.721  -0.173  0.00  0.00    +0.211 HD
ENDBRANCH   1  12
BRANCH   1  14
ATOM     14  CA  UNL     1       2.241   0.230   0.450  0.00  0.00    +0.072 C 
BRANCH  14  15
ATOM     15  N   UNL     1       3.596   0.871   0.431  0.00  0.00    +0.391 N 
ATOM     16  H1  UNL     1       3.505   1.865   0.640  0.00  0.00    -0.088 HD
ATOM     17  H2  UNL     1       4.014   0.754  -0.492  0.00  0.00    -0.088 HD
ATOM     18  H3  UNL     1       4.191   0.429   1.132  0.00  0.00    -0.088 HD
ENDBRANCH  14  15
BRANCH  14  21
ATOM     19  O   UNL     1       2.694  -1.600  -1.019  0.00  0.00    -0.248 OA
ATOM     20  OXT UNL     1       1.982  -2.026   1.106  0.00  0.00    -0.248 OA
ATOM     21  C   UNL     1       2.313  -1.278   0.140  0.00  0.00    +0.347 C 
ENDBRANCH  14  21
ENDBRANCH   1  14
TORSDOF 7
