REMARK  Name = 445841
REMARK  2 active torsions:
REMARK  status: ('A' for Active; 'I' for Inactive)
REMARK    1  A    between atoms: N_2  and  C_22
REMARK    2  A    between atoms: C_6  and  C_27
REMARK                            x       y       z     vdW  Elec       q    Type
REMARK                         _______ _______ _______ _____ _____    ______ ____
ROOT
ATOM      1  O   UNL     1      -0.301  -2.421  -0.199  0.00  0.00    -0.252 OA
ATOM      2  N   UNL     1       0.992  -0.486   0.062  0.00  0.00    -0.268 N 
ATOM      3  N   UNL     1      -4.441  -1.729  -0.203  0.00  0.00    -0.241 N 
ATOM      4  N   UNL     1      -1.312  -0.324   0.030  0.00  0.00    -0.252 N 
ATOM      5  N   UNL     1      -3.106  -1.885  -0.194  0.00  0.00    -0.166 NA
ATOM      6  C   UNL     1      -4.846  -0.435  -0.059  0.00  0.00    +0.026 C 
ATOM      7  C   UNL     1      -3.696   0.308   0.053  0.00  0.00    +0.046 C 
ATOM      8  C   UNL     1      -2.674  -0.641  -0.038  0.00  0.00    +0.154 C 
ATOM      9  C   UNL     1      -0.224  -1.206  -0.052  0.00  0.00    +0.309 C 
ATOM     10  H   UNL     1       0.901   0.488   0.177  0.00  0.00    +0.156 HD
ATOM     11  H   UNL     1      -5.069  -2.480  -0.305  0.00  0.00    +0.174 HD
ATOM     12  H   UNL     1      -1.093   0.629   0.148  0.00  0.00    +0.158 HD
ENDROOT
BRANCH   2  22
ATOM     13  O   UNL     1       6.843   0.371   0.154  0.00  0.00    -0.270 OA
ATOM     14  N   UNL     1       4.851   1.609   0.388  0.00  0.00    -0.274 N 
ATOM     15  C   UNL     1       3.423   1.339   0.401  0.00  0.00    +0.100 C 
ATOM     16  C   UNL     1       2.911   2.294  -0.667  0.00  0.00    +0.026 C 
ATOM     17  C   UNL     1       3.801   3.527  -0.442  0.00  0.00    +0.024 C 
ATOM     18  C   UNL     1       5.170   2.944  -0.077  0.00  0.00    +0.094 C 
ATOM     19  C   UNL     1       3.385  -0.129   0.173  0.00  0.00    +0.014 C 
ATOM     20  C   UNL     1       4.687  -0.646   0.160  0.00  0.00    +0.052 C 
ATOM     21  C   UNL     1       5.635   0.475   0.262  0.00  0.00    +0.249 C 
ATOM     22  C   UNL     1       2.298  -0.971   0.033  0.00  0.00    +0.049 C 
ATOM     23  C   UNL     1       4.952  -1.991  -0.004  0.00  0.00    +0.004 C 
ATOM     24  C   UNL     1       2.542  -2.339  -0.129  0.00  0.00    +0.014 C 
ATOM     25  C   UNL     1       3.857  -2.844  -0.146  0.00  0.00    +0.001 C 
ENDBRANCH   2  22
BRANCH   6  27
ATOM     26  N   UNL     1      -6.686   0.608   1.218  0.00  0.00    +0.388 N 
ATOM     27  C   UNL     1      -6.306  -0.044  -0.045  0.00  0.00    -0.023 C 
ATOM     28  C   UNL     1      -6.677   0.954  -1.150  0.00  0.00    -0.018 C 
ATOM     29  C   UNL     1      -7.310   2.129  -0.420  0.00  0.00    -0.025 C 
ATOM     30  C   UNL     1      -7.769   1.530   0.893  0.00  0.00    -0.081 C 
ATOM     31  H   UNL     1      -5.892   1.119   1.605  0.00  0.00    -0.084 HD
ATOM     32  H   UNL     1      -6.977  -0.076   1.917  0.00  0.00    -0.084 HD
ENDBRANCH   6  27
TORSDOF 2
