REMARK  Name = 129228
REMARK  3 active torsions:
REMARK  status: ('A' for Active; 'I' for Inactive)
REMARK    1  A    between atoms: N_1  and  C_11
REMARK    2  A    between atoms: C_5  and  C_8
REMARK    3  A    between atoms: C_11  and  C_14
REMARK                            x       y       z     vdW  Elec       q    Type
REMARK                         _______ _______ _______ _____ _____    ______ ____
ROOT
ATOM      1  N   UNL     1       0.658  -0.471  -0.831  0.00  0.00    -0.158 NA
ATOM      2  N   UNL     1       1.068  -1.638  -0.342  0.00  0.00    -0.062 NA
ATOM      3  N   UNL     1       2.267  -1.420   0.187  0.00  0.00    -0.145 NA
ATOM      4  C   UNL     1       1.542   0.526  -0.650  0.00  0.00    +0.148 C 
ATOM      5  C   UNL     1       2.572  -0.099   0.007  0.00  0.00    +0.150 C 
ENDROOT
BRANCH   5   8
ATOM      6  O   UNL     1       4.048   1.714   0.292  0.00  0.00    -0.269 OA
ATOM      7  N   UNL     1       4.733  -0.316   1.111  0.00  0.00    -0.324 N 
ATOM      8  C   UNL     1       3.793   0.493   0.453  0.00  0.00    +0.259 C 
ATOM      9  H   UNL     1       5.581   0.072   1.427  0.00  0.00    +0.145 HD
ATOM     10  H   UNL     1       4.543  -1.271   1.257  0.00  0.00    +0.145 HD
ENDBRANCH   5   8
BRANCH   1  11
ATOM     11  C   UNL     1      -0.649  -0.378  -1.490  0.00  0.00    +0.127 C 
BRANCH  11  14
ATOM     12  F   UNL     1      -1.396   2.280  -0.899  0.00  0.00    -0.204 F 
ATOM     13  F   UNL     1      -2.127  -2.344  -0.103  0.00  0.00    -0.204 F 
ATOM     14  C   UNL     1      -1.735  -0.040  -0.525  0.00  0.00    +0.051 C 
ATOM     15  C   UNL     1      -2.057   1.294  -0.276  0.00  0.00    +0.140 C 
ATOM     16  C   UNL     1      -2.429  -1.059   0.129  0.00  0.00    +0.140 C 
ATOM     17  C   UNL     1      -3.073   1.610   0.626  0.00  0.00    +0.030 C 
ATOM     18  C   UNL     1      -3.445  -0.743   1.031  0.00  0.00    +0.030 C 
ATOM     19  C   UNL     1      -3.767   0.592   1.280  0.00  0.00    +0.005 C 
ENDBRANCH  11  14
ENDBRANCH   1  11
TORSDOF 3
