REMARK  Name = 644020
REMARK  0 active torsions:
REMARK  status: ('A' for Active; 'I' for Inactive)
REMARK                            x       y       z     vdW  Elec       q    Type
REMARK                         _______ _______ _______ _____ _____    ______ ____
ROOT
ATOM      1  N   UNL     1      -1.503   0.500   0.615  0.00  0.00    +0.388 N 
ATOM      2  N   UNL     1       1.103  -0.703   0.235  0.00  0.00    +0.388 N 
ATOM      3  C   UNL     1      -0.339   0.202  -1.605  0.00  0.00    -0.040 C 
ATOM      4  C   UNL     1       0.610   1.757   0.052  0.00  0.00    -0.040 C 
ATOM      5  C   UNL     1      -1.685   0.189  -0.819  0.00  0.00    -0.060 C 
ATOM      6  C   UNL     1       1.590   0.655   0.552  0.00  0.00    -0.060 C 
ATOM      7  C   UNL     1       0.304   1.581  -1.437  0.00  0.00    -0.008 C 
ATOM      8  C   UNL     1      -0.732   1.736   0.824  0.00  0.00    -0.079 C 
ATOM      9  C   UNL     1       0.690  -0.866  -1.163  0.00  0.00    -0.079 C 
ATOM     10  C   UNL     1      -2.426  -1.150  -0.985  0.00  0.00    -0.021 C 
ATOM     11  C   UNL     1       3.026   0.899   0.039  0.00  0.00    -0.021 C 
ATOM     12  C   UNL     1      -2.786   0.566   1.327  0.00  0.00    -0.077 C 
ATOM     13  C   UNL     1       2.027  -1.747   0.686  0.00  0.00    -0.077 C 
ATOM     14  C   UNL     1      -3.765  -1.133  -0.254  0.00  0.00    -0.004 C 
ATOM     15  C   UNL     1       3.987  -0.176   0.537  0.00  0.00    -0.004 C 
ATOM     16  C   UNL     1      -3.563  -0.744   1.205  0.00  0.00    -0.023 C 
ATOM     17  C   UNL     1       3.463  -1.565   0.193  0.00  0.00    -0.023 C 
ATOM     18  H   UNL     1      -0.964  -0.272   1.007  0.00  0.00    -0.080 HD
ATOM     19  H   UNL     1       0.248  -0.823   0.778  0.00  0.00    -0.080 HD
ENDROOT
TORSDOF 0
