REMARK  Name = 10915062
REMARK  5 active torsions:
REMARK  status: ('A' for Active; 'I' for Inactive)
REMARK    1  A    between atoms: N_1  and  C_18
REMARK    2  A    between atoms: C_3  and  C_27
REMARK    3  A    between atoms: C_5  and  N_7
REMARK    4  A    between atoms: N_8  and  C_12
REMARK    5  A    between atoms: C_21  and  N_24
REMARK                            x       y       z     vdW  Elec       q    Type
REMARK                         _______ _______ _______ _____ _____    ______ ____
ROOT
ATOM      1  N   UNL     1       2.008   0.257   0.096  0.00  0.00    -0.177 N 
ATOM      2  N   UNL     1       3.175  -0.392  -0.055  0.00  0.00    -0.177 NA
ATOM      3  C   UNL     1       2.774  -1.630   0.038  0.00  0.00    +0.079 C 
ATOM      4  C   UNL     1       1.438  -1.847   0.238  0.00  0.00    +0.048 C 
ATOM      5  C   UNL     1       0.937  -0.569   0.276  0.00  0.00    +0.129 C 
ENDROOT
BRANCH   5   7
ATOM      6  O   UNL     1      -1.602  -1.881  -0.480  0.00  0.00    -0.252 OA
ATOM      7  N   UNL     1      -0.348  -0.126   0.450  0.00  0.00    -0.255 N 
ATOM      8  N   UNL     1      -2.658  -0.004   0.424  0.00  0.00    -0.268 N 
ATOM      9  C   UNL     1      -1.546  -0.787   0.072  0.00  0.00    +0.309 C 
ATOM     10  H   UNL     1      -0.452   0.751   0.886  0.00  0.00    +0.158 HD
ATOM     11  H   UNL     1      -2.459   0.855   0.863  0.00  0.00    +0.156 HD
BRANCH   8  12
ATOM     12  C   UNL     1      -4.028  -0.295   0.226  0.00  0.00    +0.052 C 
ATOM     13  C   UNL     1      -4.983   0.616   0.647  0.00  0.00    +0.015 C 
ATOM     14  C   UNL     1      -4.387  -1.485  -0.386  0.00  0.00    +0.015 C 
ATOM     15  C   UNL     1      -6.334   0.329   0.451  0.00  0.00    +0.001 C 
ATOM     16  C   UNL     1      -5.738  -1.772  -0.582  0.00  0.00    +0.001 C 
ATOM     17  C   UNL     1      -6.711  -0.865  -0.163  0.00  0.00    +0.000 C 
ENDBRANCH   8  12
ENDBRANCH   5   7
BRANCH   1  18
ATOM     18  C   UNL     1       1.985   1.652   0.060  0.00  0.00    +0.076 C 
ATOM     19  C   UNL     1       0.852   2.306  -0.406  0.00  0.00    +0.031 C 
ATOM     20  C   UNL     1       3.096   2.366   0.489  0.00  0.00    +0.017 C 
ATOM     21  C   UNL     1       0.830   3.701  -0.443  0.00  0.00    +0.043 C 
ATOM     22  C   UNL     1       3.074   3.760   0.451  0.00  0.00    +0.003 C 
ATOM     23  C   UNL     1       1.941   4.427  -0.015  0.00  0.00    +0.014 C 
BRANCH  21  24
ATOM     24  N   UNL     1      -0.315   4.376  -0.913  0.00  0.00    -0.357 N 
ATOM     25  H   UNL     1      -1.100   3.864  -1.216  0.00  0.00    +0.142 HD
ATOM     26  H   UNL     1      -0.331   5.360  -0.938  0.00  0.00    +0.142 HD
ENDBRANCH  21  24
ENDBRANCH   1  18
BRANCH   3  27
ATOM     27  C   UNL     1       3.845  -2.728  -0.085  0.00  0.00    +0.037 C 
ATOM     28  C   UNL     1       3.527  -3.654  -1.282  0.00  0.00    +0.006 C 
ATOM     29  C   UNL     1       3.893  -3.576   1.207  0.00  0.00    +0.006 C 
ATOM     30  C   UNL     1       5.273  -2.179  -0.313  0.00  0.00    +0.006 C 
ENDBRANCH   3  27
TORSDOF 5
