REMARK  Name = 17754396
REMARK  3 active torsions:
REMARK  status: ('A' for Active; 'I' for Inactive)
REMARK    1  A    between atoms: C_14  and  N_23
REMARK    2  A    between atoms: C_17  and  O_26
REMARK    3  A    between atoms: C_18  and  O_28
REMARK                            x       y       z     vdW  Elec       q    Type
REMARK                         _______ _______ _______ _____ _____    ______ ____
ROOT
ATOM      1  N   UNL     1      -3.039  -1.496   0.258  0.00  0.00    -0.388 NA
ATOM      2  N   UNL     1       1.603  -2.679  -0.269  0.00  0.00    -0.248 NA
ATOM      3  C   UNL     1      -0.348  -0.604  -0.077  0.00  0.00    +0.009 C 
ATOM      4  C   UNL     1      -1.484   0.321  -0.123  0.00  0.00    +0.030 C 
ATOM      5  C   UNL     1       1.089  -0.319  -0.091  0.00  0.00    +0.017 C 
ATOM      6  C   UNL     1      -0.688  -1.968  -0.011  0.00  0.00    +0.063 C 
ATOM      7  C   UNL     1      -2.790  -0.196   0.095  0.00  0.00    +0.130 C 
ATOM      8  C   UNL     1       1.996  -1.405  -0.231  0.00  0.00    +0.067 C 
ATOM      9  C   UNL     1      -3.892   0.653   0.119  0.00  0.00    +0.021 C 
ATOM     10  C   UNL     1      -2.009  -2.350   0.163  0.00  0.00    +0.178 C 
ATOM     11  C   UNL     1      -1.416   1.706  -0.426  0.00  0.00    +0.004 C 
ATOM     12  C   UNL     1       1.684   0.958   0.083  0.00  0.00    +0.041 C 
ATOM     13  C   UNL     1       0.295  -2.938  -0.120  0.00  0.00    +0.102 C 
ATOM     14  C   UNL     1      -3.775   2.018  -0.118  0.00  0.00    +0.040 C 
ATOM     15  C   UNL     1      -2.533   2.544  -0.412  0.00  0.00    +0.014 C 
ATOM     16  C   UNL     1       3.367  -1.176  -0.308  0.00  0.00    +0.113 C 
ATOM     17  C   UNL     1       3.063   1.170   0.017  0.00  0.00    +0.169 C 
ATOM     18  C   UNL     1       3.908   0.099  -0.200  0.00  0.00    +0.156 C 
ATOM     19  C   UNL     1      -5.253   0.092   0.426  0.00  0.00    +0.035 C 
ATOM     20  N   UNL     1      -2.345  -3.726   0.236  0.00  0.00    -0.333 N 
ATOM     21  H   UNL     1      -3.284  -3.998   0.359  0.00  0.00    +0.145 HD
ATOM     22  H   UNL     1      -1.641  -4.410   0.163  0.00  0.00    +0.145 HD
ENDROOT
BRANCH  14  23
ATOM     23  N   UNL     1      -4.891   2.876  -0.034  0.00  0.00    -0.357 N 
ATOM     24  H   UNL     1      -5.780   2.508   0.176  0.00  0.00    +0.142 HD
ATOM     25  H   UNL     1      -4.781   3.843  -0.184  0.00  0.00    +0.142 HD
ENDBRANCH  14  23
BRANCH  17  26
ATOM     26  O   UNL     1       3.558   2.431   0.151  0.00  0.00    -0.469 OA
ATOM     27  C   UNL     1       2.614   3.478   0.372  0.00  0.00    +0.253 C 
ENDBRANCH  17  26
BRANCH  18  28
ATOM     28  O   UNL     1       5.248   0.280  -0.342  0.00  0.00    -0.472 OA
ATOM     29  C   UNL     1       6.040   0.232   0.844  0.00  0.00    +0.252 C 
ENDBRANCH  18  28
TORSDOF 3
