REMARK  Name = 160355
REMARK  7 active torsions:
REMARK  status: ('A' for Active; 'I' for Inactive)
REMARK    1  A    between atoms: N_1  and  C_12
REMARK    2  A    between atoms: N_2  and  CA_24
REMARK    3  A    between atoms: N_15  and  C_17
REMARK    4  A    between atoms: C_17  and  C_18
REMARK    5  A    between atoms: CA_24  and  C_25
REMARK    6  A    between atoms: CA_24  and  C_27
REMARK    7  A    between atoms: C_27  and  O_28
REMARK                            x       y       z     vdW  Elec       q    Type
REMARK                         _______ _______ _______ _____ _____    ______ ____
ROOT
ATOM      1  N   UNL     1       1.748   2.693  -0.159  0.00  0.00    -0.262 N 
ATOM      2  N   UNL     1       2.059  -2.043   0.046  0.00  0.00    -0.258 N 
ATOM      3  N   UNL     1       2.115   0.294  -0.059  0.00  0.00    -0.311 NA
ATOM      4  N   UNL     1      -0.481   2.741  -0.112  0.00  0.00    -0.240 NA
ATOM      5  N   UNL     1       0.002  -0.923   0.042  0.00  0.00    -0.311 NA
ATOM      6  C   UNL     1       1.343   1.390  -0.091  0.00  0.00    +0.220 C 
ATOM      7  C   UNL     1      -0.042   1.442  -0.064  0.00  0.00    +0.167 C 
ATOM      8  C   UNL     1      -0.715   0.226   0.006  0.00  0.00    +0.215 C 
ATOM      9  C   UNL     1       1.368  -0.847   0.009  0.00  0.00    +0.202 C 
ATOM     10  C   UNL     1       0.617   3.466  -0.168  0.00  0.00    +0.222 C 
ATOM     11  H   UNL     1       1.541  -2.879   0.096  0.00  0.00    +0.160 HD
ATOM     12  N   UNL     1      -2.120   0.184   0.038  0.00  0.00    -0.302 N 
ATOM     13  H   UNL     1      -2.616   1.034   0.010  0.00  0.00    +0.150 HD
ENDROOT
BRANCH   1  14
ATOM     14  C   UNL     1       3.107   3.174  -0.210  0.00  0.00    +0.077 C 
ATOM     15  C   UNL     1       3.888   2.816   1.056  0.00  0.00    +0.022 C 
ATOM     16  C   UNL     1       3.833   2.706  -1.472  0.00  0.00    +0.022 C 
ENDBRANCH   1  14
BRANCH  12  17
ATOM     17  C   UNL     1      -2.864  -1.038   0.109  0.00  0.00    +0.116 C 
BRANCH  17  18
ATOM     18  C   UNL     1      -4.341  -0.759   0.091  0.00  0.00    -0.003 C 
ATOM     19  C   UNL     1      -5.016  -0.561   1.289  0.00  0.00    -0.003 C 
ATOM     20  C   UNL     1      -5.013  -0.702  -1.123  0.00  0.00    -0.003 C 
ATOM     21  C   UNL     1      -6.386  -0.301   1.272  0.00  0.00    -0.000 C 
ATOM     22  C   UNL     1      -6.384  -0.443  -1.139  0.00  0.00    -0.000 C 
ATOM     23  C   UNL     1      -7.070  -0.242   0.058  0.00  0.00    -0.000 C 
ENDBRANCH  17  18
ENDBRANCH  12  17
BRANCH   2  24
ATOM     24  CA  UNL     1       3.507  -2.132   0.015  0.00  0.00    +0.109 C 
BRANCH  24  25
ATOM     25  C   UNL     1       3.932  -3.538  -0.428  0.00  0.00    +0.023 C 
ATOM     26  C   UNL     1       3.393  -3.910  -1.804  0.00  0.00    +0.002 C 
ENDBRANCH  24  25
BRANCH  24  27
ATOM     27  C   UNL     1       4.049  -1.813   1.408  0.00  0.00    +0.157 C 
BRANCH  27  28
ATOM     28  O   UNL     1       5.471  -1.880   1.388  0.00  0.00    -0.380 OA
ATOM     29  H   UNL     1       5.816  -1.677   2.271  0.00  0.00    +0.211 HD
ENDBRANCH  27  28
ENDBRANCH  24  27
ENDBRANCH   2  24
TORSDOF 7
