REMARK  Name = 6852165
REMARK  5 active torsions:
REMARK  status: ('A' for Active; 'I' for Inactive)
REMARK    1  A    between atoms: N_3  and  C_13
REMARK    2  A    between atoms: C_5  and  C_21
REMARK    3  A    between atoms: C_14  and  O_19
REMARK    4  A    between atoms: C_21  and  S_22
REMARK    5  A    between atoms: S_22  and  C_27
REMARK                            x       y       z     vdW  Elec       q    Type
REMARK                         _______ _______ _______ _____ _____    ______ ____
ROOT
ATOM      1 CL   UNL     1       5.912  -0.976  -0.525  0.00  0.00    -0.082 Cl
ATOM      2  O   UNL     1       3.369  -1.757  -0.162  0.00  0.00    -0.269 OA
ATOM      3  N   UNL     1       1.447  -0.484   0.323  0.00  0.00    -0.208 N 
ATOM      4  N   UNL     1       1.677   1.860   0.660  0.00  0.00    -0.394 NA
ATOM      5  C   UNL     1       0.943   0.793   0.580  0.00  0.00    +0.181 C 
ATOM      6  C   UNL     1       3.658   0.535   0.116  0.00  0.00    +0.091 C 
ATOM      7  C   UNL     1       2.819  -0.680   0.057  0.00  0.00    +0.261 C 
ATOM      8  C   UNL     1       3.054   1.750   0.440  0.00  0.00    +0.120 C 
ATOM      9  C   UNL     1       5.035   0.463  -0.122  0.00  0.00    +0.064 C 
ATOM     10  C   UNL     1       3.847   2.901   0.522  0.00  0.00    +0.085 C 
ATOM     11  C   UNL     1       5.814   1.617  -0.037  0.00  0.00    +0.007 C 
ATOM     12  C   UNL     1       5.221   2.835   0.286  0.00  0.00    -0.018 C 
ENDROOT
BRANCH   3  13
ATOM     13  C   UNL     1       0.615  -1.655   0.360  0.00  0.00    +0.094 C 
ATOM     14  C   UNL     1      -0.003  -2.114  -0.797  0.00  0.00    +0.153 C 
ATOM     15  C   UNL     1       0.440  -2.319   1.569  0.00  0.00    +0.018 C 
ATOM     16  C   UNL     1      -0.807  -3.252  -0.745  0.00  0.00    +0.038 C 
ATOM     17  C   UNL     1      -0.364  -3.457   1.621  0.00  0.00    +0.001 C 
ATOM     18  C   UNL     1      -0.988  -3.924   0.464  0.00  0.00    +0.003 C 
BRANCH  14  19
ATOM     19  O   UNL     1       0.161  -1.472  -1.989  0.00  0.00    -0.470 OA
ATOM     20  C   UNL     1      -0.515  -2.021  -3.118  0.00  0.00    +0.253 C 
ENDBRANCH  14  19
ENDBRANCH   3  13
BRANCH   5  21
ATOM     21  C   UNL     1      -0.550   1.008   0.726  0.00  0.00    +0.139 C 
BRANCH  21  22
ATOM     22  S   UNL     1      -1.220   1.304  -0.916  0.00  0.00    -0.089 S 
BRANCH  22  27
ATOM     23  N   UNL     1      -3.513  -0.623   0.514  0.00  0.00    -0.271 NA
ATOM     24  N   UNL     1      -3.493   2.769  -0.906  0.00  0.00    -0.241 NA
ATOM     25  N   UNL     1      -5.659  -0.173   0.912  0.00  0.00    -0.307 N 
ATOM     26  N   UNL     1      -5.657   2.071  -0.024  0.00  0.00    -0.232 NA
ATOM     27  C   UNL     1      -2.954   1.595  -0.564  0.00  0.00    +0.103 C 
ATOM     28  C   UNL     1      -3.720   0.642   0.043  0.00  0.00    +0.156 C 
ATOM     29  C   UNL     1      -5.060   0.899   0.302  0.00  0.00    +0.124 C 
ATOM     30  C   UNL     1      -4.703  -1.070   1.025  0.00  0.00    +0.163 C 
ATOM     31  C   UNL     1      -4.805   2.935  -0.617  0.00  0.00    +0.252 C 
ATOM     32  H   UNL     1      -2.665  -1.122   0.490  0.00  0.00    +0.125 HD
ATOM     33  H   UNL     1      -6.597  -0.254   1.202  0.00  0.00    +0.149 HD
ENDBRANCH  22  27
ENDBRANCH  21  22
ENDBRANCH   5  21
TORSDOF 5
