REMARK  Name = 44224257
REMARK  7 active torsions:
REMARK  status: ('A' for Active; 'I' for Inactive)
REMARK    1  A    between atoms: N_5  and  O_24
REMARK    2  A    between atoms: C_6  and  C_18
REMARK    3  A    between atoms: C_6  and  C_26
REMARK    4  A    between atoms: C_7  and  C_12
REMARK    5  A    between atoms: C_26  and  C_27
REMARK    6  A    between atoms: C_27  and  C_28
REMARK    7  A    between atoms: C_28  and  N_29
REMARK                            x       y       z     vdW  Elec       q    Type
REMARK                         _______ _______ _______ _____ _____    ______ ____
ROOT
ATOM      1  S   UNL     1       0.207   1.252   1.289  0.00  0.00    -0.070 S 
ATOM      2  O   UNL     1      -2.968  -1.468  -0.632  0.00  0.00    -0.248 OA
ATOM      3  N   UNL     1      -0.892  -0.557  -0.288  0.00  0.00    -0.152 N 
ATOM      4  N   UNL     1       0.436  -0.493  -0.622  0.00  0.00    -0.167 NA
ATOM      5  N   UNL     1      -1.288  -2.261  -1.932  0.00  0.00    -0.149 N 
ATOM      6  C   UNL     1      -1.334   0.368   0.793  0.00  0.00    +0.146 C 
ATOM      7  C   UNL     1       1.105   0.362   0.085  0.00  0.00    +0.128 C 
ATOM      8  C   UNL     1      -1.768  -1.433  -0.941  0.00  0.00    +0.350 C 
ATOM      9  C   UNL     1      -2.074  -2.725  -3.065  0.00  0.00    +0.150 C 
ENDROOT
BRANCH   7  12
ATOM     10  F   UNL     1       2.375   0.049  -2.416  0.00  0.00    -0.204 F 
ATOM     11  F   UNL     1       5.474   1.587   1.820  0.00  0.00    -0.204 F 
ATOM     12  C   UNL     1       2.555   0.596  -0.112  0.00  0.00    +0.055 C 
ATOM     13  C   UNL     1       3.127   0.425  -1.373  0.00  0.00    +0.142 C 
ATOM     14  C   UNL     1       3.347   0.988   0.966  0.00  0.00    +0.034 C 
ATOM     15  C   UNL     1       4.713   1.210   0.784  0.00  0.00    +0.140 C 
ATOM     16  C   UNL     1       4.492   0.647  -1.555  0.00  0.00    +0.032 C 
ATOM     17  C   UNL     1       5.285   1.039  -0.476  0.00  0.00    +0.032 C 
ENDBRANCH   7  12
BRANCH   6  18
ATOM     18  C   UNL     1      -2.356   1.396   0.300  0.00  0.00    +0.006 C 
ATOM     19  C   UNL     1      -3.578   1.536   0.957  0.00  0.00    -0.002 C 
ATOM     20  C   UNL     1      -2.065   2.192  -0.808  0.00  0.00    -0.002 C 
ATOM     21  C   UNL     1      -4.510   2.472   0.507  0.00  0.00    -0.000 C 
ATOM     22  C   UNL     1      -2.996   3.128  -1.258  0.00  0.00    -0.000 C 
ATOM     23  C   UNL     1      -4.218   3.268  -0.601  0.00  0.00    -0.000 C 
ENDBRANCH   6  18
BRANCH   5  24
ATOM     24  O   UNL     1       0.080  -2.505  -2.130  0.00  0.00    -0.259 OA
ATOM     25  C   UNL     1       0.469  -3.634  -1.350  0.00  0.00    +0.206 C 
ENDBRANCH   5  24
BRANCH   6  26
ATOM     26  C   UNL     1      -1.759  -0.457   2.023  0.00  0.00    +0.033 C 
BRANCH  26  27
ATOM     27  C   UNL     1      -0.685  -1.472   2.405  0.00  0.00    -0.021 C 
BRANCH  27  28
ATOM     28  C   UNL     1      -1.099  -2.264   3.644  0.00  0.00    -0.086 C 
BRANCH  28  29
ATOM     29  N   UNL     1      -0.074  -3.243   3.985  0.00  0.00    +0.380 N 
ATOM     30  H   UNL     1      -0.363  -3.763   4.814  0.00  0.00    -0.089 HD
ATOM     31  H   UNL     1       0.806  -2.763   4.175  0.00  0.00    -0.089 HD
ATOM     32  H   UNL     1       0.052  -3.889   3.206  0.00  0.00    -0.089 HD
ENDBRANCH  28  29
ENDBRANCH  27  28
ENDBRANCH  26  27
ENDBRANCH   6  26
TORSDOF 7
