REMARK  Name = 42615253
REMARK  6 active torsions:
REMARK  status: ('A' for Active; 'I' for Inactive)
REMARK    1  A    between atoms: C_3  and  C_10
REMARK    2  A    between atoms: C_7  and  C_20
REMARK    3  A    between atoms: N_9  and  C_12
REMARK    4  A    between atoms: C_12  and  C_14
REMARK    5  A    between atoms: C_20  and  C_21
REMARK    6  A    between atoms: C_21  and  C_22
REMARK                            x       y       z     vdW  Elec       q    Type
REMARK                         _______ _______ _______ _____ _____    ______ ____
ROOT
ATOM      1  O   UNL     1       2.561  -0.869   1.286  0.00  0.00    -0.275 OA
ATOM      2  N   UNL     1       1.711   1.034   0.281  0.00  0.00    -0.273 N 
ATOM      3  C   UNL     1       0.448   1.056   1.007  0.00  0.00    +0.152 C 
ATOM      4  C   UNL     1      -0.116   2.451   0.761  0.00  0.00    +0.031 C 
ATOM      5  C   UNL     1       0.450   2.827  -0.606  0.00  0.00    +0.024 C 
ATOM      6  C   UNL     1       1.834   2.196  -0.596  0.00  0.00    +0.094 C 
ATOM      7  C   UNL     1       2.702   0.100   0.538  0.00  0.00    +0.226 C 
ENDROOT
BRANCH   3  10
ATOM      8  O   UNL     1      -0.330  -0.338  -0.768  0.00  0.00    -0.273 OA
ATOM      9  N   UNL     1      -1.318  -0.529   1.332  0.00  0.00    -0.299 N 
ATOM     10  C   UNL     1      -0.423  -0.009   0.412  0.00  0.00    +0.241 C 
ATOM     11  H   UNL     1      -1.296  -0.183   2.254  0.00  0.00    +0.150 HD
BRANCH   9  12
ATOM     12  C   UNL     1      -2.283  -1.553   1.004  0.00  0.00    +0.116 C 
BRANCH  12  14
ATOM     13 CL   UNL     1      -5.513  -0.487  -2.939  0.00  0.00    -0.082 Cl
ATOM     14  C   UNL     1      -3.583  -0.970   0.531  0.00  0.00    -0.002 C 
ATOM     15  C   UNL     1      -3.907  -0.997  -0.826  0.00  0.00    +0.009 C 
ATOM     16  C   UNL     1      -4.467  -0.401   1.448  0.00  0.00    -0.003 C 
ATOM     17  C   UNL     1      -5.115  -0.456  -1.265  0.00  0.00    +0.057 C 
ATOM     18  C   UNL     1      -5.675   0.140   1.008  0.00  0.00    +0.001 C 
ATOM     19  C   UNL     1      -5.999   0.113  -0.348  0.00  0.00    +0.011 C 
ENDBRANCH  12  14
ENDBRANCH   9  12
ENDBRANCH   3  10
BRANCH   7  20
ATOM     20  C   UNL     1       4.010   0.327  -0.176  0.00  0.00    +0.085 C 
BRANCH  20  21
ATOM     21  C   UNL     1       4.984  -0.775   0.210  0.00  0.00    +0.010 C 
BRANCH  21  22
ATOM     22  C   UNL     1       6.378  -0.588  -0.416  0.00  0.00    +0.000 C 
ATOM     23  C   UNL     1       6.332  -0.578  -1.945  0.00  0.00    +0.000 C 
ATOM     24  C   UNL     1       7.317  -1.696   0.065  0.00  0.00    +0.000 C 
ENDBRANCH  21  22
ENDBRANCH  20  21
ENDBRANCH   7  20
TORSDOF 6
