REMARK  Name = 219078
REMARK  6 active torsions:
REMARK  status: ('A' for Active; 'I' for Inactive)
REMARK    1  A    between atoms: N_2  and  C_14
REMARK    2  A    between atoms: C_3  and  C_5
REMARK    3  A    between atoms: C_5  and  N_7
REMARK    4  A    between atoms: C_5  and  C_11
REMARK    5  A    between atoms: C_11  and  O_12
REMARK    6  A    between atoms: C_14  and  C_15
REMARK                            x       y       z     vdW  Elec       q    Type
REMARK                         _______ _______ _______ _____ _____    ______ ____
ROOT
ATOM      1  O   UNL     1      -0.502  -0.606  -1.551  0.00  0.00    -0.273 OA
ATOM      2  N   UNL     1       0.303  -1.353   0.493  0.00  0.00    -0.299 N 
ATOM      3  C   UNL     1      -0.622  -0.733  -0.335  0.00  0.00    +0.243 C 
ATOM      4  H   UNL     1       0.114  -1.403   1.458  0.00  0.00    +0.150 HD
ENDROOT
BRANCH   3   5
ATOM      5  C   UNL     1      -1.806  -0.172   0.447  0.00  0.00    +0.178 C 
BRANCH   5   7
ATOM      6  O   UNL     1      -4.537  -0.652   1.306  0.00  0.00    -0.275 OA
ATOM      7  N   UNL     1      -2.979  -0.271  -0.382  0.00  0.00    -0.296 N 
ATOM      8  C   UNL     1      -4.251  -0.503   0.121  0.00  0.00    +0.223 C 
ATOM      9  C   UNL     1      -5.299  -0.534  -0.959  0.00  0.00    +0.095 C 
ATOM     10  H   UNL     1      -2.873  -0.167  -1.356  0.00  0.00    +0.150 HD
ENDBRANCH   5   7
BRANCH   5  11
ATOM     11  C   UNL     1      -1.557   1.260   0.909  0.00  0.00    +0.171 C 
BRANCH  11  12
ATOM     12  O   UNL     1      -1.329   2.107  -0.212  0.00  0.00    -0.349 OA
ATOM     13  C   UNL     1      -1.129   3.455   0.188  0.00  0.00    +0.174 C 
ENDBRANCH  11  12
ENDBRANCH   5  11
ENDBRANCH   3   5
BRANCH   2  14
ATOM     14  C   UNL     1       1.534  -1.927  -0.001  0.00  0.00    +0.116 C 
BRANCH  14  15
ATOM     15  C   UNL     1       2.657  -0.931  -0.003  0.00  0.00    -0.003 C 
ATOM     16  C   UNL     1       2.877  -0.143  -1.126  0.00  0.00    -0.003 C 
ATOM     17  C   UNL     1       3.468  -0.807   1.120  0.00  0.00    -0.003 C 
ATOM     18  C   UNL     1       3.921   0.781  -1.128  0.00  0.00    -0.000 C 
ATOM     19  C   UNL     1       4.512   0.117   1.119  0.00  0.00    -0.000 C 
ATOM     20  C   UNL     1       4.739   0.912  -0.006  0.00  0.00    -0.000 C 
ENDBRANCH  14  15
ENDBRANCH   2  14
TORSDOF 6
