REMARK  Name = 6918339
REMARK  4 active torsions:
REMARK  status: ('A' for Active; 'I' for Inactive)
REMARK    1  A    between atoms: C_5  and  O_19
REMARK    2  A    between atoms: C_18  and  O_21
REMARK    3  A    between atoms: O_21  and  S_22
REMARK    4  A    between atoms: S_22  and  N_25
REMARK                            x       y       z     vdW  Elec       q    Type
REMARK                         _______ _______ _______ _____ _____    ______ ____
ROOT
ATOM      1  C   UNL     1       3.796   0.749   0.153  0.00  0.00    +0.025 C 
ATOM      2  C   UNL     1       3.277  -0.619  -0.332  0.00  0.00    +0.003 C 
ATOM      3  C   UNL     1       1.816  -0.852   0.053  0.00  0.00    +0.004 C 
ATOM      4  C   UNL     1       0.941   0.245  -0.626  0.00  0.00    +0.022 C 
ATOM      5  C   UNL     1       5.258   0.642  -0.319  0.00  0.00    +0.110 C 
ATOM      6  C   UNL     1       2.974   1.844  -0.537  0.00  0.00    +0.003 C 
ATOM      7  C   UNL     1       4.343  -1.597   0.154  0.00  0.00    +0.003 C 
ATOM      8  C   UNL     1       1.463   1.668  -0.290  0.00  0.00    +0.004 C 
ATOM      9  C   UNL     1       5.658  -0.805   0.030  0.00  0.00    +0.029 C 
ATOM     10  C   UNL     1       1.308  -2.230  -0.376  0.00  0.00    +0.005 C 
ATOM     11  C   UNL     1       3.739   0.958   1.688  0.00  0.00    +0.002 C 
ATOM     12  C   UNL     1      -0.543   0.018  -0.349  0.00  0.00    -0.026 C 
ATOM     13  C   UNL     1      -0.102  -2.451   0.162  0.00  0.00    +0.026 C 
ATOM     14  C   UNL     1      -1.023  -1.269  -0.020  0.00  0.00    -0.023 C 
ATOM     15  C   UNL     1      -1.479   1.057  -0.500  0.00  0.00    -0.001 C 
ATOM     16  C   UNL     1      -2.397  -1.470   0.200  0.00  0.00    +0.035 C 
ATOM     17  C   UNL     1      -2.842   0.842  -0.288  0.00  0.00    +0.039 C 
ATOM     18  C   UNL     1      -3.301  -0.420   0.066  0.00  0.00    +0.172 C 
ENDROOT
BRANCH   5  19
ATOM     19  O   UNL     1       6.111   1.586   0.301  0.00  0.00    -0.384 OA
ATOM     20  H   UNL     1       5.830   2.483   0.059  0.00  0.00    +0.210 HD
ENDBRANCH   5  19
BRANCH  18  21
ATOM     21  O   UNL     1      -4.629  -0.631   0.275  0.00  0.00    -0.349 OA
BRANCH  21  22
ATOM     22  S   UNL     1      -5.766   0.543   0.133  0.00  0.00    +0.086 S 
ATOM     23  O   UNL     1      -5.835   0.945  -1.260  0.00  0.00    -0.046 OA
ATOM     24  O   UNL     1      -5.542   1.524   1.179  0.00  0.00    -0.046 OA
BRANCH  22  25
ATOM     25  N   UNL     1      -7.226  -0.278   0.503  0.00  0.00    -0.194 NA
ATOM     26  H   UNL     1      -7.415  -0.977  -0.215  0.00  0.00    +0.145 HD
ATOM     27  H   UNL     1      -7.995   0.393   0.534  0.00  0.00    +0.145 HD
ENDBRANCH  22  25
ENDBRANCH  21  22
ENDBRANCH  18  21
TORSDOF 4
