REMARK  Name = 4101
REMARK  0 active torsions:
REMARK  status: ('A' for Active; 'I' for Inactive)
REMARK                            x       y       z     vdW  Elec       q    Type
REMARK                         _______ _______ _______ _____ _____    ______ ____
ROOT
ATOM      1  N   UNL     1       0.748  -1.114   0.682  0.00  0.00    +0.349 N 
ATOM      2  N   UNL     1      -0.817  -0.563  -1.132  0.00  0.00    +0.349 N 
ATOM      3  N   UNL     1       0.981   1.005  -0.541  0.00  0.00    +0.349 N 
ATOM      4  N   UNL     1      -0.912   0.672   0.991  0.00  0.00    +0.349 N 
ATOM      5  C   UNL     1      -0.068  -1.641  -0.440  0.00  0.00    -0.173 C 
ATOM      6  C   UNL     1       1.692  -0.106   0.138  0.00  0.00    -0.173 C 
ATOM      7  C   UNL     1      -0.161  -0.433   1.637  0.00  0.00    -0.173 C 
ATOM      8  C   UNL     1       0.161   0.433  -1.637  0.00  0.00    -0.173 C 
ATOM      9  C   UNL     1      -1.692   0.107  -0.138  0.00  0.00    -0.173 C 
ATOM     10  C   UNL     1       0.068   1.641   0.441  0.00  0.00    -0.173 C 
ATOM     11  H   UNL     1       1.254  -1.869   1.144  0.00  0.00    -0.089 HD
ATOM     12  H   UNL     1      -1.370  -0.945  -1.899  0.00  0.00    -0.089 HD
ATOM     13  H   UNL     1       1.646   1.686  -0.907  0.00  0.00    -0.089 HD
ATOM     14  H   UNL     1      -1.530   1.127   1.662  0.00  0.00    -0.089 HD
ENDROOT
TORSDOF 0
