REMARK  Name = 213041
REMARK  2 active torsions:
REMARK  status: ('A' for Active; 'I' for Inactive)
REMARK    1  A    between atoms: C_2  and  C_13
REMARK    2  A    between atoms: C_2  and  C_18
REMARK                            x       y       z     vdW  Elec       q    Type
REMARK                         _______ _______ _______ _____ _____    ______ ____
ROOT
ATOM      1  F   UNL     1      -4.539  -0.755  -1.108  0.00  0.00    -0.204 F 
ATOM      2  C   UNL     1       1.019   0.963   0.202  0.00  0.00    +0.040 C 
ATOM      3  C   UNL     1      -0.025   1.276  -0.920  0.00  0.00    +0.032 C 
ATOM      4  C   UNL     1       0.150   0.829   1.497  0.00  0.00    +0.032 C 
ATOM      5  C   UNL     1      -1.251   0.575  -0.420  0.00  0.00    -0.024 C 
ATOM      6  C   UNL     1      -1.153   0.325   0.951  0.00  0.00    -0.026 C 
ATOM      7  C   UNL     1      -2.387   0.230  -1.131  0.00  0.00    +0.025 C 
ATOM      8  C   UNL     1      -2.190  -0.278   1.643  0.00  0.00    -0.002 C 
ATOM      9  C   UNL     1      -3.434  -0.390  -0.445  0.00  0.00    +0.140 C 
ATOM     10  C   UNL     1      -3.336  -0.641   0.932  0.00  0.00    +0.029 C 
ENDROOT
BRANCH   2  13
ATOM     11  N   UNL     1       2.722  -0.809   0.899  0.00  0.00    -0.319 N 
ATOM     12  N   UNL     1       2.738  -2.261  -0.780  0.00  0.00    -0.315 N 
ATOM     13  C   UNL     1       1.830  -0.349  -0.016  0.00  0.00    +0.037 C 
ATOM     14  C   UNL     1       1.850  -1.249  -1.041  0.00  0.00    +0.069 C 
ATOM     15  C   UNL     1       3.247  -1.966   0.396  0.00  0.00    +0.182 C 
ATOM     16  H   UNL     1       2.947  -0.389   1.761  0.00  0.00    +0.148 HD
ATOM     17  H   UNL     1       2.949  -3.038  -1.348  0.00  0.00    +0.148 HD
ENDBRANCH   2  13
BRANCH   2  18
ATOM     18  C   UNL     1       1.980   2.165   0.308  0.00  0.00    +0.006 C 
ATOM     19  C   UNL     1       2.779   2.336  -0.966  0.00  0.00    +0.000 C 
ENDBRANCH   2  18
TORSDOF 2
