REMARK  Name = 1646
REMARK  4 active torsions:
REMARK  status: ('A' for Active; 'I' for Inactive)
REMARK    1  A    between atoms: C_1  and  C_2
REMARK    2  A    between atoms: C_1  and  C_7
REMARK    3  A    between atoms: C_2  and  S_3
REMARK    4  A    between atoms: C_7  and  N_8
REMARK                            x       y       z     vdW  Elec       q    Type
REMARK                         _______ _______ _______ _____ _____    ______ ____
ROOT
ATOM      1  C   UNL     1      -1.196   0.214  -0.003  0.00  0.00    +0.002 C 
ENDROOT
BRANCH   1   2
ATOM      2  C   UNL     1      -0.005  -0.733   0.012  0.00  0.00    +0.156 C 
BRANCH   2   3
ATOM      3  S   UNL     1       1.521   0.152  -0.016  0.00  0.00    +0.022 S 
ATOM      4  O   UNL     1       2.511  -1.125   0.209  0.00  0.00    -0.069 OA
ATOM      5  O   UNL     1       1.591   1.009   1.154  0.00  0.00    -0.069 OA
ATOM      6  O   UNL     1       1.733   0.675  -1.354  0.00  0.00    -0.069 OA
ENDBRANCH   2   3
ENDBRANCH   1   2
BRANCH   1   7
ATOM      7  C   UNL     1      -2.513  -0.558   0.002  0.00  0.00    -0.084 C 
BRANCH   7   8
ATOM      8  N   UNL     1      -3.642   0.366  -0.004  0.00  0.00    +0.380 N 
ATOM      9  H   UNL     1      -4.514  -0.163  -0.001  0.00  0.00    -0.089 HD
ATOM     10  H   UNL     1      -3.600   0.949  -0.840  0.00  0.00    -0.089 HD
ATOM     11  H   UNL     1      -3.600   0.958   0.826  0.00  0.00    -0.089 HD
ENDBRANCH   7   8
ENDBRANCH   1   7
TORSDOF 4
