REMARK  Name = 6450546
REMARK  5 active torsions:
REMARK  status: ('A' for Active; 'I' for Inactive)
REMARK    1  A    between atoms: C_6  and  C_17
REMARK    2  A    between atoms: CA_7  and  C_14
REMARK    3  A    between atoms: C_14  and  O_15
REMARK    4  A    between atoms: C_18  and  C_21
REMARK    5  A    between atoms: N_20  and  C_23
REMARK                            x       y       z     vdW  Elec       q    Type
REMARK                         _______ _______ _______ _____ _____    ______ ____
ROOT
ATOM      1 CL   UNL     1      -1.282   2.623   0.807  0.00  0.00    -0.082 Cl
ATOM      2 CL   UNL     1      -6.510   2.695  -0.552  0.00  0.00    -0.082 Cl
ATOM      3  N   UNL     1      -3.542  -1.588  -0.330  0.00  0.00    -0.348 N 
ATOM      4  C   UNL     1      -2.671   0.408   0.157  0.00  0.00    +0.028 A 
ATOM      5  C   UNL     1      -3.841  -0.247  -0.234  0.00  0.00    +0.058 A 
ATOM      6  C   UNL     1      -1.662  -0.586   0.293  0.00  0.00    +0.024 A 
ATOM      7  CA  UNL     1      -2.228  -1.802  -0.013  0.00  0.00    +0.133 A 
ATOM      8  C   UNL     1      -2.702   1.806   0.330  0.00  0.00    +0.060 C 
ATOM      9  C   UNL     1      -5.045   0.429  -0.462  0.00  0.00    +0.028 C 
ATOM     10  C   UNL     1      -3.899   2.495   0.105  0.00  0.00    +0.023 C 
ATOM     11  C   UNL     1      -5.051   1.815  -0.284  0.00  0.00    +0.060 C 
ATOM     12  H   UNL     1      -4.182  -2.290  -0.588  0.00  0.00    +0.166 HD
ENDROOT
BRANCH   7  14
ATOM     13  OXT UNL     1      -0.453  -3.391   0.249  0.00  0.00    -0.243 OA
ATOM     14  C   UNL     1      -1.630  -3.103  -0.024  0.00  0.00    +0.354 C 
BRANCH  14  15
ATOM     15  O   UNL     1      -2.511  -4.091  -0.382  0.00  0.00    -0.476 OA
ATOM     16  H   UNL     1      -3.400  -3.874  -0.588  0.00  0.00    +0.295 HD
ENDBRANCH  14  15
ENDBRANCH   7  14
BRANCH   6  17
ATOM     17  C   UNL     1      -0.306  -0.429   0.669  0.00  0.00    +0.006 C 
ATOM     18  C   UNL     1       0.769  -0.202  -0.134  0.00  0.00    +0.058 C 
BRANCH  18  21
ATOM     19  O   UNL     1       2.353  -0.145   1.638  0.00  0.00    -0.270 OA
ATOM     20  N   UNL     1       3.077   0.169  -0.573  0.00  0.00    -0.280 N 
ATOM     21  C   UNL     1       2.147  -0.059   0.433  0.00  0.00    +0.250 C 
ATOM     22  H   UNL     1       2.726   0.206  -1.492  0.00  0.00    +0.155 HD
BRANCH  20  23
ATOM     23  C   UNL     1       4.474   0.354  -0.425  0.00  0.00    +0.051 C 
ATOM     24  C   UNL     1       5.249   0.571  -1.551  0.00  0.00    +0.015 C 
ATOM     25  C   UNL     1       5.032   0.314   0.841  0.00  0.00    +0.015 C 
ATOM     26  C   UNL     1       6.625   0.753  -1.407  0.00  0.00    +0.001 C 
ATOM     27  C   UNL     1       6.407   0.496   0.986  0.00  0.00    +0.001 C 
ATOM     28  C   UNL     1       7.203   0.716  -0.138  0.00  0.00    +0.000 C 
ENDBRANCH  20  23
ENDBRANCH  18  21
ENDBRANCH   6  17
TORSDOF 5
