46937025
  -OEChem-10051720513D

 54 59  0     1  0  0  0  0  0999 V2000
   -0.3103   -0.2221    1.9535 O   0  0  0  0  0  0  0  0  0  0  0  0
   -0.1240   -2.4795   -0.4880 O   0  0  0  0  0  0  0  0  0  0  0  0
    0.3565    2.0495    1.7435 O   0  0  0  0  0  0  0  0  0  0  0  0
   -3.5102    0.9752   -1.1406 O   0  0  0  0  0  0  0  0  0  0  0  0
   -0.7034    0.8980   -2.6332 O   0  0  0  0  0  0  0  0  0  0  0  0
    2.4462   -2.6122   -1.4132 O   0  0  0  0  0  0  0  0  0  0  0  0
    1.7554    2.0741   -1.4915 O   0  0  0  0  0  0  0  0  0  0  0  0
   -1.2062   -2.9078    1.4713 O   0  0  0  0  0  0  0  0  0  0  0  0
    0.6640    3.9171    0.4462 O   0  0  0  0  0  0  0  0  0  0  0  0
   -5.5855    0.7638   -0.1574 O   0  0  0  0  0  0  0  0  0  0  0  0
   -0.0364   -0.0860   -0.4457 C   0  0  2  0  0  0  0  0  0  0  0  0
    1.2381    0.4439    0.2584 C   0  0  2  0  0  0  0  0  0  0  0  0
   -0.9016   -0.6226    0.7216 C   0  0  2  0  0  0  0  0  0  0  0  0
    0.3653   -1.3474   -1.2237 C   0  0  1  0  0  0  0  0  0  0  0  0
    2.2420   -0.7343    0.1311 C   0  0  1  0  0  0  0  0  0  0  0  0
   -0.9724    0.8706   -1.2443 C   0  0  2  0  0  0  0  0  0  0  0  0
   -2.2492    0.0405    0.5128 C   0  0  1  0  0  0  0  0  0  0  0  0
    0.7731    0.6750    1.6872 C   0  0  2  0  0  0  0  0  0  0  0  0
    1.8901   -1.3242   -1.2339 C   0  0  1  0  0  0  0  0  0  0  0  0
   -2.3215    0.2293   -0.9802 C   0  0  1  0  0  0  0  0  0  0  0  0
    1.7672    1.8211   -0.1141 C   0  0  2  0  0  0  0  0  0  0  0  0
   -0.7991   -2.1156    0.6352 C   0  0  0  0  0  0  0  0  0  0  0  0
    3.7248   -0.4023    0.2522 C   0  0  0  0  0  0  0  0  0  0  0  0
   -3.6604   -0.4111    0.8086 C   0  0  1  0  0  0  0  0  0  0  0  0
    0.8810    2.7399    0.6854 C   0  0  0  0  0  0  0  0  0  0  0  0
   -4.3941    0.4945   -0.1872 C   0  0  0  0  0  0  0  0  0  0  0  0
    4.1125    0.6505   -0.8015 C   0  0  0  0  0  0  0  0  0  0  0  0
    4.5651   -1.6721    0.0275 C   0  0  0  0  0  0  0  0  0  0  0  0
    4.0226    0.1564    1.6549 C   0  0  0  0  0  0  0  0  0  0  0  0
   -4.0293   -1.8621    0.5653 C   0  0  0  0  0  0  0  0  0  0  0  0
   -0.0356   -1.4280   -2.2379 H   0  0  0  0  0  0  0  0  0  0  0  0
    2.0155   -1.4897    0.8996 H   0  0  0  0  0  0  0  0  0  0  0  0
   -0.9744    1.9017   -0.8822 H   0  0  0  0  0  0  0  0  0  0  0  0
   -2.1827    1.0326    0.9963 H   0  0  0  0  0  0  0  0  0  0  0  0
    1.5254    0.5257    2.4631 H   0  0  0  0  0  0  0  0  0  0  0  0
    2.2075   -0.7024   -2.0731 H   0  0  0  0  0  0  0  0  0  0  0  0
   -2.4240   -0.6967   -1.5623 H   0  0  0  0  0  0  0  0  0  0  0  0
    2.7170    2.1006    0.3231 H   0  0  0  0  0  0  0  0  0  0  0  0
   -3.9417   -0.1150    1.8253 H   0  0  0  0  0  0  0  0  0  0  0  0
    0.2111    1.2085   -2.7448 H   0  0  0  0  0  0  0  0  0  0  0  0
    2.0852   -2.9740   -2.2403 H   0  0  0  0  0  0  0  0  0  0  0  0
    3.5337    0.6818   -1.7199 H   0  0  0  0  0  0  0  0  0  0  0  0
    5.5988   -1.5097    0.3584 H   0  0  0  0  0  0  0  0  0  0  0  0
    4.6396   -1.9541   -1.0273 H   0  0  0  0  0  0  0  0  0  0  0  0
    5.1016    0.3127    1.7786 H   0  0  0  0  0  0  0  0  0  0  0  0
    4.1817   -2.5212    0.6041 H   0  0  0  0  0  0  0  0  0  0  0  0
    5.1124    0.3797   -1.1788 H   0  0  0  0  0  0  0  0  0  0  0  0
    3.5569    1.1160    1.8789 H   0  0  0  0  0  0  0  0  0  0  0  0
    4.3255    1.6512   -0.4171 H   0  0  0  0  0  0  0  0  0  0  0  0
    3.7158   -0.5555    2.4301 H   0  0  0  0  0  0  0  0  0  0  0  0
   -3.6488   -2.4992    1.3673 H   0  0  0  0  0  0  0  0  0  0  0  0
   -5.1182   -1.9846    0.5472 H   0  0  0  0  0  0  0  0  0  0  0  0
   -3.6492   -2.2389   -0.3890 H   0  0  0  0  0  0  0  0  0  0  0  0
    2.0990    2.9728   -1.6311 H   0  0  0  0  0  0  0  0  0  0  0  0
  1 13  1  0  0  0  0
  1 18  1  0  0  0  0
  2 14  1  0  0  0  0
  2 22  1  0  0  0  0
  3 18  1  0  0  0  0
  3 25  1  0  0  0  0
  4 20  1  0  0  0  0
  4 26  1  0  0  0  0
  5 16  1  0  0  0  0
  5 40  1  0  0  0  0
  6 19  1  0  0  0  0
  6 41  1  0  0  0  0
  7 21  1  0  0  0  0
  7 54  1  0  0  0  0
  8 22  2  0  0  0  0
  9 25  2  0  0  0  0
 10 26  2  0  0  0  0
 11 12  1  0  0  0  0
 11 13  1  0  0  0  0
 11 14  1  0  0  0  0
 11 16  1  0  0  0  0
 12 15  1  0  0  0  0
 12 18  1  0  0  0  0
 12 21  1  0  0  0  0
 13 17  1  0  0  0  0
 13 22  1  0  0  0  0
 14 19  1  0  0  0  0
 14 31  1  0  0  0  0
 15 19  1  0  0  0  0
 15 23  1  0  0  0  0
 15 32  1  0  0  0  0
 16 20  1  0  0  0  0
 16 33  1  0  0  0  0
 17 20  1  0  0  0  0
 17 24  1  0  0  0  0
 17 34  1  0  0  0  0
 18 35  1  0  0  0  0
 19 36  1  0  0  0  0
 20 37  1  0  0  0  0
 21 25  1  0  0  0  0
 21 38  1  0  0  0  0
 23 27  1  0  0  0  0
 23 28  1  0  0  0  0
 23 29  1  0  0  0  0
 24 26  1  0  0  0  0
 24 30  1  0  0  0  0
 24 39  1  0  0  0  0
 27 42  1  0  0  0  0
 27 47  1  0  0  0  0
 27 49  1  0  0  0  0
 28 43  1  0  0  0  0
 28 44  1  0  0  0  0
 28 46  1  0  0  0  0
 29 45  1  0  0  0  0
 29 48  1  0  0  0  0
 29 50  1  0  0  0  0
 30 51  1  0  0  0  0
 30 52  1  0  0  0  0
 30 53  1  0  0  0  0
M  END
> <DATABASE_ID>
DB06747

> <DATABASE_NAME>
drugbank

> <ORIGINAL_SOURCE>
PUBCHEM

> <ORIGINAL_SOURCE_URL>
https://pubchem.ncbi.nlm.nih.gov/rest/pug/compound/inchikey/KDKROYXEHCYLJQ-FJFAJXJPSA-N/SDF?record_type=3d

> <SMILES>
C[C@H]1C2[C@@H](OC1=O)[C@H](O)[C@]13[C@@H]4OC(=O)[C@]21O[C@@H]1OC(=O)[C@H](O)[C@]31[C@@H]([C@H]4O)C(C)(C)C

> <INCHI_IDENTIFIER>
InChI=1S/C20H24O10/c1-5-6-8(27-13(5)24)10(22)19-12-7(21)9(17(2,3)4)18(19)11(23)14(25)29-16(18)30-20(6,19)15(26)28-12/h5-12,16,21-23H,1-4H3/t5-,6?,7+,8+,9-,10-,11-,12+,16-,18-,19+,20+/m0/s1

> <INCHI_KEY>
KDKROYXEHCYLJQ-FJFAJXJPSA-N

> <FORMULA>
C20H24O10

> <MOLECULAR_WEIGHT>
424.3986

> <EXACT_MASS>
424.136946988

> <JCHEM_ACCEPTOR_COUNT>
7

> <JCHEM_AVERAGE_POLARIZABILITY>
39.37172457890237

> <JCHEM_BIOAVAILABILITY>
1

> <JCHEM_DONOR_COUNT>
3

> <JCHEM_FORMAL_CHARGE>
0

> <JCHEM_GHOSE_FILTER>
0

> <JCHEM_IUPAC>
(1S,3R,6R,7S,8S,9R,10S,11R,12R,13R,16S)-8-tert-butyl-6,9,12-trihydroxy-16-methyl-2,4,14,19-tetraoxahexacyclo[8.7.2.0¹,¹¹.0³,⁷.0⁷,¹¹.0¹³,¹⁷]nonadecane-5,15,18-trione

> <ALOGPS_LOGP>
0.60

> <JCHEM_LOGP>
-0.9239820460000009

> <ALOGPS_LOGS>
-1.73

> <JCHEM_MDDR_LIKE_RULE>
0

> <JCHEM_NUMBER_OF_RINGS>
6

> <JCHEM_PHYSIOLOGICAL_CHARGE>
0

> <JCHEM_PKA>
13.356226311772904

> <JCHEM_PKA_STRONGEST_ACIDIC>
12.046694404213882

> <JCHEM_PKA_STRONGEST_BASIC>
-3.3010627504948387

> <JCHEM_POLAR_SURFACE_AREA>
148.82

> <JCHEM_REFRACTIVITY>
91.5786

> <JCHEM_ROTATABLE_BOND_COUNT>
1

> <JCHEM_RULE_OF_FIVE>
1

> <ALOGPS_SOLUBILITY>
7.96e+00 g/l

> <JCHEM_TRADITIONAL_IUPAC>
ginkgolide-M

> <JCHEM_VEBER_RULE>
0

> <DRUGBANK_ID>
DB06747

> <DRUG_GROUPS>
nutraceutical

> <GENERIC_NAME>
ginkgolide-M

$$$$
