REMARK  Name = 24808495
REMARK  2 active torsions:
REMARK  status: ('A' for Active; 'I' for Inactive)
REMARK    1  A    between atoms: C_2  and  C_16
REMARK    2  A    between atoms: C_4  and  C_18
REMARK                            x       y       z     vdW  Elec       q    Type
REMARK                         _______ _______ _______ _____ _____    ______ ____
ROOT
ATOM      1  N   UNL     1      -0.002   1.013   0.348  0.00  0.00    -0.401 NA
ATOM      2  C   UNL     1       1.111   1.705   0.017  0.00  0.00    +0.184 C 
ATOM      3  C   UNL     1       1.155   2.677  -0.969  0.00  0.00    +0.033 C 
ATOM      4  C   UNL     1      -1.123   1.311  -0.345  0.00  0.00    +0.114 C 
ATOM      5  C   UNL     1      -0.018   2.956  -1.661  0.00  0.00    -0.016 C 
ATOM      6  C   UNL     1      -1.184   2.265  -1.349  0.00  0.00    +0.085 C 
ENDROOT
BRANCH   2  16
ATOM      7  O   UNL     1       2.508   2.015   1.809  0.00  0.00    -0.267 OA
ATOM      8  N   UNL     1       3.147   0.358   0.285  0.00  0.00    -0.274 N 
ATOM      9  C   UNL     1       2.874  -1.933  -0.669  0.00  0.00    +0.018 C 
ATOM     10  C   UNL     1       4.126  -2.353   0.138  0.00  0.00    +0.003 C 
ATOM     11  C   UNL     1       2.914  -0.412  -0.946  0.00  0.00    +0.094 C 
ATOM     12  C   UNL     1       4.353  -1.486   1.377  0.00  0.00    +0.022 C 
ATOM     13  C   UNL     1       4.358  -0.004   1.018  0.00  0.00    +0.094 C 
ATOM     14  C   UNL     1       1.587  -2.296   0.097  0.00  0.00    +0.002 C 
ATOM     15  C   UNL     1       2.864  -2.689  -2.010  0.00  0.00    +0.002 C 
ATOM     16  C   UNL     1       2.319   1.369   0.779  0.00  0.00    +0.279 C 
ENDBRANCH   2  16
BRANCH   4  18
ATOM     17  F   UNL     1      -4.684  -1.746  -1.456  0.00  0.00    -0.205 F 
ATOM     18  C   UNL     1      -2.293   0.555   0.032  0.00  0.00    +0.028 C 
ATOM     19  C   UNL     1      -2.939  -0.246  -0.909  0.00  0.00    +0.032 C 
ATOM     20  C   UNL     1      -2.778   0.624   1.339  0.00  0.00    +0.002 C 
ATOM     21  C   UNL     1      -4.554  -0.908   0.762  0.00  0.00    +0.006 C 
ATOM     22  C   UNL     1      -4.070  -0.978  -0.545  0.00  0.00    +0.136 C 
ATOM     23  C   UNL     1      -3.908  -0.107   1.703  0.00  0.00    -0.002 C 
ATOM     24  C   UNL     1      -5.761  -1.690   1.155  0.00  0.00    +0.033 C 
ENDBRANCH   4  18
TORSDOF 2
