REMARK  Name = 70691449
REMARK  5 active torsions:
REMARK  status: ('A' for Active; 'I' for Inactive)
REMARK    1  A    between atoms: N_5  and  C_22
REMARK    2  A    between atoms: C_6  and  C_20
REMARK    3  A    between atoms: C_10  and  C_25
REMARK    4  A    between atoms: C_22  and  C_23
REMARK    5  A    between atoms: C_25  and  C_26
REMARK                            x       y       z     vdW  Elec       q    Type
REMARK                         _______ _______ _______ _____ _____    ______ ____
ROOT
ATOM      1  O   UNL     1      -2.435   2.523  -1.758  0.00  0.00    -0.289 OA
ATOM      2  O   UNL     1      -4.145  -1.590  -0.014  0.00  0.00    -0.274 OA
ATOM      3  N   UNL     1       0.230   1.431  -0.968  0.00  0.00    -0.315 N 
ATOM      4  N   UNL     1       0.504  -0.557  -0.002  0.00  0.00    -0.306 N 
ATOM      5  N   UNL     1      -1.865  -1.192   0.072  0.00  0.00    -0.246 N 
ATOM      6  C   UNL     1       1.114   0.518  -0.456  0.00  0.00    +0.145 C 
ATOM      7  C   UNL     1      -1.020   0.901  -0.825  0.00  0.00    +0.109 C 
ATOM      8  C   UNL     1      -0.827  -0.319  -0.232  0.00  0.00    +0.120 C 
ATOM      9  C   UNL     1      -2.285   1.443  -1.193  0.00  0.00    +0.197 C 
ATOM     10  C   UNL     1      -3.467   0.565  -0.801  0.00  0.00    +0.140 C 
ATOM     11  C   UNL     1      -3.186  -0.835  -0.219  0.00  0.00    +0.237 C 
ATOM     12  H   UNL     1       0.454   2.304  -1.364  0.00  0.00    +0.148 HD
ATOM     13  H   UNL     1       0.912  -1.352   0.410  0.00  0.00    +0.149 HD
ENDROOT
BRANCH   6  20
ATOM     14  O   UNL     1       6.083  -0.300  -0.065  0.00  0.00    -0.354 OA
ATOM     15  C   UNL     1       3.576  -0.440  -0.441  0.00  0.00    +0.033 C 
ATOM     16  C   UNL     1       4.948   0.098  -0.841  0.00  0.00    +0.142 C 
ATOM     17  C   UNL     1       5.391   0.882   0.349  0.00  0.00    +0.142 C 
ATOM     18  C   UNL     1       4.256   0.723   1.346  0.00  0.00    +0.030 C 
ATOM     19  C   UNL     1       3.736  -0.697   1.072  0.00  0.00    +0.005 C 
ATOM     20  C   UNL     1       2.605   0.785  -0.450  0.00  0.00    +0.040 C 
ATOM     21  C   UNL     1       3.061   1.560   0.832  0.00  0.00    +0.006 C 
ENDBRANCH   6  20
BRANCH   5  22
ATOM     22  C   UNL     1      -1.562  -2.488   0.671  0.00  0.00    +0.099 C 
BRANCH  22  23
ATOM     23  C   UNL     1      -1.319  -3.568  -0.377  0.00  0.00    +0.022 C 
ATOM     24  C   UNL     1      -1.023  -4.929   0.239  0.00  0.00    +0.002 C 
ENDBRANCH  22  23
ENDBRANCH   5  22
BRANCH  10  25
ATOM     25  C   UNL     1      -4.346   1.338   0.182  0.00  0.00    +0.017 C 
BRANCH  25  26
ATOM     26  C   UNL     1      -3.579   1.680   1.455  0.00  0.00    +0.001 C 
ATOM     27  C   UNL     1      -4.445   2.470   2.423  0.00  0.00    +0.000 C 
ENDBRANCH  25  26
ENDBRANCH  10  25
TORSDOF 5
