REMARK  Name = 656953
REMARK  5 active torsions:
REMARK  status: ('A' for Active; 'I' for Inactive)
REMARK    1  A    between atoms: C_4  and  C_20
REMARK    2  A    between atoms: C_5  and  C_10
REMARK    3  A    between atoms: C_9  and  O_18
REMARK    4  A    between atoms: C_15  and  O_16
REMARK    5  A    between atoms: C_20  and  C_22
REMARK                            x       y       z     vdW  Elec       q    Type
REMARK                         _______ _______ _______ _____ _____    ______ ____
ROOT
ATOM      1  O   UNL     1       0.082  -0.356  -0.299  0.00  0.00    -0.454 OA
ATOM      2  C   UNL     1       1.360   0.112  -0.233  0.00  0.00    +0.142 C 
ATOM      3  C   UNL     1       1.362   1.454   0.135  0.00  0.00    +0.040 C 
ATOM      4  C   UNL     1       2.511  -0.629  -0.492  0.00  0.00    +0.031 C 
ATOM      5  C   UNL     1      -0.735   0.680   0.025  0.00  0.00    +0.145 C 
ATOM      6  C   UNL     1      -0.002   1.811   0.300  0.00  0.00    +0.041 C 
ATOM      7  C   UNL     1       2.597   2.115   0.256  0.00  0.00    +0.040 C 
ATOM      8  C   UNL     1       3.728   0.049  -0.365  0.00  0.00    +0.036 C 
ATOM      9  C   UNL     1       3.772   1.396   0.002  0.00  0.00    +0.134 C 
ENDROOT
BRANCH   5  10
ATOM     10  C   UNL     1      -2.139   0.381   0.012  0.00  0.00    +0.035 C 
ATOM     11  C   UNL     1      -3.073   1.373   0.330  0.00  0.00    +0.006 C 
ATOM     12  C   UNL     1      -2.584  -0.903  -0.319  0.00  0.00    +0.006 C 
ATOM     13  C   UNL     1      -4.437   1.083   0.316  0.00  0.00    +0.037 C 
ATOM     14  C   UNL     1      -3.948  -1.192  -0.332  0.00  0.00    +0.037 C 
ATOM     15  C   UNL     1      -4.875  -0.199  -0.014  0.00  0.00    +0.134 C 
BRANCH  15  16
ATOM     16  O   UNL     1      -6.206  -0.481  -0.028  0.00  0.00    -0.506 OA
ATOM     17  H   UNL     1      -6.829   0.186   0.186  0.00  0.00    +0.292 HD
ENDBRANCH  15  16
ENDBRANCH   5  10
BRANCH   9  18
ATOM     18  O   UNL     1       4.978   2.023   0.114  0.00  0.00    -0.506 OA
ATOM     19  H   UNL     1       5.015   2.926   0.360  0.00  0.00    +0.292 HD
ENDBRANCH   9  18
BRANCH   4  20
ATOM     20  C   UNL     1       2.486  -2.066  -0.884  0.00  0.00    +0.135 C 
BRANCH  20  22
ATOM     21  N   UNL     1       2.583  -3.678   1.198  0.00  0.00    -0.196 NA
ATOM     22  C   UNL     1       2.540  -2.972   0.278  0.00  0.00    +0.078 C 
ENDBRANCH  20  22
ENDBRANCH   4  20
TORSDOF 5
