REMARK  Name = 2929
REMARK  5 active torsions:
REMARK  status: ('A' for Active; 'I' for Inactive)
REMARK    1  A    between atoms: N_1  and  C_22
REMARK    2  A    between atoms: C_4  and  C_11
REMARK    3  A    between atoms: C_11  and  C_14
REMARK    4  A    between atoms: N_13  and  C_17
REMARK    5  A    between atoms: C_22  and  C_24
REMARK                            x       y       z     vdW  Elec       q    Type
REMARK                         _______ _______ _______ _____ _____    ______ ____
ROOT
ATOM      1  N   UNL     1       1.703  -0.667  -1.070  0.00  0.00    -0.281 N 
ATOM      2  C   UNL     1       2.294  -1.675  -0.342  0.00  0.00    +0.052 C 
ATOM      3  C   UNL     1       1.266  -2.419   0.240  0.00  0.00    +0.018 C 
ATOM      4  C   UNL     1       0.039  -1.823  -0.163  0.00  0.00    +0.060 C 
ATOM      5  C   UNL     1       0.340  -0.748  -0.968  0.00  0.00    +0.069 C 
ATOM      6  C   UNL     1       3.647  -1.981  -0.158  0.00  0.00    +0.015 C 
ATOM      7  C   UNL     1       1.603  -3.523   1.048  0.00  0.00    +0.001 C 
ATOM      8  C   UNL     1       3.957  -3.081   0.647  0.00  0.00    +0.001 C 
ATOM      9  C   UNL     1       2.952  -3.842   1.241  0.00  0.00    +0.000 C 
ENDROOT
BRANCH   4  11
ATOM     10  O   UNL     1      -1.582  -3.201   0.893  0.00  0.00    -0.282 OA
ATOM     11  C   UNL     1      -1.296  -2.227   0.176  0.00  0.00    +0.250 C 
BRANCH  11  14
ATOM     12  O   UNL     1      -2.986  -1.867  -1.393  0.00  0.00    -0.266 OA
ATOM     13  N   UNL     1      -2.905  -0.491   0.534  0.00  0.00    -0.278 N 
ATOM     14  C   UNL     1      -2.520  -1.494  -0.330  0.00  0.00    +0.289 C 
ATOM     15  H   UNL     1      -2.360  -0.376   1.346  0.00  0.00    +0.155 HD
BRANCH  13  17
ATOM     16  N   UNL     1      -6.151   2.119   0.076  0.00  0.00    -0.242 NA
ATOM     17  C   UNL     1      -4.001   0.389   0.380  0.00  0.00    +0.054 C 
ATOM     18  C   UNL     1      -4.244   1.346   1.345  0.00  0.00    +0.035 C 
ATOM     19  C   UNL     1      -4.809   0.278  -0.734  0.00  0.00    +0.035 C 
ATOM     20  C   UNL     1      -5.329   2.185   1.147  0.00  0.00    +0.100 C 
ATOM     21  C   UNL     1      -5.869   1.164  -0.839  0.00  0.00    +0.100 C 
ENDBRANCH  13  17
ENDBRANCH  11  14
ENDBRANCH   4  11
BRANCH   1  22
ATOM     22  C   UNL     1       2.404   0.341  -1.837  0.00  0.00    +0.122 C 
BRANCH  22  24
ATOM     23 CL   UNL     1       3.602   5.184   1.499  0.00  0.00    -0.082 Cl
ATOM     24  C   UNL     1       2.705   1.556  -1.001  0.00  0.00    -0.002 C 
ATOM     25  C   UNL     1       3.898   1.621  -0.294  0.00  0.00    -0.002 C 
ATOM     26  C   UNL     1       1.785   2.594  -0.948  0.00  0.00    -0.002 C 
ATOM     27  C   UNL     1       4.176   2.747   0.481  0.00  0.00    +0.011 C 
ATOM     28  C   UNL     1       2.063   3.719  -0.172  0.00  0.00    +0.011 C 
ATOM     29  C   UNL     1       3.259   3.796   0.542  0.00  0.00    +0.058 C 
ENDBRANCH  22  24
ENDBRANCH   1  22
TORSDOF 5
