REMARK  Name = 448669
REMARK  5 active torsions:
REMARK  status: ('A' for Active; 'I' for Inactive)
REMARK    1  A    between atoms: C_3  and  O_11
REMARK    2  A    between atoms: C_4  and  O_13
REMARK    3  A    between atoms: C_5  and  O_15
REMARK    4  A    between atoms: C_7  and  O_17
REMARK    5  A    between atoms: C_9  and  O_19
REMARK                            x       y       z     vdW  Elec       q    Type
REMARK                         _______ _______ _______ _____ _____    ______ ____
ROOT
ATOM      1  C   UNL     1       0.185   0.687   0.000  0.00  0.00    +0.071 C 
ATOM      2  C   UNL     1      -0.018  -0.713   0.000  0.00  0.00    +0.046 C 
ATOM      3  C   UNL     1      -1.328  -1.218   0.000  0.00  0.00    +0.168 C 
ATOM      4  C   UNL     1      -0.930   1.542   0.000  0.00  0.00    +0.140 C 
ATOM      5  C   UNL     1       1.495   1.192   0.000  0.00  0.00    +0.140 C 
ATOM      6  C   UNL     1       1.097  -1.568   0.000  0.00  0.00    +0.040 C 
ATOM      7  C   UNL     1      -2.424  -0.354   0.000  0.00  0.00    +0.171 C 
ATOM      8  C   UNL     1      -2.225   1.023   0.000  0.00  0.00    +0.076 C 
ATOM      9  C   UNL     1       2.392  -1.050   0.000  0.00  0.00    +0.137 C 
ATOM     10  C   UNL     1       2.591   0.328   0.000  0.00  0.00    +0.073 C 
ENDROOT
BRANCH   3  11
ATOM     11  O   UNL     1      -1.560  -2.566   0.000  0.00  0.00    -0.503 OA
ATOM     12  H   UNL     1      -0.840  -3.165   0.000  0.00  0.00    +0.292 HD
ENDBRANCH   3  11
BRANCH   4  13
ATOM     13  O   UNL     1      -0.814   2.903  -0.002  0.00  0.00    -0.505 OA
ATOM     14  H   UNL     1       0.034   3.301  -0.002  0.00  0.00    +0.292 HD
ENDBRANCH   4  13
BRANCH   5  15
ATOM     15  O   UNL     1       1.771   2.530   0.002  0.00  0.00    -0.505 OA
ATOM     16  H   UNL     1       1.071   3.152   0.002  0.00  0.00    +0.292 HD
ENDBRANCH   5  15
BRANCH   7  17
ATOM     17  O   UNL     1      -3.695  -0.845   0.001  0.00  0.00    -0.503 OA
ATOM     18  H   UNL     1      -3.840  -1.770   0.001  0.00  0.00    +0.292 HD
ENDBRANCH   7  17
BRANCH   9  19
ATOM     19  O   UNL     1       3.462  -1.891  -0.001  0.00  0.00    -0.505 OA
ATOM     20  H   UNL     1       3.328  -2.819  -0.001  0.00  0.00    +0.292 HD
ENDBRANCH   9  19
TORSDOF 5
