REMARK  Name = 9577124
REMARK  6 active torsions:
REMARK  status: ('A' for Active; 'I' for Inactive)
REMARK    1  A    between atoms: C_6  and  O_24
REMARK    2  A    between atoms: C_6  and  C_33
REMARK    3  A    between atoms: C_16  and  C_27
REMARK    4  A    between atoms: N_26  and  C_27
REMARK    5  A    between atoms: N_26  and  O_28
REMARK    6  A    between atoms: O_28  and  C_29
REMARK                            x       y       z     vdW  Elec       q    Type
REMARK                         _______ _______ _______ _____ _____    ______ ____
ROOT
ATOM      1  O   UNL     1       5.277   2.039   0.362  0.00  0.00    -0.442 OA
ATOM      2  O   UNL     1       1.255   3.065  -0.464  0.00  0.00    -0.270 OA
ATOM      3  O   UNL     1       6.604   0.491   1.301  0.00  0.00    -0.247 OA
ATOM      4  N   UNL     1       0.587   0.864  -0.224  0.00  0.00    -0.249 N 
ATOM      5  N   UNL     1      -0.430  -2.571   0.106  0.00  0.00    -0.405 NA
ATOM      6  C   UNL     1       4.674  -0.330   0.104  0.00  0.00    +0.196 C 
ATOM      7  C   UNL     1       3.241   0.117   0.013  0.00  0.00    +0.017 C 
ATOM      8  C   UNL     1       0.911  -0.472  -0.052  0.00  0.00    +0.084 C 
ATOM      9  C   UNL     1      -0.875   1.046  -0.327  0.00  0.00    +0.127 C 
ATOM     10  C   UNL     1       2.954   1.419  -0.166  0.00  0.00    +0.074 C 
ATOM     11  C   UNL     1      -1.377  -0.354  -0.198  0.00  0.00    +0.026 C 
ATOM     12  C   UNL     1      -0.324  -1.243  -0.037  0.00  0.00    +0.142 C 
ATOM     13  C   UNL     1       2.179  -0.876   0.061  0.00  0.00    +0.016 C 
ATOM     14  C   UNL     1       1.525   1.878  -0.299  0.00  0.00    +0.252 C 
ATOM     15  C   UNL     1       4.035   2.442  -0.256  0.00  0.00    +0.239 C 
ATOM     16  C   UNL     1      -2.658  -0.854  -0.216  0.00  0.00    +0.000 C 
ATOM     17  C   UNL     1       5.591   0.756   0.655  0.00  0.00    +0.346 C 
ATOM     18  C   UNL     1      -2.833  -2.240  -0.071  0.00  0.00    +0.023 C 
ATOM     19  C   UNL     1      -1.685  -3.067   0.089  0.00  0.00    +0.113 C 
ATOM     20  C   UNL     1      -4.115  -2.810  -0.081  0.00  0.00    +0.002 C 
ATOM     21  C   UNL     1      -1.882  -4.437   0.231  0.00  0.00    +0.085 C 
ATOM     22  C   UNL     1      -4.278  -4.185   0.065  0.00  0.00    -0.004 C 
ATOM     23  C   UNL     1      -3.161  -4.998   0.220  0.00  0.00    -0.019 C 
ENDROOT
BRANCH   6  24
ATOM     24  O   UNL     1       4.787  -1.402   1.042  0.00  0.00    -0.373 OA
ATOM     25  H   UNL     1       4.225  -2.141   0.758  0.00  0.00    +0.211 HD
ENDBRANCH   6  24
BRANCH   6  26
ATOM     26  C   UNL     1       5.206  -0.800  -1.252  0.00  0.00    +0.042 C 
ATOM     27  C   UNL     1       6.640  -1.278  -1.144  0.00  0.00    +0.003 C 
ENDBRANCH   6  26
BRANCH  16  28
ATOM     28  C   UNL     1      -3.769   0.076  -0.387  0.00  0.00    +0.148 C 
BRANCH  28  29
ATOM     29  N   UNL     1      -3.726   1.308   0.028  0.00  0.00    -0.079 NA
BRANCH  29  30
ATOM     30  O   UNL     1      -4.938   1.940  -0.281  0.00  0.00    -0.271 OA
BRANCH  30  31
ATOM     31  C   UNL     1      -4.867   3.280   0.180  0.00  0.00    +0.115 C 
ATOM     32  C   UNL     1      -3.703   3.976  -0.524  0.00  0.00    +0.032 C 
ATOM     33  C   UNL     1      -6.189   3.958  -0.170  0.00  0.00    +0.032 C 
ATOM     34  C   UNL     1      -4.656   3.263   1.694  0.00  0.00    +0.032 C 
ENDBRANCH  30  31
ENDBRANCH  29  30
ENDBRANCH  28  29
ENDBRANCH  16  28
TORSDOF 6
