REMARK  Name = 6603746
REMARK  7 active torsions:
REMARK  status: ('A' for Active; 'I' for Inactive)
REMARK    1  A    between atoms: C_1  and  C_14
REMARK    2  A    between atoms: C_4  and  O_9
REMARK    3  A    between atoms: C_5  and  O_7
REMARK    4  A    between atoms: O_9  and  C_10
REMARK    5  A    between atoms: C_10  and  C_11
REMARK    6  A    between atoms: C_11  and  C_12
REMARK    7  A    between atoms: C_14  and  C_18
REMARK                            x       y       z     vdW  Elec       q    Type
REMARK                         _______ _______ _______ _____ _____    ______ ____
ROOT
ATOM      1  C   UNL     1       0.604  -0.555  -0.777  0.00  0.00    -0.017 C 
ATOM      2  C   UNL     1      -0.675  -0.022  -0.707  0.00  0.00    +0.036 C 
ATOM      3  C   UNL     1       0.840  -1.891  -0.484  0.00  0.00    -0.001 C 
ATOM      4  C   UNL     1      -1.741  -0.842  -0.336  0.00  0.00    +0.172 C 
ATOM      5  C   UNL     1      -1.517  -2.186  -0.038  0.00  0.00    +0.172 C 
ATOM      6  C   UNL     1      -0.226  -2.710  -0.112  0.00  0.00    +0.040 C 
ENDROOT
BRANCH   5   7
ATOM      7  O   UNL     1      -2.549  -2.996   0.325  0.00  0.00    -0.468 OA
ATOM      8  C   UNL     1      -2.235  -4.357   0.613  0.00  0.00    +0.253 C 
ENDBRANCH   5   7
BRANCH   4   9
ATOM      9  O   UNL     1      -2.997  -0.318  -0.265  0.00  0.00    -0.472 OA
BRANCH   9  10
ATOM     10  C   UNL     1      -3.199   0.759   0.649  0.00  0.00    +0.206 C 
BRANCH  10  11
ATOM     11  C   UNL     1      -3.691   1.974  -0.124  0.00  0.00    +0.047 C 
BRANCH  11  12
ATOM     12  C   UNL     1      -3.914   3.173   0.793  0.00  0.00    +0.004 C 
ATOM     13  C   UNL     1      -4.364   4.397   0.011  0.00  0.00    +0.000 C 
ENDBRANCH  11  12
ENDBRANCH  10  11
ENDBRANCH   9  10
ENDBRANCH   4   9
BRANCH   1  14
ATOM     14  C   UNL     1       1.754   0.330  -1.178  0.00  0.00    +0.048 C 
BRANCH  14  18
ATOM     15  O   UNL     1       5.628  -0.151   0.916  0.00  0.00    -0.253 OA
ATOM     16  N   UNL     1       3.303   0.086   0.698  0.00  0.00    -0.289 N 
ATOM     17  N   UNL     1       4.640   1.680  -0.169  0.00  0.00    -0.287 N 
ATOM     18  C   UNL     1       2.400   0.997   0.029  0.00  0.00    +0.097 C 
ATOM     19  C   UNL     1       3.298   2.169  -0.372  0.00  0.00    +0.111 C 
ATOM     20  C   UNL     1       4.644   0.463   0.527  0.00  0.00    +0.301 C 
ATOM     21  H   UNL     1       3.012  -0.703   1.210  0.00  0.00    +0.151 HD
ATOM     22  H   UNL     1       5.451   2.143  -0.480  0.00  0.00    +0.151 HD
ENDBRANCH  14  18
ENDBRANCH   1  14
TORSDOF 7
