REMARK  Name = 25210273
REMARK  7 active torsions:
REMARK  status: ('A' for Active; 'I' for Inactive)
REMARK    1  A    between atoms: C_5  and  C_17
REMARK    2  A    between atoms: C_9  and  C_32
REMARK    3  A    between atoms: C_15  and  O_21
REMARK    4  A    between atoms: O_21  and  C_22
REMARK    5  A    between atoms: C_22  and  C_23
REMARK    6  A    between atoms: C_23  and  N_24
REMARK    7  A    between atoms: N_31  and  C_34
REMARK                            x       y       z     vdW  Elec       q    Type
REMARK                         _______ _______ _______ _____ _____    ______ ____
ROOT
ATOM      1  S   UNL     1       4.100   1.704  -1.067  0.00  0.00    -0.054 S 
ATOM      2  N   UNL     1       2.700  -2.461  -1.093  0.00  0.00    -0.332 NA
ATOM      3  N   UNL     1       4.314  -0.827  -1.872  0.00  0.00    -0.326 NA
ATOM      4  N   UNL     1       4.437  -3.064  -2.537  0.00  0.00    -0.283 N 
ATOM      5  C   UNL     1       2.051  -1.523  -0.370  0.00  0.00    +0.134 C 
ATOM      6  C   UNL     1       2.502  -0.199  -0.367  0.00  0.00    +0.135 C 
ATOM      7  C   UNL     1       3.628   0.068  -1.135  0.00  0.00    +0.162 C 
ATOM      8  C   UNL     1       2.036   0.988   0.283  0.00  0.00    -0.001 C 
ATOM      9  C   UNL     1       2.810   2.089  -0.011  0.00  0.00    +0.081 C 
ATOM     10  C   UNL     1       3.780  -2.059  -1.792  0.00  0.00    +0.196 C 
ATOM     11  H   UNL     1       4.099  -3.989  -2.522  0.00  0.00    +0.156 HD
ATOM     12  H   UNL     1       5.234  -2.840  -3.071  0.00  0.00    +0.156 HD
ENDROOT
BRANCH   5  17
ATOM     13 CL   UNL     1      -2.804  -3.228   2.648  0.00  0.00    -0.079 Cl
ATOM     14 CL   UNL     1       2.506  -2.485   2.525  0.00  0.00    -0.082 Cl
ATOM     15  C   UNL     1      -1.505  -2.282   0.453  0.00  0.00    +0.149 C 
ATOM     16  C   UNL     1      -0.360  -1.887  -0.238  0.00  0.00    +0.041 C 
ATOM     17  C   UNL     1       0.886  -1.943   0.386  0.00  0.00    +0.041 C 
ATOM     18  C   UNL     1      -1.404  -2.734   1.769  0.00  0.00    +0.092 C 
ATOM     19  C   UNL     1       0.987  -2.395   1.702  0.00  0.00    +0.061 C 
ATOM     20  C   UNL     1      -0.158  -2.790   2.393  0.00  0.00    +0.026 C 
BRANCH  15  21
ATOM     21  O   UNL     1      -2.716  -2.217  -0.184  0.00  0.00    -0.477 OA
BRANCH  21  22
ATOM     22  C   UNL     1      -3.132  -0.936  -0.641  0.00  0.00    +0.183 C 
BRANCH  22  23
ATOM     23  C   UNL     1      -4.651  -0.886  -0.636  0.00  0.00    -0.029 C 
BRANCH  23  24
ATOM     24  N   UNL     1      -5.123   0.417  -1.081  0.00  0.00    +0.389 N 
ATOM     25  C   UNL     1      -6.525   0.391  -1.500  0.00  0.00    -0.077 C 
ATOM     26  C   UNL     1      -5.062   1.425  -0.023  0.00  0.00    -0.077 C 
ATOM     27  C   UNL     1      -6.898   1.865  -1.536  0.00  0.00    -0.025 C 
ATOM     28  C   UNL     1      -5.935   2.545  -0.569  0.00  0.00    -0.025 C 
ATOM     29  H   UNL     1      -4.505   0.652  -1.858  0.00  0.00    -0.080 HD
ENDBRANCH  23  24
ENDBRANCH  22  23
ENDBRANCH  21  22
ENDBRANCH  15  21
ENDBRANCH   5  17
BRANCH   9  32
ATOM     30  O   UNL     1       3.443   4.345   0.069  0.00  0.00    -0.270 OA
ATOM     31  N   UNL     1       1.588   3.724   1.314  0.00  0.00    -0.300 N 
ATOM     32  C   UNL     1       2.661   3.433   0.443  0.00  0.00    +0.252 C 
ATOM     33  H   UNL     1       1.001   2.980   1.581  0.00  0.00    +0.150 HD
BRANCH  31  34
ATOM     34  C   UNL     1       1.292   5.037   1.840  0.00  0.00    +0.090 C 
ATOM     35  C   UNL     1       0.552   5.886   0.828  0.00  0.00    +0.023 C 
ENDBRANCH  31  34
ENDBRANCH   9  32
TORSDOF 7
