REMARK  Name = 9547939
REMARK  2 active torsions:
REMARK  status: ('A' for Active; 'I' for Inactive)
REMARK    1  A    between atoms: C_3  and  C_11
REMARK    2  A    between atoms: C_8  and  C_20
REMARK                            x       y       z     vdW  Elec       q    Type
REMARK                         _______ _______ _______ _____ _____    ______ ____
ROOT
ATOM      1  N   UNL     1       0.287   1.301   0.232  0.00  0.00    -0.313 N 
ATOM      2  C   UNL     1      -1.178  -0.345  -0.117  0.00  0.00    +0.015 C 
ATOM      3  C   UNL     1       1.019   0.180  -0.053  0.00  0.00    +0.048 C 
ATOM      4  C   UNL     1      -1.058   1.010   0.201  0.00  0.00    +0.048 C 
ATOM      5  C   UNL     1       0.141  -0.855  -0.274  0.00  0.00    +0.016 C 
ATOM      6  C   UNL     1      -2.467  -0.907  -0.214  0.00  0.00    +0.004 C 
ATOM      7  C   UNL     1      -2.167   1.834   0.426  0.00  0.00    +0.015 C 
ATOM      8  C   UNL     1      -3.584  -0.095   0.009  0.00  0.00    +0.031 C 
ATOM      9  C   UNL     1      -3.435   1.254   0.325  0.00  0.00    +0.004 C 
ATOM     10  H   UNL     1       0.667   2.187   0.431  0.00  0.00    +0.152 HD
ENDROOT
BRANCH   3  11
ATOM     11  C   UNL     1       2.462   0.198  -0.089  0.00  0.00    +0.013 C 
ATOM     12  C   UNL     1       3.182  -0.950   0.240  0.00  0.00    -0.003 C 
ATOM     13  C   UNL     1       3.135   1.364  -0.454  0.00  0.00    +0.001 C 
ATOM     14  C   UNL     1       4.576  -0.932   0.206  0.00  0.00    -0.022 C 
ATOM     15  C   UNL     1       4.529   1.382  -0.488  0.00  0.00    -0.000 C 
ATOM     16  C   UNL     1       5.250   0.234  -0.158  0.00  0.00    -0.004 C 
ATOM     17  C   UNL     1       5.347  -2.159   0.559  0.00  0.00    +0.031 C 
ENDBRANCH   3  11
BRANCH   8  20
ATOM     18  N   UNL     1      -6.057   0.105   0.125  0.00  0.00    -0.343 N 
ATOM     19  N   UNL     1      -5.064  -1.948  -0.385  0.00  0.00    -0.285 NA
ATOM     20  C   UNL     1      -4.918  -0.668  -0.090  0.00  0.00    +0.117 C 
ATOM     21  H   UNL     1      -6.950  -0.303   0.053  0.00  0.00    +0.144 HD
ATOM     22  H   UNL     1      -5.969   1.060   0.349  0.00  0.00    +0.144 HD
ATOM     23  H   UNL     1      -5.965  -2.338  -0.452  0.00  0.00    +0.188 HD
ENDBRANCH   8  20
TORSDOF 2
