REMARK  Name = 4477
REMARK  4 active torsions:
REMARK  status: ('A' for Active; 'I' for Inactive)
REMARK    1  A    between atoms: N_2  and  C_6
REMARK    2  A    between atoms: C_3  and  C_16
REMARK    3  A    between atoms: C_9  and  N_14
REMARK    4  A    between atoms: C_17  and  O_22
REMARK                            x       y       z     vdW  Elec       q    Type
REMARK                         _______ _______ _______ _____ _____    ______ ____
ROOT
ATOM      1  O   UNL     1       0.855  -1.980  -0.478  0.00  0.00    -0.270 OA
ATOM      2  N   UNL     1       0.255   0.198   0.106  0.00  0.00    -0.280 N 
ATOM      3  C   UNL     1       1.170  -0.829  -0.157  0.00  0.00    +0.252 C 
ATOM      4  H   UNL     1       0.644   1.068   0.352  0.00  0.00    +0.155 HD
ENDROOT
BRANCH   2   6
ATOM      5 CL   UNL     1      -1.208   2.797   0.695  0.00  0.00    -0.081 Cl
ATOM      6  C   UNL     1      -1.160   0.141   0.063  0.00  0.00    +0.061 C 
ATOM      7  C   UNL     1      -1.922   1.270   0.317  0.00  0.00    +0.073 C 
ATOM      8  C   UNL     1      -1.751  -1.075  -0.238  0.00  0.00    +0.017 C 
ATOM      9  C   UNL     1      -3.923  -0.038  -0.034  0.00  0.00    +0.144 C 
ATOM     10  C   UNL     1      -3.313   1.180   0.268  0.00  0.00    +0.037 C 
ATOM     11  C   UNL     1      -3.142  -1.166  -0.286  0.00  0.00    +0.025 C 
BRANCH   9  14
ATOM     12  O   UNL     1      -5.862  -1.238  -0.354  0.00  0.00    -0.126 OA
ATOM     13  O   UNL     1      -6.019   0.897   0.150  0.00  0.00    -0.126 OA
ATOM     14  N   UNL     1      -5.339  -0.131  -0.082  0.00  0.00    +0.058 N 
ENDBRANCH   9  14
ENDBRANCH   2   6
BRANCH   3  16
ATOM     15 CL   UNL     1       4.710   2.890  -0.656  0.00  0.00    -0.082 Cl
ATOM     16  C   UNL     1       2.570  -0.438  -0.068  0.00  0.00    +0.088 C 
ATOM     17  C   UNL     1       3.546  -1.359   0.313  0.00  0.00    +0.138 C 
ATOM     18  C   UNL     1       2.929   0.876  -0.368  0.00  0.00    +0.019 C 
ATOM     19  C   UNL     1       4.882  -0.966   0.393  0.00  0.00    +0.038 C 
ATOM     20  C   UNL     1       4.265   1.269  -0.287  0.00  0.00    +0.058 C 
ATOM     21  C   UNL     1       5.242   0.348   0.093  0.00  0.00    +0.015 C 
BRANCH  17  22
ATOM     22  O   UNL     1       3.215  -2.647   0.611  0.00  0.00    -0.505 OA
ATOM     23  H   UNL     1       2.321  -2.924   0.562  0.00  0.00    +0.292 HD
ENDBRANCH  17  22
ENDBRANCH   3  16
TORSDOF 4
