REMARK  Name = 44224276
REMARK  6 active torsions:
REMARK  status: ('A' for Active; 'I' for Inactive)
REMARK    1  A    between atoms: C_3  and  P_17
REMARK    2  A    between atoms: C_5  and  C_14
REMARK    3  A    between atoms: P_17  and  C_19
REMARK    4  A    between atoms: P_17  and  O_30
REMARK    5  A    between atoms: C_23  and  C_26
REMARK    6  A    between atoms: C_27  and  C_29
REMARK                            x       y       z     vdW  Elec       q    Type
REMARK                         _______ _______ _______ _____ _____    ______ ____
ROOT
ATOM      1 CL   UNL     1       1.525  -4.513  -1.636  0.00  0.00    -0.082 Cl
ATOM      2  N   UNL     1       3.066   0.175   1.492  0.00  0.00    -0.349 N 
ATOM      3  C   UNL     1       1.644   0.585  -0.163  0.00  0.00    +0.079 A 
ATOM      4  C   UNL     1       1.936  -0.808  -0.162  0.00  0.00    +0.023 A 
ATOM      5  C   UNL     1       2.353   1.162   0.865  0.00  0.00    +0.116 A 
ATOM      6  C   UNL     1       2.830  -1.038   0.886  0.00  0.00    +0.057 A 
ATOM      7  C   UNL     1       1.525  -1.898  -0.955  0.00  0.00    +0.013 C 
ATOM      8  C   UNL     1       3.335  -2.309   1.182  0.00  0.00    +0.018 C 
ATOM      9  C   UNL     1       2.022  -3.175  -0.670  0.00  0.00    +0.058 C 
ATOM     10  C   UNL     1       2.913  -3.375   0.382  0.00  0.00    +0.013 C 
ATOM     11  H   UNL     1       3.661   0.313   2.264  0.00  0.00    +0.166 HD
ENDROOT
BRANCH   5  14
ATOM     12  O   UNL     1       1.712   3.421   0.679  0.00  0.00    -0.269 OA
ATOM     13  N   UNL     1       3.191   2.900   2.352  0.00  0.00    -0.324 N 
ATOM     14  C   UNL     1       2.387   2.535   1.261  0.00  0.00    +0.259 C 
ATOM     15  H   UNL     1       3.229   3.840   2.642  0.00  0.00    +0.145 HD
ATOM     16  H   UNL     1       3.717   2.217   2.827  0.00  0.00    +0.145 HD
ENDBRANCH   5  14
BRANCH   3  17
ATOM     17  P   UNL     1       0.542   1.434  -1.307  0.00  0.00    +0.267 P 
ATOM     18  O   UNL     1       1.023   2.795  -1.721  0.00  0.00    -0.280 OA
BRANCH  17  19
ATOM     19  C   UNL     1      -1.073   1.405  -0.585  0.00  0.00    +0.058 C 
ATOM     20  C   UNL     1      -1.729   2.601  -0.295  0.00  0.00    +0.001 C 
ATOM     21  C   UNL     1      -1.690   0.186  -0.306  0.00  0.00    +0.005 C 
ATOM     22  C   UNL     1      -3.002   2.579   0.275  0.00  0.00    -0.022 C 
ATOM     23  C   UNL     1      -2.963   0.163   0.264  0.00  0.00    +0.001 C 
ATOM     24  C   UNL     1      -3.619   1.359   0.554  0.00  0.00    -0.004 C 
ATOM     25  C   UNL     1      -3.702   3.858   0.585  0.00  0.00    +0.031 C 
BRANCH  23  26
ATOM     26  C   UNL     1      -3.607  -1.108   0.555  0.00  0.00    +0.011 C 
ATOM     27  C   UNL     1      -2.979  -2.298   0.688  0.00  0.00    +0.078 C 
BRANCH  27  29
ATOM     28  N   UNL     1      -4.269  -4.478   1.191  0.00  0.00    -0.191 NA
ATOM     29  C   UNL     1      -3.691  -3.497   0.965  0.00  0.00    +0.101 C 
ENDBRANCH  27  29
ENDBRANCH  23  26
ENDBRANCH  17  19
BRANCH  17  30
ATOM     30  O   UNL     1       0.450   0.435  -2.586  0.00  0.00    -0.305 OA
ATOM     31  C   UNL     1      -0.129   0.905  -3.791  0.00  0.00    +0.182 C 
ENDBRANCH  17  30
ENDBRANCH   3  17
TORSDOF 6
