REMARK  Name = 10073773
REMARK  5 active torsions:
REMARK  status: ('A' for Active; 'I' for Inactive)
REMARK    1  A    between atoms: N_1  and  S_10
REMARK    2  A    between atoms: C_2  and  C_22
REMARK    3  A    between atoms: C_8  and  O_20
REMARK    4  A    between atoms: S_10  and  C_14
REMARK    5  A    between atoms: C_22  and  N_23
REMARK                            x       y       z     vdW  Elec       q    Type
REMARK                         _______ _______ _______ _____ _____    ______ ____
ROOT
ATOM      1  N   UNL     1      -0.865   0.044  -1.257  0.00  0.00    -0.168 N 
ATOM      2  C   UNL     1       1.088  -0.921  -1.003  0.00  0.00    -0.025 C 
ATOM      3  C   UNL     1       0.126  -1.782  -0.446  0.00  0.00    +0.014 C 
ATOM      4  C   UNL     1      -1.108  -1.150  -0.618  0.00  0.00    +0.074 C 
ATOM      5  C   UNL     1       0.475   0.189  -1.495  0.00  0.00    +0.083 C 
ATOM      6  C   UNL     1       0.161  -3.039   0.191  0.00  0.00    +0.038 C 
ATOM      7  C   UNL     1      -2.313  -1.714  -0.183  0.00  0.00    +0.020 C 
ATOM      8  C   UNL     1      -1.036  -3.615   0.631  0.00  0.00    +0.139 C 
ATOM      9  C   UNL     1      -2.253  -2.961   0.446  0.00  0.00    +0.038 C 
ENDROOT
BRANCH   1  10
ATOM     10  S   UNL     1      -2.015   1.169  -1.692  0.00  0.00    +0.081 S 
ATOM     11  O   UNL     1      -2.983   0.441  -2.510  0.00  0.00    -0.149 OA
ATOM     12  O   UNL     1      -1.329   2.352  -2.220  0.00  0.00    -0.149 OA
BRANCH  10  14
ATOM     13 BR   UNL     1      -0.374   3.043   0.545  0.00  0.00    -0.048 Br
ATOM     14  C   UNL     1      -2.822   1.692  -0.202  0.00  0.00    +0.132 C 
ATOM     15  C   UNL     1      -2.172   2.467   0.743  0.00  0.00    +0.053 C 
ATOM     16  C   UNL     1      -4.136   1.288  -0.027  0.00  0.00    +0.021 C 
ATOM     17  C   UNL     1      -2.855   2.850   1.897  0.00  0.00    +0.008 C 
ATOM     18  C   UNL     1      -4.818   1.671   1.127  0.00  0.00    +0.001 C 
ATOM     19  C   UNL     1      -4.178   2.452   2.090  0.00  0.00    +0.001 C 
ENDBRANCH  10  14
ENDBRANCH   1  10
BRANCH   8  20
ATOM     20  O   UNL     1      -1.010  -4.830   1.248  0.00  0.00    -0.471 OA
ATOM     21  C   UNL     1       0.266  -5.447   1.407  0.00  0.00    +0.252 C 
ENDBRANCH   8  20
BRANCH   2  22
ATOM     22  C   UNL     1       2.570  -1.177  -1.053  0.00  0.00    -0.049 C 
BRANCH  22  23
ATOM     23  N   UNL     1       3.323   0.013  -0.663  0.00  0.00    +0.387 N 
ATOM     24  N   UNL     1       5.215   1.437   0.995  0.00  0.00    +0.383 N 
ATOM     25  C   UNL     1       2.980   0.423   0.704  0.00  0.00    -0.100 C 
ATOM     26  C   UNL     1       4.767  -0.221  -0.781  0.00  0.00    -0.100 C 
ATOM     27  C   UNL     1       3.771   1.671   1.114  0.00  0.00    -0.101 C 
ATOM     28  C   UNL     1       5.557   1.026  -0.372  0.00  0.00    -0.101 C 
ATOM     29  C   UNL     1       5.967   2.629   1.383  0.00  0.00    -0.101 C 
ATOM     30  H   UNL     1       3.067   0.769  -1.299  0.00  0.00    -0.079 HD
ATOM     31  H   UNL     1       5.472   0.682   1.631  0.00  0.00    -0.080 HD
ENDBRANCH  22  23
ENDBRANCH   2  22
TORSDOF 5
