REMARK  Name = 451448
REMARK  6 active torsions:
REMARK  status: ('A' for Active; 'I' for Inactive)
REMARK    1  A    between atoms: C3*_2  and  O3*_19
REMARK    2  A    between atoms: C2*_3  and  O2*_17
REMARK    3  A    between atoms: C4*_4  and  C5*_21
REMARK    4  A    between atoms: C1*_5  and  N_6
REMARK    5  A    between atoms: C_10  and  C_13
REMARK    6  A    between atoms: C5*_21  and  O5*_22
REMARK                            x       y       z     vdW  Elec       q    Type
REMARK                         _______ _______ _______ _____ _____    ______ ____
ROOT
ATOM      1  O4* UNL     1       1.385  -0.549  -1.003  0.00  0.00    -0.332 OA
ATOM      2  C3* UNL     1       3.037   0.268   0.504  0.00  0.00    +0.171 C 
ATOM      3  C2* UNL     1       1.723   0.972   0.780  0.00  0.00    +0.188 C 
ATOM      4  C4* UNL     1       2.592  -0.944  -0.310  0.00  0.00    +0.175 C 
ATOM      5  C1* UNL     1       0.979   0.748  -0.528  0.00  0.00    +0.240 C 
ENDROOT
BRANCH   5   6
ATOM      6  N   UNL     1      -0.475   0.794  -0.401  0.00  0.00    -0.172 N 
ATOM      7  N   UNL     1      -1.172  -0.301  -0.060  0.00  0.00    -0.122 NA
ATOM      8  N   UNL     1      -2.542   1.502  -0.382  0.00  0.00    -0.192 NA
ATOM      9  C   UNL     1      -1.297   1.861  -0.590  0.00  0.00    +0.250 C 
ATOM     10  C   UNL     1      -2.417   0.181  -0.062  0.00  0.00    +0.081 C 
BRANCH  10  13
ATOM     11  N   UNL     1      -4.788  -0.049   0.220  0.00  0.00    -0.335 N 
ATOM     12  N   UNL     1      -3.359  -1.907   0.561  0.00  0.00    -0.277 NA
ATOM     13  C   UNL     1      -3.542  -0.647   0.251  0.00  0.00    +0.183 C 
ATOM     14  H   UNL     1      -5.593  -0.576   0.428  0.00  0.00    +0.144 HD
ATOM     15  H   UNL     1      -4.870   0.905  -0.011  0.00  0.00    +0.144 HD
ATOM     16  H   UNL     1      -4.131  -2.478   0.777  0.00  0.00    +0.189 HD
ENDBRANCH  10  13
ENDBRANCH   5   6
BRANCH   3  17
ATOM     17  O2* UNL     1       1.882   2.346   1.068  0.00  0.00    -0.378 OA
ATOM     18  H2* UNL     1       2.359   2.448   1.907  0.00  0.00    +0.211 HD
ENDBRANCH   3  17
BRANCH   2  19
ATOM     19  O3* UNL     1       3.858   1.097  -0.317  0.00  0.00    -0.379 OA
ATOM     20  H3* UNL     1       4.147   1.871   0.191  0.00  0.00    +0.211 HD
ENDBRANCH   2  19
BRANCH   4  21
ATOM     21  C5* UNL     1       2.274  -2.155   0.555  0.00  0.00    +0.169 C 
BRANCH  21  22
ATOM     22  O5* UNL     1       1.863  -3.218  -0.287  0.00  0.00    -0.379 OA
ATOM     23  H5* UNL     1       1.657  -3.997   0.253  0.00  0.00    +0.211 HD
ENDBRANCH  21  22
ENDBRANCH   4  21
TORSDOF 6
