REMARK  Name = 467825
REMARK  8 active torsions:
REMARK  status: ('A' for Active; 'I' for Inactive)
REMARK    1  A    between atoms: C_1  and  C_4
REMARK    2  A    between atoms: C_1  and  O_10
REMARK    3  A    between atoms: C_1  and  C_12
REMARK    4  A    between atoms: C_1  and  C_27
REMARK    5  A    between atoms: C_12  and  C_16
REMARK    6  A    between atoms: C_17  and  C_19
REMARK    7  A    between atoms: C_24  and  C_26
REMARK    8  A    between atoms: C_27  and  N_28
REMARK                            x       y       z     vdW  Elec       q    Type
REMARK                         _______ _______ _______ _____ _____    ______ ____
ROOT
ATOM      1  C   UNL     1      -1.598  -0.266  -0.046  0.00  0.00    +0.136 C 
ENDROOT
BRANCH   1   4
ATOM      2  F   UNL     1      -3.586  -1.251   1.705  0.00  0.00    -0.204 F 
ATOM      3  F   UNL     1      -6.938  -1.027  -1.627  0.00  0.00    -0.204 F 
ATOM      4  C   UNL     1      -3.059  -0.476  -0.476  0.00  0.00    +0.031 C 
ATOM      5  C   UNL     1      -3.951  -0.959   0.449  0.00  0.00    +0.141 C 
ATOM      6  C   UNL     1      -3.406  -0.169  -1.768  0.00  0.00    +0.003 C 
ATOM      7  C   UNL     1      -5.276  -1.148   0.056  0.00  0.00    +0.059 C 
ATOM      8  C   UNL     1      -4.731  -0.357  -2.162  0.00  0.00    +0.030 C 
ATOM      9  C   UNL     1      -5.666  -0.847  -1.250  0.00  0.00    +0.142 C 
ENDBRANCH   1   4
BRANCH   1  10
ATOM     10  O   UNL     1      -0.844   0.288  -1.133  0.00  0.00    -0.380 OA
ATOM     11  H   UNL     1       0.076   0.418  -0.854  0.00  0.00    +0.211 HD
ENDBRANCH   1  10
BRANCH   1  12
ATOM     12  C   UNL     1      -0.928  -1.637   0.368  0.00  0.00    +0.089 C 
ATOM     13  C   UNL     1      -0.989  -2.718  -0.725  0.00  0.00    +0.011 C 
BRANCH  12  16
ATOM     14  S   UNL     1       0.851  -1.927   2.454  0.00  0.00    -0.079 S 
ATOM     15  N   UNL     1       1.454  -1.021   0.110  0.00  0.00    -0.403 NA
ATOM     16  C   UNL     1       0.519  -1.477   0.861  0.00  0.00    +0.137 C 
ATOM     17  C   UNL     1       2.607  -1.014   0.870  0.00  0.00    +0.120 C 
ATOM     18  C   UNL     1       2.478  -1.469   2.165  0.00  0.00    +0.123 C 
BRANCH  17  19
ATOM     19  C   UNL     1       3.857  -0.559   0.333  0.00  0.00    +0.026 C 
ATOM     20  C   UNL     1       4.806   0.027   1.173  0.00  0.00    +0.003 C 
ATOM     21  C   UNL     1       4.127  -0.701  -1.029  0.00  0.00    +0.003 C 
ATOM     22  C   UNL     1       6.021   0.470   0.651  0.00  0.00    +0.010 C 
ATOM     23  C   UNL     1       5.343  -0.259  -1.550  0.00  0.00    +0.010 C 
ATOM     24  C   UNL     1       6.290   0.327  -0.710  0.00  0.00    +0.068 C 
BRANCH  24  26
ATOM     25  N   UNL     1       8.548   1.149  -1.678  0.00  0.00    -0.191 NA
ATOM     26  C   UNL     1       7.535   0.780  -1.244  0.00  0.00    +0.100 C 
ENDBRANCH  24  26
ENDBRANCH  17  19
ENDBRANCH  12  16
ENDBRANCH   1  12
BRANCH   1  27
ATOM     27  C   UNL     1      -1.515   0.754   1.135  0.00  0.00    +0.149 C 
BRANCH  27  28
ATOM     28  N   UNL     1      -2.029   2.095   0.840  0.00  0.00    -0.188 N 
ATOM     29  N   UNL     1      -1.214   3.024   0.352  0.00  0.00    -0.154 NA
ATOM     30  N   UNL     1      -3.352   3.790   0.628  0.00  0.00    -0.203 NA
ATOM     31  C   UNL     1      -3.288   2.535   1.007  0.00  0.00    +0.186 C 
ATOM     32  C   UNL     1      -2.067   4.044   0.239  0.00  0.00    +0.218 C 
ENDBRANCH  27  28
ENDBRANCH   1  27
TORSDOF 8
