REMARK  Name = 24860533
REMARK  8 active torsions:
REMARK  status: ('A' for Active; 'I' for Inactive)
REMARK    1  A    between atoms: C_1  and  C_4
REMARK    2  A    between atoms: C_1  and  C_19
REMARK    3  A    between atoms: C_7  and  O_12
REMARK    4  A    between atoms: C_9  and  O_10
REMARK    5  A    between atoms: O_12  and  C_13
REMARK    6  A    between atoms: N_18  and  C_22
REMARK    7  A    between atoms: C_22  and  C_24
REMARK    8  A    between atoms: C_24  and  O_25
REMARK                            x       y       z     vdW  Elec       q    Type
REMARK                         _______ _______ _______ _____ _____    ______ ____
ROOT
ATOM      1  C   UNL     1       0.238  -0.737   0.694  0.00  0.00    +0.047 C 
ENDROOT
BRANCH   1   4
ATOM      2 BR   UNL     1      -1.059  -3.426  -0.269  0.00  0.00    -0.049 Br
ATOM      3 BR   UNL     1      -4.433  -3.155  -0.710  0.00  0.00    -0.045 Br
ATOM      4  C   UNL     1      -1.253  -0.683   0.480  0.00  0.00    -0.011 C 
ATOM      5  C   UNL     1      -1.895   0.531   0.725  0.00  0.00    +0.036 C 
ATOM      6  C   UNL     1      -1.989  -1.788   0.053  0.00  0.00    +0.040 C 
ATOM      7  C   UNL     1      -3.273   0.640   0.543  0.00  0.00    +0.172 C 
ATOM      8  C   UNL     1      -3.368  -1.679  -0.129  0.00  0.00    +0.077 C 
ATOM      9  C   UNL     1      -4.010  -0.465   0.116  0.00  0.00    +0.174 C 
BRANCH   9  10
ATOM     10  O   UNL     1      -5.358  -0.328  -0.053  0.00  0.00    -0.503 OA
ATOM     11  H   UNL     1      -5.769   0.497   0.117  0.00  0.00    +0.292 HD
ENDBRANCH   9  10
BRANCH   7  12
ATOM     12  O   UNL     1      -3.886   1.832   0.785  0.00  0.00    -0.472 OA
BRANCH  12  13
ATOM     13  C   UNL     1      -3.457   2.950   0.011  0.00  0.00    +0.206 C 
ATOM     14  C   UNL     1      -4.622   3.899  -0.174  0.00  0.00    +0.051 C 
ENDBRANCH  12  13
ENDBRANCH   7  12
ENDBRANCH   1   4
BRANCH   1  19
ATOM     15  S   UNL     1       1.098   1.416  -0.773  0.00  0.00    -0.083 S 
ATOM     16  S   UNL     1       3.701   2.871  -1.063  0.00  0.00    -0.027 S 
ATOM     17  O   UNL     1       2.701  -2.054  -0.324  0.00  0.00    -0.274 OA
ATOM     18  N   UNL     1       3.349   0.166  -0.675  0.00  0.00    -0.237 N 
ATOM     19  C   UNL     1       1.005  -0.377  -0.567  0.00  0.00    +0.135 C 
ATOM     20  C   UNL     1       2.432  -0.869  -0.503  0.00  0.00    +0.241 C 
ATOM     21  C   UNL     1       2.850   1.449  -0.838  0.00  0.00    +0.118 C 
BRANCH  18  22
ATOM     22  C   UNL     1       4.780  -0.130  -0.664  0.00  0.00    +0.209 C 
BRANCH  22  24
ATOM     23  O   UNL     1       6.571  -0.263   0.939  0.00  0.00    -0.248 OA
ATOM     24  C   UNL     1       5.385  -0.057   0.714  0.00  0.00    +0.335 C 
BRANCH  24  25
ATOM     25  O   UNL     1       4.491   0.256   1.681  0.00  0.00    -0.479 OA
ATOM     26  H   UNL     1       3.593   0.404   1.459  0.00  0.00    +0.295 HD
ENDBRANCH  24  25
ENDBRANCH  22  24
ENDBRANCH  18  22
ENDBRANCH   1  19
TORSDOF 8
