REMARK  Name = 24768537
REMARK  6 active torsions:
REMARK  status: ('A' for Active; 'I' for Inactive)
REMARK    1  A    between atoms: C_1  and  C_3
REMARK    2  A    between atoms: C_1  and  C_6
REMARK    3  A    between atoms: C_1  and  C_13
REMARK    4  A    between atoms: C_3  and  O_4
REMARK    5  A    between atoms: C_6  and  C_7
REMARK    6  A    between atoms: C_13  and  N_16
REMARK                            x       y       z     vdW  Elec       q    Type
REMARK                         _______ _______ _______ _____ _____    ______ ____
ROOT
ATOM      1  C   UNL     1       0.961   0.077  -0.270  0.00  0.00    +0.133 C 
ENDROOT
BRANCH   1   3
ATOM      2  O   UNL     1       1.320  -2.307  -0.630  0.00  0.00    -0.250 OA
ATOM      3  C   UNL     1       1.104  -1.383   0.144  0.00  0.00    +0.316 C 
BRANCH   3   4
ATOM      4  O   UNL     1       0.943  -1.566   1.480  0.00  0.00    -0.480 OA
ATOM      5  H   UNL     1       0.779  -0.831   2.037  0.00  0.00    +0.295 HD
ENDBRANCH   3   4
ENDBRANCH   1   3
BRANCH   1   6
ATOM      6  C   UNL     1      -0.211   0.216  -1.259  0.00  0.00    +0.040 C 
BRANCH   6   7
ATOM      7  C   UNL     1      -1.562   0.242  -0.584  0.00  0.00    -0.022 C 
ATOM      8  C   UNL     1      -2.254  -0.949  -0.361  0.00  0.00    -0.004 C 
ATOM      9  C   UNL     1      -2.119   1.457  -0.184  0.00  0.00    -0.004 C 
ATOM     10  C   UNL     1      -3.501  -0.924   0.263  0.00  0.00    -0.000 C 
ATOM     11  C   UNL     1      -3.366   1.482   0.439  0.00  0.00    -0.000 C 
ATOM     12  C   UNL     1      -4.058   0.291   0.662  0.00  0.00    -0.000 C 
ENDBRANCH   6   7
ENDBRANCH   1   6
BRANCH   1  13
ATOM     13  C   UNL     1       2.253   0.570  -0.924  0.00  0.00    +0.205 C 
BRANCH  13  16
ATOM     14  O   UNL     1       4.020  -0.055   0.457  0.00  0.00    -0.131 OA
ATOM     15  O   UNL     1       3.233   1.995   0.631  0.00  0.00    -0.131 OA
ATOM     16  N   UNL     1       3.238   0.855   0.138  0.00  0.00    +0.035 N 
ENDBRANCH  13  16
ENDBRANCH   1  13
TORSDOF 6
