REMARK  Name = 36688246
REMARK  2 active torsions:
REMARK  status: ('A' for Active; 'I' for Inactive)
REMARK    1  A    between atoms: C_1  and  N_8
REMARK    2  A    between atoms: C_2  and  S_16
REMARK                            x       y       z     vdW  Elec       q    Type
REMARK                         _______ _______ _______ _____ _____    ______ ____
ROOT
ATOM      1  C   UNL     1       0.273  -0.675   0.040  0.00  0.00    +0.066 C 
ATOM      2  C   UNL     1       1.037   0.490  -0.028  0.00  0.00    +0.125 C 
ATOM      3  C   UNL     1       0.902  -1.919   0.106  0.00  0.00    +0.016 C 
ATOM      4  C   UNL     1       2.430   0.412  -0.030  0.00  0.00    +0.016 C 
ATOM      5  C   UNL     1       3.058  -0.832   0.036  0.00  0.00    -0.020 C 
ATOM      6  C   UNL     1       2.294  -1.997   0.104  0.00  0.00    -0.003 C 
ATOM      7  C   UNL     1       4.547  -0.916   0.034  0.00  0.00    +0.031 C 
ENDROOT
BRANCH   1   8
ATOM      8  N   UNL     1      -1.126  -0.623   0.042  0.00  0.00    -0.311 N 
ATOM      9  N   UNL     1      -3.945  -0.718   0.060  0.00  0.00    +0.386 N 
ATOM     10  C   UNL     1      -1.844  -0.525   1.319  0.00  0.00    +0.067 C 
ATOM     11  C   UNL     1      -1.836  -1.308  -1.049  0.00  0.00    +0.067 C 
ATOM     12  C   UNL     1      -3.232   0.064   1.111  0.00  0.00    -0.060 C 
ATOM     13  C   UNL     1      -3.222  -0.711  -1.244  0.00  0.00    -0.060 C 
ATOM     14  H   UNL     1      -4.871  -0.313  -0.077  0.00  0.00    -0.084 HD
ATOM     15  H   UNL     1      -4.002  -1.685   0.378  0.00  0.00    -0.084 HD
ENDBRANCH   1   8
BRANCH   2  16
ATOM     16  S   UNL     1       0.285   2.069  -0.113  0.00  0.00    +0.043 S 
ATOM     17  O   UNL     1      -0.299   2.247   1.224  0.00  0.00    -0.065 OA
ATOM     18  O   UNL     1       1.373   3.011  -0.413  0.00  0.00    -0.065 OA
ATOM     19  O   UNL     1      -0.694   1.929  -1.199  0.00  0.00    -0.065 OA
ENDBRANCH   2  16
TORSDOF 2
