REMARK  Name = 54677946
REMARK  4 active torsions:
REMARK  status: ('A' for Active; 'I' for Inactive)
REMARK    1  A    between atoms: C_5  and  C_16
REMARK    2  A    between atoms: C_7  and  O_25
REMARK    3  A    between atoms: N_15  and  C_17
REMARK    4  A    between atoms: N_15  and  C_23
REMARK                            x       y       z     vdW  Elec       q    Type
REMARK                         _______ _______ _______ _____ _____    ______ ____
ROOT
ATOM      1 CL   UNL     1       2.129  -3.540  -0.133  0.00  0.00    -0.082 Cl
ATOM      2  O   UNL     1       0.741   2.962   0.591  0.00  0.00    -0.267 OA
ATOM      3  N   UNL     1       2.641   1.683   0.234  0.00  0.00    -0.293 N 
ATOM      4  C   UNL     1       3.222   0.391   0.050  0.00  0.00    +0.066 A 
ATOM      5  C   UNL     1       0.403   0.636   0.448  0.00  0.00    +0.143 A 
ATOM      6  C   UNL     1       2.393  -0.743   0.070  0.00  0.00    +0.060 A 
ATOM      7  C   UNL     1       0.944  -0.585   0.279  0.00  0.00    +0.145 A 
ATOM      8  C   UNL     1       1.271   1.860   0.432  0.00  0.00    +0.268 A 
ATOM      9  C   UNL     1       4.605   0.223  -0.151  0.00  0.00    +0.017 C 
ATOM     10  C   UNL     1       2.969  -2.015  -0.111  0.00  0.00    +0.062 C 
ATOM     11  C   UNL     1       3.510   2.858   0.214  0.00  0.00    +0.134 C 
ATOM     12  C   UNL     1       5.159  -1.044  -0.329  0.00  0.00    +0.002 C 
ATOM     13  C   UNL     1       4.340  -2.164  -0.309  0.00  0.00    +0.012 C 
ENDROOT
BRANCH   5  16
ATOM     14  O   UNL     1      -1.435   1.341   1.666  0.00  0.00    -0.269 OA
ATOM     15  N   UNL     1      -1.873   0.364  -0.432  0.00  0.00    -0.255 N 
ATOM     16  C   UNL     1      -1.054   0.812   0.620  0.00  0.00    +0.260 C 
BRANCH  15  17
ATOM     17  C   UNL     1      -3.216  -0.105  -0.136  0.00  0.00    +0.054 C 
ATOM     18  C   UNL     1      -3.493  -0.697   1.096  0.00  0.00    +0.015 C 
ATOM     19  C   UNL     1      -4.229   0.038  -1.084  0.00  0.00    +0.015 C 
ATOM     20  C   UNL     1      -4.782  -1.148   1.380  0.00  0.00    +0.001 C 
ATOM     21  C   UNL     1      -5.519  -0.412  -0.800  0.00  0.00    +0.001 C 
ATOM     22  C   UNL     1      -5.795  -1.005   0.432  0.00  0.00    +0.000 C 
ENDBRANCH  15  17
BRANCH  15  23
ATOM     23  C   UNL     1      -1.400   0.359  -1.826  0.00  0.00    +0.099 C 
ATOM     24  C   UNL     1      -1.716   1.666  -2.524  0.00  0.00    +0.024 C 
ENDBRANCH  15  23
ENDBRANCH   5  16
BRANCH   7  25
ATOM     25  O   UNL     1       0.186  -1.736   0.325  0.00  0.00    -0.505 OA
ATOM     26  H   UNL     1      -0.740  -1.682   0.456  0.00  0.00    +0.292 HD
ENDBRANCH   7  25
TORSDOF 4
