REMARK  Name = 154101
REMARK  4 active torsions:
REMARK  status: ('A' for Active; 'I' for Inactive)
REMARK    1  A    between atoms: C_1  and  C_3
REMARK    2  A    between atoms: C_1  and  C_10
REMARK    3  A    between atoms: C_1  and  C_17
REMARK    4  A    between atoms: C_17  and  O_18
REMARK                            x       y       z     vdW  Elec       q    Type
REMARK                         _______ _______ _______ _____ _____    ______ ____
ROOT
ATOM      1  C   UNL     1       0.039   0.396  -0.674  0.00  0.00    +0.102 C 
ENDROOT
BRANCH   1   3
ATOM      2  N   UNL     1       2.456   0.480  -0.350  0.00  0.00    +0.386 N 
ATOM      3  C   UNL     1       1.235  -0.238   0.033  0.00  0.00    -0.047 C 
ATOM      4  C   UNL     1       1.344  -1.727  -0.325  0.00  0.00    -0.021 C 
ATOM      5  C   UNL     1       2.580  -2.359   0.310  0.00  0.00    -0.004 C 
ATOM      6  C   UNL     1       3.828  -1.550  -0.028  0.00  0.00    -0.023 C 
ATOM      7  C   UNL     1       3.638  -0.073   0.311  0.00  0.00    -0.082 C 
ATOM      8  H   UNL     1       2.359   1.461  -0.087  0.00  0.00    -0.084 HD
ATOM      9  H   UNL     1       2.580   0.384  -1.358  0.00  0.00    -0.084 HD
ENDBRANCH   1   3
BRANCH   1  10
ATOM     10  C   UNL     1      -1.277  -0.270  -0.302  0.00  0.00    -0.014 C 
ATOM     11  C   UNL     1      -1.445  -0.746   0.982  0.00  0.00    -0.004 C 
ATOM     12  C   UNL     1      -2.264  -0.380  -1.261  0.00  0.00    -0.004 C 
ATOM     13  C   UNL     1      -2.652  -1.357   1.323  0.00  0.00    -0.000 C 
ATOM     14  C   UNL     1      -3.471  -0.991  -0.920  0.00  0.00    -0.000 C 
ATOM     15  C   UNL     1      -3.665  -1.480   0.372  0.00  0.00    -0.000 C 
ENDBRANCH   1  10
BRANCH   1  17
ATOM     16  O   UNL     1       0.116   2.765  -1.275  0.00  0.00    -0.250 OA
ATOM     17  C   UNL     1       0.004   1.899  -0.417  0.00  0.00    +0.319 C 
BRANCH  17  18
ATOM     18  O   UNL     1      -0.194   2.128   0.917  0.00  0.00    -0.444 OA
ATOM     19  C   UNL     1      -0.273   3.504   1.303  0.00  0.00    +0.256 C 
ENDBRANCH  17  18
ENDBRANCH   1  17
TORSDOF 4
