REMARK  Name = 23629654
REMARK  7 active torsions:
REMARK  status: ('A' for Active; 'I' for Inactive)
REMARK    1  A    between atoms: N_2  and  C_21
REMARK    2  A    between atoms: C_3  and  C_7
REMARK    3  A    between atoms: C_11  and  C_12
REMARK    4  A    between atoms: C_12  and  N_13
REMARK    5  A    between atoms: N_13  and  C_16
REMARK    6  A    between atoms: C_21  and  C_22
REMARK    7  A    between atoms: C_27  and  C_30
REMARK                            x       y       z     vdW  Elec       q    Type
REMARK                         _______ _______ _______ _____ _____    ______ ____
ROOT
ATOM      1  O   UNL     1       0.308   2.230   1.420  0.00  0.00    -0.273 OA
ATOM      2  N   UNL     1       1.799   2.663  -0.315  0.00  0.00    -0.299 N 
ATOM      3  C   UNL     1       0.544   2.558   0.260  0.00  0.00    +0.241 C 
ATOM      4  H   UNL     1       1.861   2.937  -1.259  0.00  0.00    +0.150 HD
ENDROOT
BRANCH   3   7
ATOM      5  O   UNL     1      -1.037   0.126  -1.151  0.00  0.00    -0.277 OA
ATOM      6  N   UNL     1      -1.733   2.164  -0.304  0.00  0.00    -0.275 N 
ATOM      7  C   UNL     1      -0.551   2.920  -0.698  0.00  0.00    +0.152 C 
ATOM      8  C   UNL     1      -0.962   4.381  -0.560  0.00  0.00    +0.031 C 
ATOM      9  C   UNL     1      -2.734   3.033   0.309  0.00  0.00    +0.094 C 
ATOM     10  C   UNL     1      -2.013   4.352   0.546  0.00  0.00    +0.024 C 
ATOM     11  C   UNL     1      -1.906   0.829  -0.633  0.00  0.00    +0.204 C 
BRANCH  11  12
ATOM     12  C   UNL     1      -3.259   0.249  -0.305  0.00  0.00    +0.006 C 
BRANCH  12  13
ATOM     13  N   UNL     1      -3.216  -1.137  -0.715  0.00  0.00    +0.391 N 
ATOM     14  H   UNL     1      -3.031  -1.181  -1.717  0.00  0.00    -0.084 HD
ATOM     15  H   UNL     1      -2.477  -1.605  -0.190  0.00  0.00    -0.084 HD
BRANCH  13  16
ATOM     16  C   UNL     1      -4.472  -1.809  -0.436  0.00  0.00    -0.061 C 
ATOM     17  C   UNL     1      -4.786  -1.878   1.053  0.00  0.00    -0.021 C 
ATOM     18  C   UNL     1      -4.455  -3.280  -0.834  0.00  0.00    -0.021 C 
ATOM     19  C   UNL     1      -5.848  -2.970   1.148  0.00  0.00    -0.002 C 
ATOM     20  C   UNL     1      -5.635  -3.874  -0.069  0.00  0.00    -0.002 C 
ENDBRANCH  13  16
ENDBRANCH  12  13
ENDBRANCH  11  12
ENDBRANCH   3   7
BRANCH   2  21
ATOM     21  C   UNL     1       3.023   2.391   0.404  0.00  0.00    +0.116 C 
BRANCH  21  22
ATOM     22  C   UNL     1       3.431   0.947   0.290  0.00  0.00    -0.003 C 
ATOM     23  C   UNL     1       4.256   0.549  -0.753  0.00  0.00    -0.003 C 
ATOM     24  C   UNL     1       2.975   0.032   1.230  0.00  0.00    -0.003 C 
ATOM     25  C   UNL     1       4.632  -0.790  -0.859  0.00  0.00    +0.002 C 
ATOM     26  C   UNL     1       3.351  -1.307   1.124  0.00  0.00    +0.002 C 
ATOM     27  C   UNL     1       4.179  -1.718   0.080  0.00  0.00    +0.031 C 
BRANCH  27  30
ATOM     28  N   UNL     1       5.400  -3.556  -1.060  0.00  0.00    -0.343 N 
ATOM     29  N   UNL     1       4.139  -3.991   0.859  0.00  0.00    -0.285 NA
ATOM     30  C   UNL     1       4.572  -3.114  -0.029  0.00  0.00    +0.117 C 
ATOM     31  H   UNL     1       5.654  -4.506  -1.115  0.00  0.00    +0.144 HD
ATOM     32  H   UNL     1       5.731  -2.918  -1.733  0.00  0.00    +0.144 HD
ATOM     33  H   UNL     1       4.404  -4.936   0.787  0.00  0.00    +0.188 HD
ENDBRANCH  27  30
ENDBRANCH  21  22
ENDBRANCH   2  21
TORSDOF 7
