5284594
  -OEChem-11201715113D

 50 55  0     1  0  0  0  0  0999 V2000
   -2.6869   -0.0351    1.3651 O   0  0  0  0  0  0  0  0  0  0  0  0
    0.6275   -2.6332   -0.2484 O   0  0  0  0  0  0  0  0  0  0  0  0
   -4.0000    2.5131    0.9065 O   0  0  0  0  0  0  0  0  0  0  0  0
    2.3451   -0.4511   -0.1501 N   0  0  2  0  0  0  0  0  0  0  0  0
   -0.4741   -0.6273    0.5212 C   0  0  1  0  0  0  0  0  0  0  0  0
    0.1163   -1.3655   -0.6924 C   0  0  1  0  0  0  0  0  0  0  0  0
    1.3051   -0.4786   -1.2093 C   0  0  1  0  0  0  0  0  0  0  0  0
   -1.7956   -1.1739    1.1077 C   0  0  2  0  0  0  0  0  0  0  0  0
    0.5964   -0.4435    1.6226 C   0  0  0  0  0  0  0  0  0  0  0  0
   -0.9606    0.6981    0.0536 C   0  0  0  0  0  0  0  0  0  0  0  0
   -0.9298   -1.6863   -1.7941 C   0  0  0  0  0  0  0  0  0  0  0  0
    0.8272    0.9492   -1.6665 C   0  0  0  0  0  0  0  0  0  0  0  0
    1.9003    0.1756    1.0971 C   0  0  0  0  0  0  0  0  0  0  0  0
   -0.3611    1.4901   -0.9101 C   0  0  0  0  0  0  0  0  0  0  0  0
   -2.3732   -1.8796   -1.2913 C   0  0  0  0  0  0  0  0  0  0  0  0
    3.6208    0.0963   -0.5996 C   0  0  0  0  0  0  0  0  0  0  0  0
   -2.4671   -2.1679    0.1824 C   0  0  0  0  0  0  0  0  0  0  0  0
    4.6838   -0.1180    0.4607 C   0  0  0  0  0  0  0  0  0  0  0  0
   -2.1803    0.9977    0.6187 C   0  0  0  0  0  0  0  0  0  0  0  0
    6.0536    0.3862    0.1902 C   0  0  0  0  0  0  0  0  0  0  0  0
    5.1810    1.0678    1.2030 C   0  0  0  0  0  0  0  0  0  0  0  0
   -0.9792    2.7065   -1.2024 C   0  0  0  0  0  0  0  0  0  0  0  0
   -2.8062    2.1941    0.3465 C   0  0  0  0  0  0  0  0  0  0  0  0
   -3.0596   -3.2770    0.6499 C   0  0  0  0  0  0  0  0  0  0  0  0
   -2.1834    3.0625   -0.5609 C   0  0  0  0  0  0  0  0  0  0  0  0
    1.7503   -0.9883   -2.0744 H   0  0  0  0  0  0  0  0  0  0  0  0
   -1.6144   -1.6485    2.0809 H   0  0  0  0  0  0  0  0  0  0  0  0
    0.8237   -1.4181    2.0747 H   0  0  0  0  0  0  0  0  0  0  0  0
    0.2153    0.1869    2.4372 H   0  0  0  0  0  0  0  0  0  0  0  0
   -0.6240   -2.6042   -2.3146 H   0  0  0  0  0  0  0  0  0  0  0  0
   -0.9535   -0.9094   -2.5662 H   0  0  0  0  0  0  0  0  0  0  0  0
    0.5328    0.8728   -2.7217 H   0  0  0  0  0  0  0  0  0  0  0  0
    1.6390    1.6817   -1.6331 H   0  0  0  0  0  0  0  0  0  0  0  0
    1.7757    1.2584    0.9718 H   0  0  0  0  0  0  0  0  0  0  0  0
    2.6373    0.0429    1.8968 H   0  0  0  0  0  0  0  0  0  0  0  0
    3.9479   -0.4400   -1.4988 H   0  0  0  0  0  0  0  0  0  0  0  0
    3.5508    1.1577   -0.8618 H   0  0  0  0  0  0  0  0  0  0  0  0
   -2.8508   -2.6686   -1.8857 H   0  0  0  0  0  0  0  0  0  0  0  0
   -2.9503   -0.9702   -1.5022 H   0  0  0  0  0  0  0  0  0  0  0  0
    4.6223   -1.0785    0.9584 H   0  0  0  0  0  0  0  0  0  0  0  0
    1.4784   -2.4840    0.1964 H   0  0  0  0  0  0  0  0  0  0  0  0
    6.2459    0.9065   -0.7400 H   0  0  0  0  0  0  0  0  0  0  0  0
    6.8909   -0.1943    0.5579 H   0  0  0  0  0  0  0  0  0  0  0  0
    5.4285    0.9401    2.2498 H   0  0  0  0  0  0  0  0  0  0  0  0
    4.7959    2.0493    0.9557 H   0  0  0  0  0  0  0  0  0  0  0  0
   -0.5548    3.3738   -1.9477 H   0  0  0  0  0  0  0  0  0  0  0  0
   -3.1024   -3.4877    1.7133 H   0  0  0  0  0  0  0  0  0  0  0  0
   -3.5172   -3.9979   -0.0194 H   0  0  0  0  0  0  0  0  0  0  0  0
   -2.6475    4.0133   -0.8137 H   0  0  0  0  0  0  0  0  0  0  0  0
   -4.2746    3.3879    0.5821 H   0  0  0  0  0  0  0  0  0  0  0  0
  1  8  1  0  0  0  0
  1 19  1  0  0  0  0
  2  6  1  0  0  0  0
  2 41  1  0  0  0  0
  3 23  1  0  0  0  0
  3 50  1  0  0  0  0
  4  7  1  0  0  0  0
  4 13  1  0  0  0  0
  4 16  1  0  0  0  0
  5  6  1  0  0  0  0
  5  8  1  0  0  0  0
  5  9  1  0  0  0  0
  5 10  1  0  0  0  0
  6  7  1  0  0  0  0
  6 11  1  0  0  0  0
  7 12  1  0  0  0  0
  7 26  1  0  0  0  0
  8 17  1  0  0  0  0
  8 27  1  0  0  0  0
  9 13  1  0  0  0  0
  9 28  1  0  0  0  0
  9 29  1  0  0  0  0
 10 14  2  0  0  0  0
 10 19  1  0  0  0  0
 11 15  1  0  0  0  0
 11 30  1  0  0  0  0
 11 31  1  0  0  0  0
 12 14  1  0  0  0  0
 12 32  1  0  0  0  0
 12 33  1  0  0  0  0
 13 34  1  0  0  0  0
 13 35  1  0  0  0  0
 14 22  1  0  0  0  0
 15 17  1  0  0  0  0
 15 38  1  0  0  0  0
 15 39  1  0  0  0  0
 16 18  1  0  0  0  0
 16 36  1  0  0  0  0
 16 37  1  0  0  0  0
 17 24  2  0  0  0  0
 18 20  1  0  0  0  0
 18 21  1  0  0  0  0
 18 40  1  0  0  0  0
 19 23  2  0  0  0  0
 20 21  1  0  0  0  0
 20 42  1  0  0  0  0
 20 43  1  0  0  0  0
 21 44  1  0  0  0  0
 21 45  1  0  0  0  0
 22 25  2  0  0  0  0
 22 46  1  0  0  0  0
 23 25  1  0  0  0  0
 24 47  1  0  0  0  0
 24 48  1  0  0  0  0
 25 49  1  0  0  0  0
M  END
> <DATABASE_ID>
DB06230

> <DATABASE_NAME>
drugbank

> <ORIGINAL_SOURCE>
PUBCHEM

> <ORIGINAL_SOURCE_URL>
https://pubchem.ncbi.nlm.nih.gov/rest/pug/compound/inchikey/WJBLNOPPDWQMCH-MBPVOVBZSA-N/SDF?record_type=3d

> <SMILES>
[H][C@@]12OC3=C(O)C=CC4=C3[C@@]11CCN(CC3CC3)[C@]([H])(C4)[C@]1(O)CCC2=C

> <INCHI_IDENTIFIER>
InChI=1S/C21H25NO3/c1-12-6-7-21(24)16-10-14-4-5-15(23)18-17(14)20(21,19(12)25-18)8-9-22(16)11-13-2-3-13/h4-5,13,16,19,23-24H,1-3,6-11H2/t16-,19+,20+,21-/m1/s1

> <INCHI_KEY>
WJBLNOPPDWQMCH-MBPVOVBZSA-N

> <FORMULA>
C21H25NO3

> <MOLECULAR_WEIGHT>
339.435

> <EXACT_MASS>
339.183443669

> <JCHEM_ACCEPTOR_COUNT>
4

> <JCHEM_ATOM_COUNT>
50

> <JCHEM_AVERAGE_POLARIZABILITY>
37.265904687754585

> <JCHEM_BIOAVAILABILITY>
1

> <JCHEM_DONOR_COUNT>
2

> <JCHEM_FORMAL_CHARGE>
0

> <JCHEM_GHOSE_FILTER>
1

> <JCHEM_IUPAC>
(1S,5R,13S,17S)-4-(cyclopropylmethyl)-14-methylidene-12-oxa-4-azapentacyclo[9.6.1.0^{1,13}.0^{5,17}.0^{7,18}]octadeca-7(18),8,10-triene-10,17-diol

> <ALOGPS_LOGP>
2.24

> <JCHEM_LOGP>
1.9476479668885207

> <ALOGPS_LOGS>
-2.61

> <JCHEM_MDDR_LIKE_RULE>
0

> <JCHEM_NUMBER_OF_RINGS>
6

> <JCHEM_PHYSIOLOGICAL_CHARGE>
1

> <JCHEM_PKA>
13.592680362095027

> <JCHEM_PKA_STRONGEST_ACIDIC>
10.352080701176586

> <JCHEM_PKA_STRONGEST_BASIC>
9.566401408977358

> <JCHEM_POLAR_SURFACE_AREA>
52.93000000000001

> <JCHEM_REFRACTIVITY>
95.20950000000002

> <JCHEM_ROTATABLE_BOND_COUNT>
2

> <JCHEM_RULE_OF_FIVE>
1

> <ALOGPS_SOLUBILITY>
8.39e-01 g/l

> <JCHEM_TRADITIONAL_IUPAC>
(1S,5R,13S,17S)-4-(cyclopropylmethyl)-14-methylidene-12-oxa-4-azapentacyclo[9.6.1.0^{1,13}.0^{5,17}.0^{7,18}]octadeca-7(18),8,10-triene-10,17-diol

> <JCHEM_VEBER_RULE>
0

> <DRUGBANK_ID>
DB06230

> <DRUG_GROUPS>
approved; investigational; withdrawn

> <GENERIC_NAME>
Nalmefene

> <SYNONYMS>
Nalmefene; Nalmefeno

> <PRODUCTS>
Revex; Selincro

> <SALTS>
Nalmefene hydrochloride; Nalmefene hydrochloride dihydrate

$$$$
