REMARK  Name = 11993740
REMARK  6 active torsions:
REMARK  status: ('A' for Active; 'I' for Inactive)
REMARK    1  A    between atoms: N_2  and  C_23
REMARK    2  A    between atoms: C_4  and  N_12
REMARK    3  A    between atoms: C_5  and  O_26
REMARK    4  A    between atoms: C_9  and  C_29
REMARK    5  A    between atoms: C_14  and  N_19
REMARK    6  A    between atoms: C_29  and  O_30
REMARK                            x       y       z     vdW  Elec       q    Type
REMARK                         _______ _______ _______ _____ _____    ______ ____
ROOT
ATOM      1  O   UNL     1       3.388  -2.619   0.403  0.00  0.00    -0.286 OA
ATOM      2  N   UNL     1       1.888   1.109  -0.284  0.00  0.00    -0.285 N 
ATOM      3  C   UNL     1       0.972   0.048  -0.033  0.00  0.00    +0.090 C 
ATOM      4  C   UNL     1      -1.287  -0.829   0.236  0.00  0.00    +0.083 C 
ATOM      5  C   UNL     1      -0.419   0.238  -0.014  0.00  0.00    +0.165 C 
ATOM      6  C   UNL     1       3.245   0.852  -0.288  0.00  0.00    +0.075 C 
ATOM      7  C   UNL     1       1.464  -1.253   0.208  0.00  0.00    +0.056 C 
ATOM      8  C   UNL     1      -0.782  -2.104   0.472  0.00  0.00    +0.018 C 
ATOM      9  C   UNL     1       3.815  -0.340  -0.072  0.00  0.00    +0.129 C 
ATOM     10  C   UNL     1       0.593  -2.321   0.460  0.00  0.00    +0.006 C 
ATOM     11  C   UNL     1       2.929  -1.502   0.198  0.00  0.00    +0.204 C 
ENDROOT
BRANCH   4  12
ATOM     12  N   UNL     1      -2.673  -0.635   0.256  0.00  0.00    -0.307 N 
ATOM     13  C   UNL     1      -4.833  -0.615  -0.943  0.00  0.00    +0.018 C 
ATOM     14  C   UNL     1      -4.599   0.495   1.331  0.00  0.00    -0.046 C 
ATOM     15  C   UNL     1      -5.529  -0.268   0.381  0.00  0.00    -0.019 C 
ATOM     16  C   UNL     1      -3.521  -1.373  -0.689  0.00  0.00    +0.091 C 
ATOM     17  C   UNL     1      -3.288  -0.273   1.542  0.00  0.00    +0.069 C 
ATOM     18  C   UNL     1      -5.761  -1.433  -1.839  0.00  0.00    +0.002 C 
BRANCH  14  19
ATOM     19  N   UNL     1      -4.318   1.837   0.816  0.00  0.00    +0.383 N 
ATOM     20  H   UNL     1      -5.196   2.339   0.680  0.00  0.00    -0.089 HD
ATOM     21  H   UNL     1      -3.826   1.764  -0.074  0.00  0.00    -0.089 HD
ATOM     22  H   UNL     1      -3.738   2.343   1.485  0.00  0.00    -0.089 HD
ENDBRANCH  14  19
ENDBRANCH   4  12
BRANCH   2  23
ATOM     23  C   UNL     1       1.475   2.508  -0.546  0.00  0.00    +0.077 C 
ATOM     24  C   UNL     1       2.025   3.630   0.268  0.00  0.00    +0.022 C 
ATOM     25  C   UNL     1       0.585   3.232   0.407  0.00  0.00    +0.022 C 
ENDBRANCH   2  23
BRANCH   5  26
ATOM     26  O   UNL     1      -0.996   1.457  -0.234  0.00  0.00    -0.469 OA
ATOM     27  C   UNL     1      -1.321   1.782  -1.583  0.00  0.00    +0.253 C 
ENDBRANCH   5  26
BRANCH   9  29
ATOM     28  O   UNL     1       6.033   0.473   0.188  0.00  0.00    -0.245 OA
ATOM     29  C   UNL     1       5.275  -0.432  -0.112  0.00  0.00    +0.342 C 
BRANCH  29  30
ATOM     30  O   UNL     1       5.641  -1.663  -0.530  0.00  0.00    -0.477 OA
ATOM     31  H   UNL     1       4.987  -2.300  -0.740  0.00  0.00    +0.295 HD
ENDBRANCH  29  30
ENDBRANCH   9  29
TORSDOF 6
