REMARK  Name = 68911
REMARK  1 active torsions:
REMARK  status: ('A' for Active; 'I' for Inactive)
REMARK    1  A    between atoms: C_16  and  O_20
REMARK                            x       y       z     vdW  Elec       q    Type
REMARK                         _______ _______ _______ _____ _____    ______ ____
ROOT
ATOM      1  O   UNL     1      -0.808   0.454   1.638  0.00  0.00    -0.218 OA
ATOM      2  O   UNL     1      -1.264   1.323  -1.096  0.00  0.00    -0.306 OA
ATOM      3  O   UNL     1       0.919   1.733  -0.395  0.00  0.00    -0.304 OA
ATOM      4  O   UNL     1      -1.308   1.762   1.224  0.00  0.00    -0.197 OA
ATOM      5  C   UNL     1      -0.252  -0.253   0.497  0.00  0.00    +0.178 C 
ATOM      6  C   UNL     1      -1.282  -1.395   0.218  0.00  0.00    +0.033 C 
ATOM      7  C   UNL     1       1.109  -0.823   0.987  0.00  0.00    +0.038 C 
ATOM      8  C   UNL     1      -0.704  -2.518  -0.683  0.00  0.00    +0.003 C 
ATOM      9  C   UNL     1      -0.031   0.704  -0.702  0.00  0.00    +0.268 C 
ATOM     10  C   UNL     1       1.634  -1.942   0.073  0.00  0.00    +0.003 C 
ATOM     11  C   UNL     1       2.120   0.336   1.201  0.00  0.00    +0.059 C 
ATOM     12  C   UNL     1      -2.636  -0.893  -0.335  0.00  0.00    +0.008 C 
ATOM     13  C   UNL     1       0.609  -3.051  -0.102  0.00  0.00    +0.000 C 
ATOM     14  C   UNL     1      -2.092   1.583   0.041  0.00  0.00    +0.221 C 
ATOM     15  C   UNL     1      -3.126   0.454   0.206  0.00  0.00    +0.059 C 
ATOM     16  C   UNL     1       2.211   1.266  -0.019  0.00  0.00    +0.237 C 
ATOM     17  C   UNL     1      -1.676  -3.690  -0.868  0.00  0.00    +0.000 C 
ATOM     18  C   UNL     1       3.501  -0.143   1.652  0.00  0.00    +0.005 C 
ATOM     19  C   UNL     1      -2.798   2.914  -0.207  0.00  0.00    +0.064 C 
ENDROOT
BRANCH  16  20
ATOM     20  O   UNL     1       2.898   0.655  -1.104  0.00  0.00    -0.328 OA
ATOM     21  C   UNL     1       2.975   1.523  -2.227  0.00  0.00    +0.177 C 
ENDBRANCH  16  20
TORSDOF 1
