REMARK  Name = 11406590
REMARK  3 active torsions:
REMARK  status: ('A' for Active; 'I' for Inactive)
REMARK    1  A    between atoms: N_2  and  C_16
REMARK    2  A    between atoms: C_12  and  O_21
REMARK    3  A    between atoms: O_21  and  C_24
REMARK                            x       y       z     vdW  Elec       q    Type
REMARK                         _______ _______ _______ _____ _____    ______ ____
ROOT
ATOM      1  O   UNL     1      -1.682   2.984   0.994  0.00  0.00    -0.266 OA
ATOM      2  N   UNL     1       4.134  -0.611  -0.853  0.00  0.00    -0.270 N 
ATOM      3  N   UNL     1       2.229   0.605  -0.221  0.00  0.00    -0.322 NA
ATOM      4  N   UNL     1       0.267   1.847   0.423  0.00  0.00    -0.225 N 
ATOM      5  N   UNL     1       2.050  -1.309  -1.670  0.00  0.00    -0.170 NA
ATOM      6  C   UNL     1       2.735  -0.431  -0.919  0.00  0.00    +0.146 C 
ATOM      7  C   UNL     1       0.886   0.774  -0.287  0.00  0.00    +0.204 C 
ATOM      8  C   UNL     1       0.080  -0.074  -1.033  0.00  0.00    +0.068 C 
ATOM      9  C   UNL     1       0.719  -1.103  -1.706  0.00  0.00    +0.116 C 
ATOM     10  C   UNL     1      -1.357   0.121  -1.093  0.00  0.00    +0.048 C 
ATOM     11  C   UNL     1      -1.111   2.072   0.394  0.00  0.00    +0.289 C 
ATOM     12  C   UNL     1      -1.931   1.128  -0.425  0.00  0.00    +0.199 C 
ATOM     13  C   UNL     1       1.139   2.724   1.199  0.00  0.00    +0.123 C 
ATOM     14  H   UNL     1       4.536  -1.359  -1.351  0.00  0.00    +0.159 HD
ENDROOT
BRANCH   2  16
ATOM     15  O   UNL     1       7.053  -1.300   1.231  0.00  0.00    -0.354 OA
ATOM     16  C   UNL     1       5.003   0.258  -0.085  0.00  0.00    +0.084 C 
ATOM     17  C   UNL     1       4.940  -0.107   1.399  0.00  0.00    +0.052 C 
ATOM     18  C   UNL     1       6.436   0.158  -0.612  0.00  0.00    +0.052 C 
ATOM     19  C   UNL     1       5.713  -1.386   1.710  0.00  0.00    +0.144 C 
ATOM     20  C   UNL     1       7.108  -1.143  -0.186  0.00  0.00    +0.144 C 
ENDBRANCH   2  16
BRANCH  12  21
ATOM     21  O   UNL     1      -3.292   1.353  -0.452  0.00  0.00    -0.447 OA
BRANCH  21  24
ATOM     22  F   UNL     1      -5.164   0.190  -2.101  0.00  0.00    -0.201 F 
ATOM     23  F   UNL     1      -6.509  -2.689   1.407  0.00  0.00    -0.204 F 
ATOM     24  C   UNL     1      -4.093   0.347   0.010  0.00  0.00    +0.173 C 
ATOM     25  C   UNL     1      -5.036  -0.232  -0.836  0.00  0.00    +0.177 C 
ATOM     26  C   UNL     1      -3.962  -0.093   1.324  0.00  0.00    +0.042 C 
ATOM     27  C   UNL     1      -5.853  -1.259  -0.363  0.00  0.00    +0.062 C 
ATOM     28  C   UNL     1      -4.779  -1.120   1.797  0.00  0.00    +0.033 C 
ATOM     29  C   UNL     1      -5.724  -1.703   0.953  0.00  0.00    +0.143 C 
ENDBRANCH  21  24
ENDBRANCH  12  21
TORSDOF 3
