REMARK  Name = 4184
REMARK  0 active torsions:
REMARK  status: ('A' for Active; 'I' for Inactive)
REMARK                            x       y       z     vdW  Elec       q    Type
REMARK                         _______ _______ _______ _____ _____    ______ ____
ROOT
ATOM      1  N   UNL     1       0.456   1.207  -0.119  0.00  0.00    -0.310 N 
ATOM      2  N   UNL     1       3.308   1.103  -0.058  0.00  0.00    +0.388 N 
ATOM      3  C   UNL     1       1.141  -0.041  -0.530  0.00  0.00    +0.074 C 
ATOM      4  C   UNL     1       2.511  -0.108   0.188  0.00  0.00    -0.053 C 
ATOM      5  C   UNL     1       1.245   2.434  -0.284  0.00  0.00    +0.068 C 
ATOM      6  C   UNL     1       0.432  -1.382  -0.334  0.00  0.00    -0.010 C 
ATOM      7  C   UNL     1       2.592   2.288   0.424  0.00  0.00    -0.056 C 
ATOM      8  C   UNL     1      -0.932   1.330  -0.132  0.00  0.00    +0.044 C 
ATOM      9  C   UNL     1      -0.527  -1.645   0.662  0.00  0.00    -0.020 C 
ATOM     10  C   UNL     1      -1.054  -0.547   1.545  0.00  0.00    +0.054 C 
ATOM     11  C   UNL     1      -1.723   0.508   0.699  0.00  0.00    -0.004 C 
ATOM     12  C   UNL     1       4.617   0.998   0.586  0.00  0.00    -0.101 C 
ATOM     13  C   UNL     1       0.822  -2.443  -1.178  0.00  0.00    -0.003 C 
ATOM     14  C   UNL     1      -1.596   2.287  -0.922  0.00  0.00    +0.014 C 
ATOM     15  C   UNL     1      -1.061  -2.940   0.797  0.00  0.00    -0.004 C 
ATOM     16  C   UNL     1      -3.121   0.639   0.717  0.00  0.00    -0.003 C 
ATOM     17  C   UNL     1       0.284  -3.723  -1.038  0.00  0.00    -0.000 C 
ATOM     18  C   UNL     1      -0.655  -3.972  -0.046  0.00  0.00    -0.000 C 
ATOM     19  C   UNL     1      -2.987   2.416  -0.898  0.00  0.00    +0.001 C 
ATOM     20  C   UNL     1      -3.749   1.592  -0.078  0.00  0.00    -0.000 C 
ATOM     21  H   UNL     1       3.453   1.197  -1.064  0.00  0.00    -0.080 HD
ENDROOT
TORSDOF 0
