REMARK  Name = 11500273
REMARK  5 active torsions:
REMARK  status: ('A' for Active; 'I' for Inactive)
REMARK    1  A    between atoms: C_3  and  C_6
REMARK    2  A    between atoms: C_3  and  C_15
REMARK    3  A    between atoms: C_6  and  C_7
REMARK    4  A    between atoms: C_7  and  C_9
REMARK    5  A    between atoms: C_15  and  N_16
REMARK                            x       y       z     vdW  Elec       q    Type
REMARK                         _______ _______ _______ _____ _____    ______ ____
ROOT
ATOM      1  O   UNL     1      -1.427   1.167  -0.892  0.00  0.00    -0.330 OA
ATOM      2  O   UNL     1      -1.785   1.139   1.429  0.00  0.00    -0.330 OA
ATOM      3  C   UNL     1      -1.152   0.464   0.331  0.00  0.00    +0.206 C 
ATOM      4  C   UNL     1      -1.978   2.415  -0.474  0.00  0.00    +0.177 C 
ATOM      5  C   UNL     1      -2.671   2.075   0.817  0.00  0.00    +0.177 C 
ENDROOT
BRANCH   3   6
ATOM      6  C   UNL     1       0.352   0.444   0.573  0.00  0.00    +0.063 C 
BRANCH   6   7
ATOM      7  C   UNL     1       1.090  -0.255  -0.569  0.00  0.00    +0.031 C 
BRANCH   7   9
ATOM      8 CL   UNL     1       7.024  -0.246   0.332  0.00  0.00    -0.082 Cl
ATOM      9  C   UNL     1       2.581  -0.253  -0.343  0.00  0.00    -0.022 C 
ATOM     10  C   UNL     1       3.342   0.800  -0.827  0.00  0.00    -0.003 C 
ATOM     11  C   UNL     1       3.167  -1.304   0.346  0.00  0.00    -0.003 C 
ATOM     12  C   UNL     1       4.721   0.802  -0.618  0.00  0.00    +0.011 C 
ATOM     13  C   UNL     1       4.546  -1.302   0.556  0.00  0.00    +0.011 C 
ATOM     14  C   UNL     1       5.323  -0.249   0.074  0.00  0.00    +0.058 C 
ENDBRANCH   7   9
ENDBRANCH   6   7
ENDBRANCH   3   6
BRANCH   3  15
ATOM     15  C   UNL     1      -1.713  -0.948   0.216  0.00  0.00    +0.153 C 
BRANCH  15  16
ATOM     16  N   UNL     1      -3.148  -0.949  -0.031  0.00  0.00    -0.263 N 
ATOM     17  N   UNL     1      -5.317  -0.959   0.382  0.00  0.00    -0.225 NA
ATOM     18  C   UNL     1      -3.745  -0.935  -1.251  0.00  0.00    +0.088 C 
ATOM     19  C   UNL     1      -4.119  -0.963   0.921  0.00  0.00    +0.168 C 
ATOM     20  C   UNL     1      -5.092  -0.942  -0.972  0.00  0.00    +0.117 C 
ENDBRANCH  15  16
ENDBRANCH   3  15
TORSDOF 5
