16750106
  -OEChem-10051720533D

 55 58  0     0  0  0  0  0  0999 V2000
    5.1791   -0.4342    0.9343 S   0  0  0  0  0  0  0  0  0  0  0  0
    5.8602    0.4049    1.9119 O   0  0  0  0  0  0  0  0  0  0  0  0
    5.0624   -1.8652    1.1809 O   0  0  0  0  0  0  0  0  0  0  0  0
    5.9134   -0.2015   -0.5914 N   0  0  0  0  0  0  0  0  0  0  0  0
   -1.7502    3.5823   -0.5284 N   0  0  0  0  0  0  0  0  0  0  0  0
   -3.8136   -0.7009    0.5373 N   0  0  0  0  0  0  0  0  0  0  0  0
   -4.7158   -2.8006    1.1732 N   0  0  0  0  0  0  0  0  0  0  0  0
    6.9206   -1.1579   -1.0726 C   0  0  0  0  0  0  0  0  0  0  0  0
    6.2481   -2.5196   -1.2507 C   0  0  0  0  0  0  0  0  0  0  0  0
    8.0388   -1.2387   -0.0323 C   0  0  0  0  0  0  0  0  0  0  0  0
    7.4669   -0.6461   -2.4064 C   0  0  0  0  0  0  0  0  0  0  0  0
    3.5705    0.1950    0.6775 C   0  0  0  0  0  0  0  0  0  0  0  0
    1.0007    1.2000    0.2675 C   0  0  0  0  0  0  0  0  0  0  0  0
    2.5551   -0.6490    0.2282 C   0  0  0  0  0  0  0  0  0  0  0  0
    3.3012    1.5416    0.9218 C   0  0  0  0  0  0  0  0  0  0  0  0
   -0.3293    1.7200    0.0557 C   0  0  0  0  0  0  0  0  0  0  0  0
    1.2701   -0.1467    0.0233 C   0  0  0  0  0  0  0  0  0  0  0  0
    2.0163    2.0441    0.7168 C   0  0  0  0  0  0  0  0  0  0  0  0
   -2.7309    1.4470    0.0053 C   0  0  0  0  0  0  0  0  0  0  0  0
   -1.4503    0.9185    0.2166 C   0  0  0  0  0  0  0  0  0  0  0  0
   -2.8362    2.8022   -0.3711 C   0  0  0  0  0  0  0  0  0  0  0  0
   -3.8859    0.6617    0.1603 C   0  0  0  0  0  0  0  0  0  0  0  0
   -0.5323    3.0339   -0.3145 C   0  0  0  0  0  0  0  0  0  0  0  0
   -4.1087    3.3267   -0.5805 C   0  0  0  0  0  0  0  0  0  0  0  0
   -5.1459    1.2122   -0.0556 C   0  0  0  0  0  0  0  0  0  0  0  0
   -5.2571    2.5463   -0.4265 C   0  0  0  0  0  0  0  0  0  0  0  0
   -4.6349   -1.8065    0.2606 C   0  0  0  0  0  0  0  0  0  0  0  0
   -5.3164   -1.8038   -0.9459 C   0  0  0  0  0  0  0  0  0  0  0  0
   -6.1336   -2.8912   -1.2340 C   0  0  0  0  0  0  0  0  0  0  0  0
   -5.5197   -3.8410    0.8584 C   0  0  0  0  0  0  0  0  0  0  0  0
   -6.2427   -3.9334   -0.3199 C   0  0  0  0  0  0  0  0  0  0  0  0
    5.3220    0.1984   -1.3323 H   0  0  0  0  0  0  0  0  0  0  0  0
    6.2213   -3.1198   -0.3376 H   0  0  0  0  0  0  0  0  0  0  0  0
    5.2287   -2.4281   -1.6431 H   0  0  0  0  0  0  0  0  0  0  0  0
    6.8134   -3.1282   -1.9678 H   0  0  0  0  0  0  0  0  0  0  0  0
    7.7134   -1.6733    0.9181 H   0  0  0  0  0  0  0  0  0  0  0  0
    8.4511   -0.2463    0.1848 H   0  0  0  0  0  0  0  0  0  0  0  0
    8.8609   -1.8644   -0.3994 H   0  0  0  0  0  0  0  0  0  0  0  0
    6.6733   -0.5762   -3.1594 H   0  0  0  0  0  0  0  0  0  0  0  0
    7.9019    0.3544   -2.2984 H   0  0  0  0  0  0  0  0  0  0  0  0
    8.2451   -1.3095   -2.7997 H   0  0  0  0  0  0  0  0  0  0  0  0
    2.7460   -1.6977    0.0182 H   0  0  0  0  0  0  0  0  0  0  0  0
    4.0778    2.2161    1.2715 H   0  0  0  0  0  0  0  0  0  0  0  0
    0.5188   -0.8335   -0.3570 H   0  0  0  0  0  0  0  0  0  0  0  0
    1.8454    3.0929    0.9441 H   0  0  0  0  0  0  0  0  0  0  0  0
   -1.3413   -0.1156    0.5317 H   0  0  0  0  0  0  0  0  0  0  0  0
    0.2809    3.7308   -0.4920 H   0  0  0  0  0  0  0  0  0  0  0  0
   -4.2228    4.3698   -0.8700 H   0  0  0  0  0  0  0  0  0  0  0  0
   -6.0590    0.6417    0.0870 H   0  0  0  0  0  0  0  0  0  0  0  0
   -6.2365    2.9864   -0.5899 H   0  0  0  0  0  0  0  0  0  0  0  0
   -3.2189   -0.8544    1.3469 H   0  0  0  0  0  0  0  0  0  0  0  0
   -5.2169   -1.0144   -1.6830 H   0  0  0  0  0  0  0  0  0  0  0  0
   -6.6787   -2.9303   -2.1723 H   0  0  0  0  0  0  0  0  0  0  0  0
   -5.5697   -4.6278    1.6038 H   0  0  0  0  0  0  0  0  0  0  0  0
   -6.8723   -4.7917   -0.5244 H   0  0  0  0  0  0  0  0  0  0  0  0
  1  2  2  0  0  0  0
  1  3  2  0  0  0  0
  1  4  1  0  0  0  0
  1 12  1  0  0  0  0
  4  8  1  0  0  0  0
  4 32  1  0  0  0  0
  5 21  1  0  0  0  0
  5 23  2  0  0  0  0
  6 22  1  0  0  0  0
  6 27  1  0  0  0  0
  6 51  1  0  0  0  0
  7 27  1  0  0  0  0
  7 30  2  0  0  0  0
  8  9  1  0  0  0  0
  8 10  1  0  0  0  0
  8 11  1  0  0  0  0
  9 33  1  0  0  0  0
  9 34  1  0  0  0  0
  9 35  1  0  0  0  0
 10 36  1  0  0  0  0
 10 37  1  0  0  0  0
 10 38  1  0  0  0  0
 11 39  1  0  0  0  0
 11 40  1  0  0  0  0
 11 41  1  0  0  0  0
 12 14  2  0  0  0  0
 12 15  1  0  0  0  0
 13 16  1  0  0  0  0
 13 17  2  0  0  0  0
 13 18  1  0  0  0  0
 14 17  1  0  0  0  0
 14 42  1  0  0  0  0
 15 18  2  0  0  0  0
 15 43  1  0  0  0  0
 16 20  2  0  0  0  0
 16 23  1  0  0  0  0
 17 44  1  0  0  0  0
 18 45  1  0  0  0  0
 19 20  1  0  0  0  0
 19 21  2  0  0  0  0
 19 22  1  0  0  0  0
 20 46  1  0  0  0  0
 21 24  1  0  0  0  0
 22 25  2  0  0  0  0
 23 47  1  0  0  0  0
 24 26  2  0  0  0  0
 24 48  1  0  0  0  0
 25 26  1  0  0  0  0
 25 49  1  0  0  0  0
 26 50  1  0  0  0  0
 27 28  2  0  0  0  0
 28 29  1  0  0  0  0
 28 52  1  0  0  0  0
 29 31  2  0  0  0  0
 29 53  1  0  0  0  0
 30 31  1  0  0  0  0
 30 54  1  0  0  0  0
 31 55  1  0  0  0  0
M  END
> <DATABASE_ID>
DB06933

> <DATABASE_NAME>
drugbank

> <ORIGINAL_SOURCE>
PUBCHEM

> <ORIGINAL_SOURCE_URL>
https://pubchem.ncbi.nlm.nih.gov/rest/pug/compound/inchikey/GJTCKUKIFXWJKG-UHFFFAOYSA-N/SDF?record_type=3d

> <SMILES>
CC(C)(C)NS(=O)(=O)C1=CC=C(C=C1)C1=CN=C2C=CC=C(NC3=CC=CC=N3)C2=C1

> <INCHI_IDENTIFIER>
InChI=1S/C24H24N4O2S/c1-24(2,3)28-31(29,30)19-12-10-17(11-13-19)18-15-20-21(26-16-18)7-6-8-22(20)27-23-9-4-5-14-25-23/h4-16,28H,1-3H3,(H,25,27)

> <INCHI_KEY>
GJTCKUKIFXWJKG-UHFFFAOYSA-N

> <FORMULA>
C24H24N4O2S

> <MOLECULAR_WEIGHT>
432.538

> <EXACT_MASS>
432.161996722

> <JCHEM_ACCEPTOR_COUNT>
5

> <JCHEM_AVERAGE_POLARIZABILITY>
47.14656277914705

> <JCHEM_BIOAVAILABILITY>
1

> <JCHEM_DONOR_COUNT>
2

> <JCHEM_FORMAL_CHARGE>
0

> <JCHEM_GHOSE_FILTER>
1

> <JCHEM_IUPAC>
N-tert-butyl-4-{5-[(pyridin-2-yl)amino]quinolin-3-yl}benzene-1-sulfonamide

> <ALOGPS_LOGP>
3.99

> <JCHEM_LOGP>
4.478503194666668

> <ALOGPS_LOGS>
-5.59

> <JCHEM_MDDR_LIKE_RULE>
0

> <JCHEM_NUMBER_OF_RINGS>
4

> <JCHEM_PHYSIOLOGICAL_CHARGE>
0

> <JCHEM_PKA>
15.978296501153828

> <JCHEM_PKA_STRONGEST_ACIDIC>
10.139165536804606

> <JCHEM_PKA_STRONGEST_BASIC>
5.6536733815744595

> <JCHEM_POLAR_SURFACE_AREA>
83.98

> <JCHEM_REFRACTIVITY>
122.61850000000003

> <JCHEM_ROTATABLE_BOND_COUNT>
5

> <JCHEM_RULE_OF_FIVE>
1

> <ALOGPS_SOLUBILITY>
1.12e-03 g/l

> <JCHEM_TRADITIONAL_IUPAC>
N-tert-butyl-4-[5-(pyridin-2-ylamino)quinolin-3-yl]benzenesulfonamide

> <JCHEM_VEBER_RULE>
0

> <DRUGBANK_ID>
DB06933

> <DRUG_GROUPS>
experimental

> <GENERIC_NAME>
N-(tert-butyl)-4-[5-(pyridin-2-ylamino)quinolin-3-yl]benzenesulfonamide

$$$$
