REMARK  Name = 657007
REMARK  11 active torsions:
REMARK  status: ('A' for Active; 'I' for Inactive)
REMARK    1  A    between atoms: C_2  and  C_10
REMARK    2  A    between atoms: C_5  and  O_19
REMARK    3  A    between atoms: N_9  and  C_11
REMARK    4  A    between atoms: N_9  and  C_16
REMARK    5  A    between atoms: C_16  and  C_17
REMARK    6  A    between atoms: O_19  and  C_20
REMARK    7  A    between atoms: C_20  and  C_21
REMARK    8  A    between atoms: C_21  and  C_22
REMARK    9  A    between atoms: C_22  and  O_23
REMARK   10  A    between atoms: O_23  and  N_24
REMARK   11  A    between atoms: N_24  and  C_27
REMARK                            x       y       z     vdW  Elec       q    Type
REMARK                         _______ _______ _______ _____ _____    ______ ____
ROOT
ATOM      1 CL   UNL     1      -2.337  -5.098   1.704  0.00  0.00    -0.082 Cl
ATOM      2  C   UNL     1      -1.847  -1.416   0.253  0.00  0.00    +0.057 C 
ATOM      3  C   UNL     1      -0.661  -1.512  -0.459  0.00  0.00    +0.041 C 
ATOM      4  C   UNL     1      -2.374  -2.510   0.922  0.00  0.00    +0.016 C 
ATOM      5  C   UNL     1       0.014  -2.731  -0.503  0.00  0.00    +0.140 C 
ATOM      6  C   UNL     1      -1.698  -3.729   0.879  0.00  0.00    +0.061 C 
ATOM      7  C   UNL     1      -0.504  -3.840   0.166  0.00  0.00    +0.048 C 
ENDROOT
BRANCH   2  10
ATOM      8  O   UNL     1      -3.785  -0.188   0.395  0.00  0.00    -0.270 OA
ATOM      9  N   UNL     1      -1.816   1.061   0.215  0.00  0.00    -0.274 N 
ATOM     10  C   UNL     1      -2.559  -0.129   0.299  0.00  0.00    +0.249 C 
BRANCH   9  11
ATOM     11  C   UNL     1      -2.396   2.225  -0.390  0.00  0.00    +0.076 C 
ATOM     12  C   UNL     1      -3.681   2.669   0.296  0.00  0.00    +0.020 C 
ATOM     13  C   UNL     1      -2.830   1.990  -1.834  0.00  0.00    +0.020 C 
ATOM     14  C   UNL     1      -4.308   3.599  -0.731  0.00  0.00    +0.002 C 
ATOM     15  C   UNL     1      -3.975   2.973  -2.084  0.00  0.00    +0.002 C 
ENDBRANCH   9  11
BRANCH   9  16
ATOM     16  C   UNL     1      -0.445   1.208   0.717  0.00  0.00    +0.120 C 
BRANCH  16  17
ATOM     17  C   UNL     1      -0.418   2.278   1.757  0.00  0.00    -0.005 C 
ATOM     18  C   UNL     1       0.340   3.377   1.677  0.00  0.00    -0.003 C 
ENDBRANCH  16  17
ENDBRANCH   9  16
ENDBRANCH   2  10
BRANCH   5  19
ATOM     19  O   UNL     1       1.180  -2.839  -1.197  0.00  0.00    -0.475 OA
BRANCH  19  20
ATOM     20  C   UNL     1       1.990  -1.668  -1.292  0.00  0.00    +0.208 C 
BRANCH  20  21
ATOM     21  C   UNL     1       3.446  -2.086  -1.413  0.00  0.00    +0.082 C 
BRANCH  21  22
ATOM     22  C   UNL     1       4.378  -0.888  -1.503  0.00  0.00    +0.180 C 
BRANCH  22  23
ATOM     23  O   UNL     1       4.233  -0.076  -0.345  0.00  0.00    -0.234 OA
BRANCH  23  24
ATOM     24  N   UNL     1       5.106   1.014  -0.467  0.00  0.00    -0.096 NA
BRANCH  24  27
ATOM     25  N   UNL     1       4.177   1.598   1.662  0.00  0.00    -0.368 N 
ATOM     26  N   UNL     1       5.764   2.929   0.695  0.00  0.00    -0.368 N 
ATOM     27  C   UNL     1       5.006   1.789   0.580  0.00  0.00    +0.217 C 
ATOM     28  H   UNL     1       3.584   0.813   1.694  0.00  0.00    +0.159 HD
ATOM     29  H   UNL     1       4.178   2.245   2.403  0.00  0.00    +0.159 HD
ATOM     30  H   UNL     1       6.397   3.173  -0.018  0.00  0.00    +0.159 HD
ATOM     31  H   UNL     1       5.675   3.501   1.492  0.00  0.00    +0.159 HD
ENDBRANCH  24  27
ENDBRANCH  23  24
ENDBRANCH  22  23
ENDBRANCH  21  22
ENDBRANCH  20  21
ENDBRANCH  19  20
ENDBRANCH   5  19
TORSDOF 11
