54671008
  -OEChem-10051721593D

 53 55  0     0  0  0  0  0  0999 V2000
    5.4115    4.5550   -1.0461 F   0  0  0  0  0  0  0  0  0  0  0  0
    1.5813   -3.9553   -1.5613 O   0  0  0  0  0  0  0  0  0  0  0  0
   -1.1133   -4.4065   -1.2380 O   0  0  0  0  0  0  0  0  0  0  0  0
   -3.5938    1.4861    2.0565 O   0  0  0  0  0  0  0  0  0  0  0  0
   -5.3690    2.3297    0.1068 O   0  0  0  0  0  0  0  0  0  0  0  0
    3.3344   -2.0234   -1.3031 O   0  0  0  0  0  0  0  0  0  0  0  0
   -2.5255    0.0353    0.5959 N   0  0  0  0  0  0  0  0  0  0  0  0
   -1.3682   -2.5096    0.1100 N   0  0  0  0  0  0  0  0  0  0  0  0
    0.5333   -1.1638    0.5855 N   0  0  0  0  0  0  0  0  0  0  0  0
    3.2059   -1.0616    0.8171 N   0  0  0  0  0  0  0  0  0  0  0  0
   -4.4192    0.9468   -1.3731 N   0  0  0  0  0  0  0  0  0  0  0  0
   -5.4525    1.6089   -2.0094 N   0  0  0  0  0  0  0  0  0  0  0  0
   -1.5666   -0.4802    1.5391 C   0  0  0  0  0  0  0  0  0  0  0  0
   -0.7325   -1.4224    0.7037 C   0  0  0  0  0  0  0  0  0  0  0  0
   -2.2552   -1.2538    2.6549 C   0  0  0  0  0  0  0  0  0  0  0  0
   -0.6877    0.6329    2.0928 C   0  0  0  0  0  0  0  0  0  0  0  0
   -0.6500   -3.4173   -0.6741 C   0  0  0  0  0  0  0  0  0  0  0  0
    1.2742   -2.0260   -0.1748 C   0  0  0  0  0  0  0  0  0  0  0  0
   -2.8032   -2.7042    0.3088 C   0  0  0  0  0  0  0  0  0  0  0  0
    0.8010   -3.1110   -0.8037 C   0  0  0  0  0  0  0  0  0  0  0  0
   -3.4732    0.9901    0.9395 C   0  0  0  0  0  0  0  0  0  0  0  0
    2.7054   -1.7123   -0.2948 C   0  0  0  0  0  0  0  0  0  0  0  0
   -4.4073    1.3988   -0.1409 C   0  0  0  0  0  0  0  0  0  0  0  0
    4.5861   -0.6490    0.9383 C   0  0  0  0  0  0  0  0  0  0  0  0
    4.8063    0.7386    0.4093 C   0  0  0  0  0  0  0  0  0  0  0  0
    5.1403    0.9288   -0.9316 C   0  0  0  0  0  0  0  0  0  0  0  0
    4.6768    1.8378    1.2584 C   0  0  0  0  0  0  0  0  0  0  0  0
   -5.9784    2.4050   -1.1079 C   0  0  0  0  0  0  0  0  0  0  0  0
    5.3450    2.2178   -1.4234 C   0  0  0  0  0  0  0  0  0  0  0  0
    4.8817    3.1269    0.7667 C   0  0  0  0  0  0  0  0  0  0  0  0
    5.2157    3.3169   -0.5742 C   0  0  0  0  0  0  0  0  0  0  0  0
   -7.1034    3.3408   -1.2270 C   0  0  0  0  0  0  0  0  0  0  0  0
   -1.2459    1.3314    2.7247 H   0  0  0  0  0  0  0  0  0  0  0  0
    0.1220    0.2346    2.7168 H   0  0  0  0  0  0  0  0  0  0  0  0
   -0.2316    1.2312    1.2940 H   0  0  0  0  0  0  0  0  0  0  0  0
   -2.2908   -0.6470    3.5696 H   0  0  0  0  0  0  0  0  0  0  0  0
   -3.3047   -1.4965    2.4613 H   0  0  0  0  0  0  0  0  0  0  0  0
   -1.7158   -2.1673    2.9311 H   0  0  0  0  0  0  0  0  0  0  0  0
   -2.4467   -0.2147   -0.3877 H   0  0  0  0  0  0  0  0  0  0  0  0
   -3.4695   -1.8549    0.2353 H   0  0  0  0  0  0  0  0  0  0  0  0
   -3.1638   -3.3895   -0.4688 H   0  0  0  0  0  0  0  0  0  0  0  0
   -2.9543   -3.2507    1.2444 H   0  0  0  0  0  0  0  0  0  0  0  0
    2.5822   -0.8438    1.5895 H   0  0  0  0  0  0  0  0  0  0  0  0
    5.2270   -1.3647    0.4097 H   0  0  0  0  0  0  0  0  0  0  0  0
    4.8547   -0.7040    1.9993 H   0  0  0  0  0  0  0  0  0  0  0  0
    1.0026   -4.6576   -1.9052 H   0  0  0  0  0  0  0  0  0  0  0  0
    5.2470    0.0820   -1.6040 H   0  0  0  0  0  0  0  0  0  0  0  0
    4.4149    1.7028    2.3045 H   0  0  0  0  0  0  0  0  0  0  0  0
    5.6054    2.3663   -2.4672 H   0  0  0  0  0  0  0  0  0  0  0  0
    4.7804    3.9829    1.4272 H   0  0  0  0  0  0  0  0  0  0  0  0
   -7.9009    3.0752   -0.5267 H   0  0  0  0  0  0  0  0  0  0  0  0
   -6.7785    4.3629   -1.0109 H   0  0  0  0  0  0  0  0  0  0  0  0
   -7.5183    3.3219   -2.2392 H   0  0  0  0  0  0  0  0  0  0  0  0
  1 31  1  0  0  0  0
  2 20  1  0  0  0  0
  2 46  1  0  0  0  0
  3 17  2  0  0  0  0
  4 21  2  0  0  0  0
  5 23  1  0  0  0  0
  5 28  1  0  0  0  0
  6 22  2  0  0  0  0
  7 13  1  0  0  0  0
  7 21  1  0  0  0  0
  7 39  1  0  0  0  0
  8 14  1  0  0  0  0
  8 17  1  0  0  0  0
  8 19  1  0  0  0  0
  9 14  2  0  0  0  0
  9 18  1  0  0  0  0
 10 22  1  0  0  0  0
 10 24  1  0  0  0  0
 10 43  1  0  0  0  0
 11 12  1  0  0  0  0
 11 23  2  0  0  0  0
 12 28  2  0  0  0  0
 13 14  1  0  0  0  0
 13 15  1  0  0  0  0
 13 16  1  0  0  0  0
 15 36  1  0  0  0  0
 15 37  1  0  0  0  0
 15 38  1  0  0  0  0
 16 33  1  0  0  0  0
 16 34  1  0  0  0  0
 16 35  1  0  0  0  0
 17 20  1  0  0  0  0
 18 20  2  0  0  0  0
 18 22  1  0  0  0  0
 19 40  1  0  0  0  0
 19 41  1  0  0  0  0
 19 42  1  0  0  0  0
 21 23  1  0  0  0  0
 24 25  1  0  0  0  0
 24 44  1  0  0  0  0
 24 45  1  0  0  0  0
 25 26  2  0  0  0  0
 25 27  1  0  0  0  0
 26 29  1  0  0  0  0
 26 47  1  0  0  0  0
 27 30  2  0  0  0  0
 27 48  1  0  0  0  0
 28 32  1  0  0  0  0
 29 31  2  0  0  0  0
 29 49  1  0  0  0  0
 30 31  1  0  0  0  0
 30 50  1  0  0  0  0
 32 51  1  0  0  0  0
 32 52  1  0  0  0  0
 32 53  1  0  0  0  0
M  END
> <DATABASE_ID>
DB06817

> <DATABASE_NAME>
drugbank

> <ORIGINAL_SOURCE>
PUBCHEM

> <ORIGINAL_SOURCE_URL>
https://pubchem.ncbi.nlm.nih.gov/rest/pug/compound/inchikey/CZFFBEXEKNGXKS-UHFFFAOYSA-N/SDF?record_type=3d

> <SMILES>
CN1C(=O)C(O)=C(N=C1C(C)(C)NC(=O)C1=NN=C(C)O1)C(=O)NCC1=CC=C(F)C=C1

> <INCHI_IDENTIFIER>
InChI=1S/C20H21FN6O5/c1-10-25-26-17(32-10)16(30)24-20(2,3)19-23-13(14(28)18(31)27(19)4)15(29)22-9-11-5-7-12(21)8-6-11/h5-8,28H,9H2,1-4H3,(H,22,29)(H,24,30)

> <INCHI_KEY>
CZFFBEXEKNGXKS-UHFFFAOYSA-N

> <FORMULA>
C20H21FN6O5

> <MOLECULAR_WEIGHT>
444.4163

> <EXACT_MASS>
444.155746017

> <JCHEM_ACCEPTOR_COUNT>
7

> <JCHEM_AVERAGE_POLARIZABILITY>
42.465830125440235

> <JCHEM_BIOAVAILABILITY>
1

> <JCHEM_DONOR_COUNT>
3

> <JCHEM_FORMAL_CHARGE>
0

> <JCHEM_GHOSE_FILTER>
1

> <JCHEM_IUPAC>
N-[(4-fluorophenyl)methyl]-5-hydroxy-1-methyl-2-{2-[(5-methyl-1,3,4-oxadiazol-2-yl)formamido]propan-2-yl}-6-oxo-1,6-dihydropyrimidine-4-carboxamide

> <JCHEM_LOGP>
-0.3882265613333336

> <JCHEM_MDDR_LIKE_RULE>
1

> <JCHEM_NUMBER_OF_RINGS>
3

> <JCHEM_PHYSIOLOGICAL_CHARGE>
-1

> <JCHEM_PKA>
12.154755568024907

> <JCHEM_PKA_STRONGEST_ACIDIC>
5.617113948405954

> <JCHEM_PKA_STRONGEST_BASIC>
-1.4968036990609659

> <JCHEM_POLAR_SURFACE_AREA>
150.02

> <JCHEM_REFRACTIVITY>
112.59169999999999

> <JCHEM_ROTATABLE_BOND_COUNT>
6

> <JCHEM_RULE_OF_FIVE>
1

> <JCHEM_TRADITIONAL_IUPAC>
raltegravir

> <JCHEM_VEBER_RULE>
0

> <DRUGBANK_ID>
DB06817

> <SECONDARY_ACCESSION_NUMBERS>
DB05355

> <DRUG_GROUPS>
approved

> <GENERIC_NAME>
Raltegravir

> <SYNONYMS>
Raltegravir

> <PRODUCTS>
Dutrebis; Isentress; Isentress Hd; Raltegravir Potassium

> <SALTS>
Raltegravir potassium

$$$$
