REMARK  Name = 108018
REMARK  3 active torsions:
REMARK  status: ('A' for Active; 'I' for Inactive)
REMARK    1  A    between atoms: C_1  and  S_2
REMARK    2  A    between atoms: C_1  and  C_6
REMARK    3  A    between atoms: C_6  and  N_8
REMARK                            x       y       z     vdW  Elec       q    Type
REMARK                         _______ _______ _______ _____ _____    ______ ____
ROOT
ATOM      1  C   UNL     1       0.033   0.760   0.016  0.00  0.00    +0.176 C 
ENDROOT
BRANCH   1   2
ATOM      2  S   UNL     1       1.535  -0.168   0.012  0.00  0.00    +0.024 S 
ATOM      3  O   UNL     1       2.562   1.090  -0.139  0.00  0.00    -0.069 OA
ATOM      4  O   UNL     1       1.592  -0.965  -1.199  0.00  0.00    -0.069 OA
ATOM      5  O   UNL     1       1.718  -0.764   1.323  0.00  0.00    -0.069 OA
ENDBRANCH   1   2
BRANCH   1   6
ATOM      6  C   UNL     1      -1.180  -0.154  -0.028  0.00  0.00    +0.110 C 
BRANCH   6   8
ATOM      7 CL   UNL     1      -3.843  -0.416   0.018  0.00  0.00    -0.023 Cl
ATOM      8  N   UNL     1      -2.416   0.618  -0.003  0.00  0.00    -0.221 NA
ATOM      9  H   UNL     1      -2.422   1.203   0.832  0.00  0.00    +0.142 HD
ENDBRANCH   6   8
ENDBRANCH   1   6
TORSDOF 3
