REMARK  Name = 3055171
REMARK  4 active torsions:
REMARK  status: ('A' for Active; 'I' for Inactive)
REMARK    1  A    between atoms: C_3  and  N_17
REMARK    2  A    between atoms: C_8  and  C_14
REMARK    3  A    between atoms: N_17  and  C_19
REMARK    4  A    between atoms: N_17  and  C_23
REMARK                            x       y       z     vdW  Elec       q    Type
REMARK                         _______ _______ _______ _____ _____    ______ ____
ROOT
ATOM      1  F   UNL     1      -3.660  -2.690  -1.077  0.00  0.00    -0.201 F 
ATOM      2  O   UNL     1      -1.049  -2.133  -0.846  0.00  0.00    -0.476 OA
ATOM      3  C   UNL     1       0.757  -0.486  -0.663  0.00  0.00    -0.009 C 
ATOM      4  C   UNL     1      -0.114   0.464   0.158  0.00  0.00    +0.013 C 
ATOM      5  C   UNL     1       0.297  -1.919  -0.404  0.00  0.00    +0.185 C 
ATOM      6  C   UNL     1      -1.565   0.096   0.011  0.00  0.00    +0.016 C 
ATOM      7  C   UNL     1      -1.944  -1.167  -0.464  0.00  0.00    +0.162 C 
ATOM      8  C   UNL     1      -2.558   1.014   0.378  0.00  0.00    +0.052 C 
ATOM      9  C   UNL     1      -3.296  -1.489  -0.605  0.00  0.00    +0.173 C 
ATOM     10  C   UNL     1      -3.907   0.685   0.249  0.00  0.00    +0.007 C 
ATOM     11  C   UNL     1      -4.276  -0.564  -0.246  0.00  0.00    +0.033 C 
ENDROOT
BRANCH   8  14
ATOM     12  O   UNL     1      -2.103   3.315   0.162  0.00  0.00    -0.270 OA
ATOM     13  N   UNL     1      -2.082   2.452   2.287  0.00  0.00    -0.325 N 
ATOM     14  C   UNL     1      -2.229   2.332   0.910  0.00  0.00    +0.243 C 
ATOM     15  H   UNL     1      -1.860   3.325   2.684  0.00  0.00    +0.145 HD
ATOM     16  H   UNL     1      -2.198   1.664   2.865  0.00  0.00    +0.145 HD
ENDBRANCH   8  14
BRANCH   3  17
ATOM     17  N   UNL     1       2.162  -0.320  -0.308  0.00  0.00    +0.394 N 
ATOM     18  H   UNL     1       2.712  -0.983  -0.854  0.00  0.00    -0.079 HD
BRANCH  17  19
ATOM     19  C   UNL     1       2.366  -0.603   1.085  0.00  0.00    -0.058 C 
ATOM     20  C   UNL     1       3.850  -0.430   1.471  0.00  0.00    -0.021 C 
ATOM     21  C   UNL     1       2.561  -2.116   1.319  0.00  0.00    -0.021 C 
ATOM     22  C   UNL     1       3.715  -1.742   2.272  0.00  0.00    -0.004 C 
ENDBRANCH  17  19
BRANCH  17  23
ATOM     23  C   UNL     1       2.612   1.014  -0.627  0.00  0.00    -0.058 C 
ATOM     24  C   UNL     1       2.461   1.301  -2.135  0.00  0.00    -0.021 C 
ATOM     25  C   UNL     1       4.138   1.044  -0.852  0.00  0.00    -0.021 C 
ATOM     26  C   UNL     1       3.863   1.943  -2.075  0.00  0.00    -0.004 C 
ENDBRANCH  17  23
ENDBRANCH   3  17
TORSDOF 4
