REMARK  Name = 9869929
REMARK  8 active torsions:
REMARK  status: ('A' for Active; 'I' for Inactive)
REMARK    1  A    between atoms: N_4  and  C_28
REMARK    2  A    between atoms: C_5  and  C_25
REMARK    3  A    between atoms: C_11  and  C_16
REMARK    4  A    between atoms: N_15  and  C_18
REMARK    5  A    between atoms: C_18  and  C_21
REMARK    6  A    between atoms: C_25  and  O_26
REMARK    7  A    between atoms: C_28  and  C_30
REMARK    8  A    between atoms: C_35  and  O_36
REMARK                            x       y       z     vdW  Elec       q    Type
REMARK                         _______ _______ _______ _____ _____    ______ ____
ROOT
ATOM      1  N   UNL     1      -4.751  -0.973  -0.043  0.00  0.00    -0.243 N 
ATOM      2  N   UNL     1      -2.465  -0.609   0.122  0.00  0.00    -0.322 NA
ATOM      3  N   UNL     1      -3.988   1.198  -0.348  0.00  0.00    -0.170 NA
ATOM      4  N   UNL     1      -0.136  -0.199   0.285  0.00  0.00    -0.304 N 
ATOM      5  C   UNL     1      -6.137  -0.647  -0.402  0.00  0.00    +0.113 C 
ATOM      6  C   UNL     1      -6.747  -2.022  -0.714  0.00  0.00    +0.025 C 
ATOM      7  C   UNL     1      -6.006  -2.961   0.223  0.00  0.00    +0.024 C 
ATOM      8  C   UNL     1      -4.585  -2.403   0.226  0.00  0.00    +0.102 C 
ATOM      9  C   UNL     1      -3.689  -0.090  -0.092  0.00  0.00    +0.149 C 
ATOM     10  C   UNL     1      -1.452   0.280   0.068  0.00  0.00    +0.199 C 
ATOM     11  C   UNL     1      -1.625   1.625  -0.186  0.00  0.00    +0.118 C 
ATOM     12  C   UNL     1      -2.928   2.031  -0.388  0.00  0.00    +0.120 C 
ATOM     13  H   UNL     1       0.612   0.441   0.247  0.00  0.00    +0.149 HD
ENDROOT
BRANCH  11  16
ATOM     14  O   UNL     1      -0.492   3.544   0.546  0.00  0.00    -0.270 OA
ATOM     15  N   UNL     1       0.456   2.362  -1.210  0.00  0.00    -0.288 N 
ATOM     16  C   UNL     1      -0.534   2.586  -0.246  0.00  0.00    +0.252 C 
ATOM     17  H   UNL     1       0.360   1.584  -1.805  0.00  0.00    +0.151 HD
BRANCH  15  18
ATOM     18  C   UNL     1       1.613   3.212  -1.378  0.00  0.00    +0.190 C 
BRANCH  18  21
ATOM     19  N   UNL     1       3.589   1.826  -1.139  0.00  0.00    -0.195 NA
ATOM     20  N   UNL     1       2.853   3.192   0.706  0.00  0.00    -0.217 NA
ATOM     21  C   UNL     1       2.762   2.710  -0.548  0.00  0.00    +0.028 C 
ATOM     22  C   UNL     1       4.608   1.396  -0.366  0.00  0.00    +0.107 C 
ATOM     23  C   UNL     1       3.895   2.720   1.422  0.00  0.00    +0.164 C 
ATOM     24  C   UNL     1       4.813   1.812   0.934  0.00  0.00    +0.022 C 
ENDBRANCH  18  21
ENDBRANCH  15  18
ENDBRANCH  11  16
BRANCH   5  25
ATOM     25  C   UNL     1      -6.854   0.034   0.762  0.00  0.00    +0.157 C 
BRANCH  25  26
ATOM     26  O   UNL     1      -6.577   1.422   0.715  0.00  0.00    -0.380 OA
ATOM     27  H   UNL     1      -7.027   1.867   1.450  0.00  0.00    +0.211 HD
ENDBRANCH  25  26
ENDBRANCH   5  25
BRANCH   4  28
ATOM     28  C   UNL     1       0.150  -1.570   0.554  0.00  0.00    +0.116 C 
BRANCH  28  30
ATOM     29 CL   UNL     1       5.016  -1.816   2.370  0.00  0.00    -0.079 Cl
ATOM     30  C   UNL     1       1.601  -1.867   0.297  0.00  0.00    -0.002 C 
ATOM     31  C   UNL     1       2.536  -1.725   1.323  0.00  0.00    +0.012 C 
ATOM     32  C   UNL     1       2.013  -2.284  -0.969  0.00  0.00    +0.001 C 
ATOM     33  C   UNL     1       3.882  -2.000   1.083  0.00  0.00    +0.091 C 
ATOM     34  C   UNL     1       3.360  -2.559  -1.208  0.00  0.00    +0.038 C 
ATOM     35  C   UNL     1       4.294  -2.417  -0.182  0.00  0.00    +0.149 C 
BRANCH  35  36
ATOM     36  O   UNL     1       5.603  -2.693  -0.445  0.00  0.00    -0.471 OA
ATOM     37  C   UNL     1       5.922  -3.113  -1.770  0.00  0.00    +0.253 C 
ENDBRANCH  35  36
ENDBRANCH  28  30
ENDBRANCH   4  28
TORSDOF 8
