REMARK  Name = 11290116
REMARK  6 active torsions:
REMARK  status: ('A' for Active; 'I' for Inactive)
REMARK    1  A    between atoms: N_1  and  C_18
REMARK    2  A    between atoms: C_2  and  C_6
REMARK    3  A    between atoms: C_3  and  C_12
REMARK    4  A    between atoms: C_18  and  C_20
REMARK    5  A    between atoms: C_20  and  N_21
REMARK    6  A    between atoms: N_21  and  C_24
REMARK                            x       y       z     vdW  Elec       q    Type
REMARK                         _______ _______ _______ _____ _____    ______ ____
ROOT
ATOM      1  N   UNL     1       0.199  -0.938   0.087  0.00  0.00    -0.278 N 
ATOM      2  C   UNL     1       1.382  -1.488  -0.313  0.00  0.00    +0.052 C 
ATOM      3  C   UNL     1      -0.845  -1.727  -0.301  0.00  0.00    +0.052 C 
ATOM      4  C   UNL     1       1.091  -2.660  -0.975  0.00  0.00    +0.016 C 
ATOM      5  C   UNL     1      -0.318  -2.812  -0.968  0.00  0.00    +0.016 C 
ENDROOT
BRANCH   2   6
ATOM      6  C   UNL     1       2.672  -0.888  -0.051  0.00  0.00    +0.014 C 
ATOM      7  C   UNL     1       3.221   0.006  -0.968  0.00  0.00    +0.001 C 
ATOM      8  C   UNL     1       3.361  -1.209   1.116  0.00  0.00    +0.001 C 
ATOM      9  C   UNL     1       4.465   0.583  -0.716  0.00  0.00    +0.000 C 
ATOM     10  C   UNL     1       4.606  -0.632   1.368  0.00  0.00    +0.000 C 
ATOM     11  C   UNL     1       5.158   0.264   0.452  0.00  0.00    +0.000 C 
ENDBRANCH   2   6
BRANCH   3  12
ATOM     12  C   UNL     1      -2.230  -1.416  -0.027  0.00  0.00    +0.014 C 
ATOM     13  C   UNL     1      -2.826  -1.873   1.146  0.00  0.00    +0.001 C 
ATOM     14  C   UNL     1      -2.964  -0.660  -0.939  0.00  0.00    +0.001 C 
ATOM     15  C   UNL     1      -4.162  -1.573   1.409  0.00  0.00    +0.000 C 
ATOM     16  C   UNL     1      -4.301  -0.360  -0.676  0.00  0.00    +0.000 C 
ATOM     17  C   UNL     1      -4.900  -0.816   0.498  0.00  0.00    +0.000 C 
ENDBRANCH   3  12
BRANCH   1  18
ATOM     18  C   UNL     1       0.067   0.315   0.825  0.00  0.00    +0.183 C 
BRANCH  18  20
ATOM     19  O   UNL     1      -0.019   1.433  -1.308  0.00  0.00    -0.271 OA
ATOM     20  C   UNL     1      -0.066   1.519  -0.084  0.00  0.00    +0.268 C 
BRANCH  20  21
ATOM     21  N   UNL     1      -0.186   2.692   0.628  0.00  0.00    -0.146 NA
BRANCH  21  24
ATOM     22  N   UNL     1      -0.998   4.870   0.782  0.00  0.00    -0.372 N 
ATOM     23  N   UNL     1      -1.538   3.691  -1.095  0.00  0.00    -0.372 N 
ATOM     24  C   UNL     1      -0.870   3.678   0.109  0.00  0.00    +0.184 C 
ATOM     25  H   UNL     1      -0.566   4.989   1.658  0.00  0.00    +0.159 HD
ATOM     26  H   UNL     1      -1.522   5.604   0.388  0.00  0.00    +0.159 HD
ATOM     27  H   UNL     1      -1.524   2.895  -1.674  0.00  0.00    +0.159 HD
ATOM     28  H   UNL     1      -2.030   4.496  -1.376  0.00  0.00    +0.159 HD
ENDBRANCH  21  24
ENDBRANCH  20  21
ENDBRANCH  18  20
ENDBRANCH   1  18
TORSDOF 6
