REMARK  Name = 5472495
REMARK  6 active torsions:
REMARK  status: ('A' for Active; 'I' for Inactive)
REMARK    1  A    between atoms: C_2  and  C_23
REMARK    2  A    between atoms: C_3  and  C_7
REMARK    3  A    between atoms: C_7  and  C_13
REMARK    4  A    between atoms: C_16  and  S_19
REMARK    5  A    between atoms: C_23  and  C_25
REMARK    6  A    between atoms: C_25  and  O_26
REMARK                            x       y       z     vdW  Elec       q    Type
REMARK                         _______ _______ _______ _____ _____    ______ ____
ROOT
ATOM      1  F   UNL     1       2.111  -4.263   0.152  0.00  0.00    -0.204 F 
ATOM      2  C   UNL     1       3.181   0.559   0.490  0.00  0.00    -0.030 C 
ATOM      3  C   UNL     1       0.968   1.150   0.343  0.00  0.00    -0.036 C 
ATOM      4  C   UNL     1       2.346   1.621   0.479  0.00  0.00    +0.037 C 
ATOM      5  C   UNL     1       2.362  -0.660   0.361  0.00  0.00    -0.005 C 
ATOM      6  C   UNL     1       1.004  -0.312   0.269  0.00  0.00    -0.008 C 
ATOM      7  C   UNL     1       2.751  -1.991   0.323  0.00  0.00    +0.029 C 
ATOM      8  C   UNL     1       0.017  -1.275   0.139  0.00  0.00    +0.002 C 
ATOM      9  C   UNL     1       2.690   3.068   0.582  0.00  0.00    +0.009 C 
ATOM     10  C   UNL     1       1.762  -2.970   0.191  0.00  0.00    +0.140 C 
ATOM     11  C   UNL     1       0.407  -2.615   0.100  0.00  0.00    +0.030 C 
ENDROOT
BRANCH   3  12
ATOM     12  C   UNL     1      -0.143   1.895   0.291  0.00  0.00    +0.049 C 
BRANCH  12  13
ATOM     13  C   UNL     1      -1.516   1.383   0.153  0.00  0.00    -0.018 C 
ATOM     14  C   UNL     1      -2.061   1.231  -1.112  0.00  0.00    -0.003 C 
ATOM     15  C   UNL     1      -2.240   1.061   1.291  0.00  0.00    -0.003 C 
ATOM     16  C   UNL     1      -4.101   0.416  -0.107  0.00  0.00    +0.106 C 
ATOM     17  C   UNL     1      -3.362   0.744  -1.243  0.00  0.00    +0.018 C 
ATOM     18  C   UNL     1      -3.540   0.574   1.160  0.00  0.00    +0.018 C 
BRANCH  16  19
ATOM     19  S   UNL     1      -5.729  -0.193  -0.272  0.00  0.00    +0.010 S 
ATOM     20  O   UNL     1      -6.445   0.101   0.962  0.00  0.00    -0.169 OA
ATOM     21  O   UNL     1      -6.274   0.253  -1.547  0.00  0.00    -0.169 OA
ATOM     22  C   UNL     1      -5.532  -1.957  -0.382  0.00  0.00    +0.182 C 
ENDBRANCH  16  19
ENDBRANCH  12  13
ENDBRANCH   3  12
BRANCH   2  23
ATOM     23  C   UNL     1       4.661   0.501   0.606  0.00  0.00    +0.132 C 
BRANCH  23  25
ATOM     24  O   UNL     1       4.725   0.624  -1.834  0.00  0.00    -0.250 OA
ATOM     25  C   UNL     1       5.302   0.552  -0.759  0.00  0.00    +0.318 C 
BRANCH  25  26
ATOM     26  O   UNL     1       6.655   0.502  -0.635  0.00  0.00    -0.480 OA
ATOM     27  H   UNL     1       7.045   0.448   0.215  0.00  0.00    +0.295 HD
ENDBRANCH  25  26
ENDBRANCH  23  25
ENDBRANCH   2  23
TORSDOF 6
