REMARK  Name = 9927346
REMARK  8 active torsions:
REMARK  status: ('A' for Active; 'I' for Inactive)
REMARK    1  A    between atoms: C_2  and  O_16
REMARK    2  A    between atoms: C_3  and  C_27
REMARK    3  A    between atoms: C_5  and  N_7
REMARK    4  A    between atoms: O_16  and  C_18
REMARK    5  A    between atoms: C_18  and  C_19
REMARK    6  A    between atoms: C_19  and  N_20
REMARK    7  A    between atoms: C_19  and  C_24
REMARK    8  A    between atoms: C_27  and  O_28
REMARK                            x       y       z     vdW  Elec       q    Type
REMARK                         _______ _______ _______ _____ _____    ______ ____
ROOT
ATOM      1  O   UNL     1      -0.624  -1.007   0.861  0.00  0.00    -0.333 OA
ATOM      2  C   UNL     1       0.943  -0.640  -0.883  0.00  0.00    +0.202 C 
ATOM      3  C   UNL     1       0.415  -1.667   0.111  0.00  0.00    +0.186 C 
ATOM      4  C   UNL     1      -0.261   0.237  -1.133  0.00  0.00    +0.098 C 
ATOM      5  C   UNL     1      -0.942   0.239   0.226  0.00  0.00    +0.210 C 
ENDROOT
BRANCH   5   7
ATOM      6  O   UNL     1      -2.344   2.675   0.380  0.00  0.00    -0.193 OA
ATOM      7  N   UNL     1      -2.366   0.381   0.140  0.00  0.00    -0.180 N 
ATOM      8  N   UNL     1      -4.381   1.705   0.134  0.00  0.00    -0.306 NA
ATOM      9  N   UNL     1      -6.465   0.704  -0.118  0.00  0.00    -0.332 N 
ATOM     10  C   UNL     1      -3.136  -0.758  -0.032  0.00  0.00    +0.083 C 
ATOM     11  C   UNL     1      -3.001   1.644   0.226  0.00  0.00    +0.275 C 
ATOM     12  C   UNL     1      -4.464  -0.721  -0.122  0.00  0.00    +0.065 C 
ATOM     13  C   UNL     1      -5.095   0.622  -0.029  0.00  0.00    +0.193 C 
ATOM     14  H   UNL     1      -6.910   1.580  -0.059  0.00  0.00    +0.145 HD
ATOM     15  H   UNL     1      -7.000  -0.113  -0.240  0.00  0.00    +0.145 HD
ENDBRANCH   5   7
BRANCH   2  16
ATOM     16  O   UNL     1       1.956   0.148  -0.263  0.00  0.00    -0.451 OA
BRANCH  16  18
ATOM     17  O   UNL     1       3.285  -1.723  -0.062  0.00  0.00    -0.252 OA
ATOM     18  C   UNL     1       3.088  -0.526   0.101  0.00  0.00    +0.296 C 
BRANCH  18  19
ATOM     19  C   UNL     1       4.069   0.446   0.739  0.00  0.00    +0.036 C 
BRANCH  19  20
ATOM     20  N   UNL     1       5.222  -0.314   1.225  0.00  0.00    +0.389 N 
ATOM     21  H   UNL     1       4.903  -1.049   1.856  0.00  0.00    -0.088 HD
ATOM     22  H   UNL     1       5.856   0.311   1.722  0.00  0.00    -0.088 HD
ATOM     23  H   UNL     1       5.710  -0.734   0.433  0.00  0.00    -0.088 HD
ENDBRANCH  19  20
BRANCH  19  24
ATOM     24  C   UNL     1       4.463   1.586  -0.230  0.00  0.00    -0.010 C 
ATOM     25  C   UNL     1       5.063   1.030  -1.526  0.00  0.00    -0.002 C 
ATOM     26  C   UNL     1       5.422   2.611   0.386  0.00  0.00    -0.002 C 
ENDBRANCH  19  24
ENDBRANCH  18  19
ENDBRANCH  16  18
ENDBRANCH   2  16
BRANCH   3  27
ATOM     27  C   UNL     1      -0.198  -2.886  -0.565  0.00  0.00    +0.170 C 
BRANCH  27  28
ATOM     28  O   UNL     1      -0.649  -3.786   0.434  0.00  0.00    -0.379 OA
ATOM     29  H   UNL     1      -1.041  -4.567   0.013  0.00  0.00    +0.211 HD
ENDBRANCH  27  28
ENDBRANCH   3  27
TORSDOF 8
