REMARK  Name = 6458152
REMARK  2 active torsions:
REMARK  status: ('A' for Active; 'I' for Inactive)
REMARK    1  A    between atoms: N_3  and  C_15
REMARK    2  A    between atoms: C_15  and  C_20
REMARK                            x       y       z     vdW  Elec       q    Type
REMARK                         _______ _______ _______ _____ _____    ______ ____
ROOT
ATOM      1  S   UNL     1       2.521   2.121  -0.663  0.00  0.00    -0.077 S 
ATOM      2  O   UNL     1      -0.373  -1.438   1.132  0.00  0.00    -0.274 OA
ATOM      3  N   UNL     1      -1.319   0.681   0.848  0.00  0.00    -0.245 N 
ATOM      4  N   UNL     1      -0.046   2.522  -0.017  0.00  0.00    -0.245 NA
ATOM      5  C   UNL     1       2.243  -0.324   0.098  0.00  0.00    -0.028 C 
ATOM      6  C   UNL     1       2.601  -1.756   0.373  0.00  0.00    +0.023 C 
ATOM      7  C   UNL     1       4.121  -1.984   0.371  0.00  0.00    +0.005 C 
ATOM      8  C   UNL     1       4.800  -1.277  -0.809  0.00  0.00    +0.006 C 
ATOM      9  C   UNL     1       4.589   0.242  -0.752  0.00  0.00    +0.032 C 
ATOM     10  C   UNL     1       3.162   0.564  -0.432  0.00  0.00    +0.001 C 
ATOM     11  C   UNL     1       0.972   0.306   0.290  0.00  0.00    +0.141 C 
ATOM     12  C   UNL     1       0.989   1.641  -0.079  0.00  0.00    +0.097 C 
ATOM     13  C   UNL     1      -0.273  -0.261   0.797  0.00  0.00    +0.237 C 
ATOM     14  C   UNL     1      -1.144   2.004   0.441  0.00  0.00    +0.223 C 
ENDROOT
BRANCH   3  15
ATOM     15  C   UNL     1      -2.618   0.247   1.337  0.00  0.00    +0.199 C 
BRANCH  15  20
ATOM     16  N   UNL     1      -4.256   0.536  -0.476  0.00  0.00    -0.112 NA
ATOM     17  N   UNL     1      -3.447  -1.556  -0.161  0.00  0.00    -0.089 NA
ATOM     18  N   UNL     1      -4.753  -0.376  -1.324  0.00  0.00    -0.140 N 
ATOM     19  N   UNL     1      -4.302  -1.629  -1.174  0.00  0.00    -0.022 NA
ATOM     20  C   UNL     1      -3.465  -0.264   0.204  0.00  0.00    +0.071 C 
ATOM     21  H   UNL     1      -5.412  -0.138  -2.017  0.00  0.00    +0.197 HD
ENDBRANCH  15  20
ENDBRANCH   3  15
TORSDOF 2
