REMARK  Name = 46937031
REMARK  3 active torsions:
REMARK  status: ('A' for Active; 'I' for Inactive)
REMARK    1  A    between atoms: N_4  and  C_31
REMARK    2  A    between atoms: C_16  and  C_24
REMARK    3  A    between atoms: C_28  and  C_30
REMARK                            x       y       z     vdW  Elec       q    Type
REMARK                         _______ _______ _______ _____ _____    ______ ____
ROOT
ATOM      1  F   UNL     1       3.977   3.002   0.314  0.00  0.00    -0.203 F 
ATOM      2  F   UNL     1       5.546  -1.861  -1.563  0.00  0.00    -0.204 F 
ATOM      3  O   UNL     1      -3.103  -1.127   2.787  0.00  0.00    -0.270 OA
ATOM      4  N   UNL     1       2.060   0.888   0.361  0.00  0.00    -0.291 N 
ATOM      5  N   UNL     1      -1.589  -1.136   1.020  0.00  0.00    -0.276 N 
ATOM      6  N   UNL     1       1.636  -1.544  -0.174  0.00  0.00    -0.242 NA
ATOM      7  N   UNL     1       3.245  -2.898  -1.089  0.00  0.00    -0.343 N 
ATOM      8  C   UNL     1       1.139  -0.264   0.349  0.00  0.00    +0.148 C 
ATOM      9  C   UNL     1       0.682  -0.566   1.805  0.00  0.00    +0.063 C 
ATOM     10  C   UNL     1      -0.097   0.082  -0.529  0.00  0.00    +0.063 C 
ATOM     11  C   UNL     1      -1.238  -0.933  -0.391  0.00  0.00    +0.097 C 
ATOM     12  C   UNL     1      -0.474  -1.567   1.865  0.00  0.00    +0.097 C 
ATOM     13  C   UNL     1       3.357   0.719  -0.116  0.00  0.00    +0.082 C 
ATOM     14  C   UNL     1       3.796  -0.523  -0.609  0.00  0.00    +0.074 C 
ATOM     15  C   UNL     1       2.845  -1.670  -0.613  0.00  0.00    +0.126 C 
ATOM     16  C   UNL     1      -2.843  -0.947   1.596  0.00  0.00    +0.247 C 
ATOM     17  C   UNL     1       4.292   1.777  -0.132  0.00  0.00    +0.154 C 
ATOM     18  C   UNL     1       5.109  -0.685  -1.090  0.00  0.00    +0.144 C 
ATOM     19  C   UNL     1       5.594   1.615  -0.610  0.00  0.00    +0.033 C 
ATOM     20  C   UNL     1       6.002   0.382  -1.089  0.00  0.00    +0.032 C 
ATOM     21  H   UNL     1       2.615  -3.654  -1.091  0.00  0.00    +0.144 HD
ATOM     22  H   UNL     1       4.161  -3.019  -1.429  0.00  0.00    +0.144 HD
ENDROOT
BRANCH  16  24
ATOM     23  N   UNL     1      -5.155   1.360  -0.203  0.00  0.00    -0.238 NA
ATOM     24  C   UNL     1      -3.944  -0.501   0.718  0.00  0.00    +0.051 C 
ATOM     25  C   UNL     1      -4.787  -1.516   0.017  0.00  0.00    +0.040 C 
ATOM     26  C   UNL     1      -4.152   0.814   0.561  0.00  0.00    +0.099 C 
ATOM     27  C   UNL     1      -5.455  -0.910  -1.215  0.00  0.00    +0.061 C 
ATOM     28  C   UNL     1      -5.766   0.542  -0.998  0.00  0.00    +0.127 C 
BRANCH  28  30
ATOM     29  N   UNL     1      -7.628   1.712  -2.376  0.00  0.00    -0.190 NA
ATOM     30  C   UNL     1      -6.796   1.189  -1.760  0.00  0.00    +0.115 C 
ENDBRANCH  28  30
ENDBRANCH  16  24
BRANCH   4  31
ATOM     31  C   UNL     1       1.634   2.190   0.870  0.00  0.00    +0.092 C 
ATOM     32  C   UNL     1       2.114   2.376   2.296  0.00  0.00    +0.023 C 
ENDBRANCH   4  31
TORSDOF 3
