REMARK  Name = 9887712
REMARK  10 active torsions:
REMARK  status: ('A' for Active; 'I' for Inactive)
REMARK    1  A    between atoms: C_2  and  C_12
REMARK    2  A    between atoms: C_5  and  C_23
REMARK    3  A    between atoms: C_9  and  O_14
REMARK    4  A    between atoms: C_10  and  O_16
REMARK    5  A    between atoms: C_11  and  O_18
REMARK    6  A    between atoms: C_13  and  C_20
REMARK    7  A    between atoms: C_20  and  O_21
REMARK    8  A    between atoms: C_23  and  C_24
REMARK    9  A    between atoms: C_29  and  O_30
REMARK   10  A    between atoms: O_30  and  C_31
REMARK                            x       y       z     vdW  Elec       q    Type
REMARK                         _______ _______ _______ _____ _____    ______ ____
ROOT
ATOM      1 CL   UNL     1      -1.823   4.175   0.403  0.00  0.00    -0.083 Cl
ATOM      2  C   UNL     1       1.595   1.237   0.635  0.00  0.00    +0.007 C 
ATOM      3  C   UNL     1       0.588   1.044  -0.309  0.00  0.00    -0.005 C 
ATOM      4  C   UNL     1       1.544   2.330   1.499  0.00  0.00    -0.001 C 
ATOM      5  C   UNL     1      -0.473   1.945  -0.390  0.00  0.00    -0.007 C 
ATOM      6  C   UNL     1       0.482   3.231   1.419  0.00  0.00    +0.011 C 
ATOM      7  C   UNL     1      -0.526   3.039   0.474  0.00  0.00    +0.054 C 
ENDROOT
BRANCH   2  12
ATOM      8  O   UNL     1       3.461   0.312  -0.517  0.00  0.00    -0.347 OA
ATOM      9  C   UNL     1       3.428  -2.168   0.939  0.00  0.00    +0.169 C 
ATOM     10  C   UNL     1       2.267  -1.173   1.014  0.00  0.00    +0.171 C 
ATOM     11  C   UNL     1       4.244  -1.975  -0.339  0.00  0.00    +0.169 C 
ATOM     12  C   UNL     1       2.749   0.257   0.723  0.00  0.00    +0.167 C 
ATOM     13  C   UNL     1       4.631  -0.506  -0.520  0.00  0.00    +0.174 C 
BRANCH   9  14
ATOM     14  O   UNL     1       2.912  -3.500   0.935  0.00  0.00    -0.379 OA
ATOM     15  H   UNL     1       2.389  -3.646   1.739  0.00  0.00    +0.211 HD
ENDBRANCH   9  14
BRANCH  10  16
ATOM     16  O   UNL     1       1.709  -1.209   2.327  0.00  0.00    -0.379 OA
ATOM     17  H   UNL     1       1.401  -2.107   2.523  0.00  0.00    +0.211 HD
ENDBRANCH  10  16
BRANCH  11  18
ATOM     18  O   UNL     1       5.427  -2.767  -0.267  0.00  0.00    -0.379 OA
ATOM     19  H   UNL     1       5.185  -3.700  -0.152  0.00  0.00    +0.211 HD
ENDBRANCH  11  18
BRANCH  13  20
ATOM     20  C   UNL     1       5.352  -0.270  -1.843  0.00  0.00    +0.169 C 
BRANCH  20  21
ATOM     21  O   UNL     1       5.668   1.107  -1.945  0.00  0.00    -0.379 OA
ATOM     22  H   UNL     1       6.127   1.272  -2.784  0.00  0.00    +0.211 HD
ENDBRANCH  20  21
ENDBRANCH  13  20
ENDBRANCH   2  12
BRANCH   5  23
ATOM     23  C   UNL     1      -1.533   1.704  -1.416  0.00  0.00    +0.053 C 
BRANCH  23  24
ATOM     24  C   UNL     1      -2.680   0.849  -0.921  0.00  0.00    -0.018 C 
ATOM     25  C   UNL     1      -3.773   1.460  -0.332  0.00  0.00    -0.001 C 
ATOM     26  C   UNL     1      -2.608  -0.525  -1.068  0.00  0.00    -0.001 C 
ATOM     27  C   UNL     1      -4.829   0.671   0.125  0.00  0.00    +0.037 C 
ATOM     28  C   UNL     1      -3.664  -1.314  -0.611  0.00  0.00    +0.037 C 
ATOM     29  C   UNL     1      -4.774  -0.716  -0.015  0.00  0.00    +0.139 C 
BRANCH  29  30
ATOM     30  O   UNL     1      -5.806  -1.485   0.430  0.00  0.00    -0.475 OA
BRANCH  30  31
ATOM     31  C   UNL     1      -6.047  -2.710  -0.260  0.00  0.00    +0.206 C 
ATOM     32  C   UNL     1      -7.521  -3.044  -0.171  0.00  0.00    +0.051 C 
ENDBRANCH  30  31
ENDBRANCH  29  30
ENDBRANCH  23  24
ENDBRANCH   5  23
TORSDOF 10
