REMARK  Name = 3058751
REMARK  7 active torsions:
REMARK  status: ('A' for Active; 'I' for Inactive)
REMARK    1  A    between atoms: C_1  and  C_2
REMARK    2  A    between atoms: C_1  and  O_8
REMARK    3  A    between atoms: C_1  and  C_19
REMARK    4  A    between atoms: O_8  and  C_9
REMARK    5  A    between atoms: C_12  and  C_18
REMARK    6  A    between atoms: C_19  and  C_20
REMARK    7  A    between atoms: C_20  and  N_21
REMARK                            x       y       z     vdW  Elec       q    Type
REMARK                         _______ _______ _______ _____ _____    ______ ____
ROOT
ATOM      1  C   UNL     1       1.580   0.703   0.029  0.00  0.00    +0.186 C 
ENDROOT
BRANCH   1   2
ATOM      2  C   UNL     1       2.587  -0.422  -0.011  0.00  0.00    +0.017 C 
ATOM      3  C   UNL     1       3.148  -0.788  -1.224  0.00  0.00    -0.001 C 
ATOM      4  C   UNL     1       2.931  -1.067   1.166  0.00  0.00    -0.001 C 
ATOM      5  C   UNL     1       4.078  -1.827  -1.261  0.00  0.00    -0.000 C 
ATOM      6  C   UNL     1       3.861  -2.106   1.129  0.00  0.00    -0.000 C 
ATOM      7  C   UNL     1       4.434  -2.486  -0.085  0.00  0.00    -0.000 C 
ENDBRANCH   1   2
BRANCH   1   8
ATOM      8  O   UNL     1       0.662   0.435   1.091  0.00  0.00    -0.475 OA
BRANCH   8   9
ATOM      9  C   UNL     1      -0.647   0.261   0.736  0.00  0.00    +0.139 C 
ATOM     10  C   UNL     1      -1.621   1.111   1.252  0.00  0.00    +0.037 C 
ATOM     11  C   UNL     1      -0.997  -0.766  -0.136  0.00  0.00    +0.037 C 
ATOM     12  C   UNL     1      -3.313  -0.093   0.018  0.00  0.00    +0.072 C 
ATOM     13  C   UNL     1      -2.957   0.934   0.891  0.00  0.00    +0.007 C 
ATOM     14  C   UNL     1      -2.333  -0.943  -0.496  0.00  0.00    +0.007 C 
BRANCH  12  18
ATOM     15  F   UNL     1      -5.588   0.620   0.208  0.00  0.00    -0.166 F 
ATOM     16  F   UNL     1      -4.964  -0.172  -1.712  0.00  0.00    -0.166 F 
ATOM     17  F   UNL     1      -5.221  -1.511  -0.017  0.00  0.00    -0.166 F 
ATOM     18  C   UNL     1      -4.741  -0.283  -0.368  0.00  0.00    +0.419 C 
ENDBRANCH  12  18
ENDBRANCH   8   9
ENDBRANCH   1   8
BRANCH   1  19
ATOM     19  C   UNL     1       2.202   2.091   0.248  0.00  0.00    +0.024 C 
BRANCH  19  20
ATOM     20  C   UNL     1       3.167   2.497  -0.867  0.00  0.00    -0.082 C 
BRANCH  20  21
ATOM     21  N   UNL     1       3.731   3.813  -0.591  0.00  0.00    +0.381 N 
ATOM     22  H   UNL     1       4.372   4.073  -1.340  0.00  0.00    -0.089 HD
ATOM     23  H   UNL     1       4.236   3.788   0.295  0.00  0.00    -0.089 HD
ATOM     24  H   UNL     1       2.979   4.500  -0.534  0.00  0.00    -0.089 HD
ENDBRANCH  20  21
ENDBRANCH  19  20
ENDBRANCH   1  19
TORSDOF 7
