REMARK  Name = 71771
REMARK  8 active torsions:
REMARK  status: ('A' for Active; 'I' for Inactive)
REMARK    1  A    between atoms: C_1  and  C_17
REMARK    2  A    between atoms: C_2  and  N_7
REMARK    3  A    between atoms: N_7  and  C_11
REMARK    4  A    between atoms: C_17  and  C_19
REMARK    5  A    between atoms: C_19  and  O_20
REMARK    6  A    between atoms: O_20  and  C_21
REMARK    7  A    between atoms: C_21  and  C_23
REMARK    8  A    between atoms: C_23  and  O_24
REMARK                            x       y       z     vdW  Elec       q    Type
REMARK                         _______ _______ _______ _____ _____    ______ ____
ROOT
ATOM      1  C   UNL     1       0.278  -1.904   0.364  0.00  0.00    +0.002 C 
ATOM      2  C   UNL     1      -0.955  -1.308   0.094  0.00  0.00    +0.045 C 
ATOM      3  C   UNL     1       0.459  -3.268   0.132  0.00  0.00    -0.002 C 
ATOM      4  C   UNL     1      -2.005  -2.076  -0.408  0.00  0.00    +0.014 C 
ATOM      5  C   UNL     1      -0.592  -4.036  -0.369  0.00  0.00    -0.000 C 
ATOM      6  C   UNL     1      -1.824  -3.440  -0.639  0.00  0.00    +0.001 C 
ENDROOT
BRANCH   2   7
ATOM      7  N   UNL     1      -1.156   0.071   0.321  0.00  0.00    -0.311 N 
ATOM      8  H   UNL     1      -0.363   0.533   0.676  0.00  0.00    +0.152 HD
BRANCH   7  11
ATOM      9 CL   UNL     1      -1.357   1.384  -2.392  0.00  0.00    -0.081 Cl
ATOM     10 CL   UNL     1      -3.002   0.306   2.701  0.00  0.00    -0.081 Cl
ATOM     11  C   UNL     1      -2.269   0.913   0.140  0.00  0.00    +0.070 C 
ATOM     12  C   UNL     1      -2.463   1.574  -1.078  0.00  0.00    +0.072 C 
ATOM     13  C   UNL     1      -3.192   1.097   1.176  0.00  0.00    +0.072 C 
ATOM     14  C   UNL     1      -3.567   2.408  -1.258  0.00  0.00    +0.013 C 
ATOM     15  C   UNL     1      -4.295   1.931   0.996  0.00  0.00    +0.013 C 
ATOM     16  C   UNL     1      -4.483   2.586  -0.221  0.00  0.00    +0.002 C 
ENDBRANCH   7  11
ENDBRANCH   2   7
BRANCH   1  17
ATOM     17  C   UNL     1       1.420  -1.106   0.902  0.00  0.00    +0.137 C 
BRANCH  17  19
ATOM     18  O   UNL     1       2.099  -0.611  -1.381  0.00  0.00    -0.250 OA
ATOM     19  C   UNL     1       2.298  -0.508  -0.178  0.00  0.00    +0.322 C 
BRANCH  19  20
ATOM     20  O   UNL     1       3.339   0.159   0.405  0.00  0.00    -0.436 OA
BRANCH  20  21
ATOM     21  C   UNL     1       4.257   0.781  -0.499  0.00  0.00    +0.317 C 
BRANCH  21  23
ATOM     22  O   UNL     1       5.430   1.530   1.492  0.00  0.00    -0.246 OA
ATOM     23  C   UNL     1       5.343   1.474   0.275  0.00  0.00    +0.359 C 
BRANCH  23  24
ATOM     24  O   UNL     1       6.236   2.041  -0.576  0.00  0.00    -0.478 OA
ATOM     25  H   UNL     1       6.116   1.963  -1.502  0.00  0.00    +0.295 HD
ENDBRANCH  23  24
ENDBRANCH  21  23
ENDBRANCH  20  21
ENDBRANCH  19  20
ENDBRANCH  17  19
ENDBRANCH   1  17
TORSDOF 8
