REMARK  Name = 115358
REMARK  11 active torsions:
REMARK  status: ('A' for Active; 'I' for Inactive)
REMARK    1  A    between atoms: C_2  and  N_16
REMARK    2  A    between atoms: C_6  and  O_27
REMARK    3  A    between atoms: C_8  and  O_12
REMARK    4  A    between atoms: C_10  and  O_14
REMARK    5  A    between atoms: N_16  and  C_18
REMARK    6  A    between atoms: C_18  and  C_20
REMARK    7  A    between atoms: C_20  and  C_21
REMARK    8  A    between atoms: C_21  and  C_22
REMARK    9  A    between atoms: C_22  and  N_23
REMARK   10  A    between atoms: O_27  and  C_28
REMARK   11  A    between atoms: C_31  and  C_37
REMARK                            x       y       z     vdW  Elec       q    Type
REMARK                         _______ _______ _______ _____ _____    ______ ____
ROOT
ATOM      1  N   UNL     1       2.359  -1.932   0.293  0.00  0.00    -0.370 NA
ATOM      2  C   UNL     1       1.771   0.022  -0.918  0.00  0.00    +0.074 C 
ATOM      3  C   UNL     1       1.433  -1.211  -0.367  0.00  0.00    +0.136 C 
ATOM      4  C   UNL     1       0.108  -1.667  -0.526  0.00  0.00    +0.132 C 
ATOM      5  C   UNL     1       0.837   0.796  -1.610  0.00  0.00    +0.056 C 
ATOM      6  C   UNL     1      -0.832  -0.889  -1.222  0.00  0.00    +0.166 C 
ATOM      7  C   UNL     1      -0.233  -2.909   0.028  0.00  0.00    -0.025 C 
ATOM      8  C   UNL     1      -0.467   0.341  -1.762  0.00  0.00    +0.171 C 
ATOM      9  C   UNL     1       0.719  -3.654   0.709  0.00  0.00    +0.064 C 
ATOM     10  C   UNL     1       1.989  -3.125   0.813  0.00  0.00    +0.277 C 
ATOM     11  C   UNL     1      -1.597  -3.518  -0.059  0.00  0.00    +0.027 C 
ENDROOT
BRANCH   8  12
ATOM     12  O   UNL     1      -1.368   1.106  -2.438  0.00  0.00    -0.469 OA
ATOM     13  C   UNL     1      -0.902   2.351  -2.957  0.00  0.00    +0.253 C 
ENDBRANCH   8  12
BRANCH  10  14
ATOM     14  O   UNL     1       2.953  -3.835   1.479  0.00  0.00    -0.448 OA
ATOM     15  C   UNL     1       4.245  -3.244   1.556  0.00  0.00    +0.255 C 
ENDBRANCH  10  14
BRANCH   2  16
ATOM     16  N   UNL     1       3.058   0.512  -0.788  0.00  0.00    -0.332 N 
ATOM     17  H   UNL     1       3.717  -0.033  -0.300  0.00  0.00    +0.147 HD
BRANCH  16  18
ATOM     18  C   UNL     1       3.490   1.784  -1.331  0.00  0.00    +0.069 C 
ATOM     19  C   UNL     1       3.727   1.618  -2.829  0.00  0.00    +0.021 C 
BRANCH  18  20
ATOM     20  C   UNL     1       4.766   2.258  -0.623  0.00  0.00    +0.017 C 
BRANCH  20  21
ATOM     21  C   UNL     1       4.584   2.385   0.895  0.00  0.00    -0.022 C 
BRANCH  21  22
ATOM     22  C   UNL     1       5.890   2.797   1.573  0.00  0.00    -0.086 C 
BRANCH  22  23
ATOM     23  N   UNL     1       5.694   2.933   3.011  0.00  0.00    +0.380 N 
ATOM     24  H   UNL     1       6.573   3.207   3.450  0.00  0.00    -0.089 HD
ATOM     25  H   UNL     1       5.385   2.041   3.398  0.00  0.00    -0.089 HD
ATOM     26  H   UNL     1       4.987   3.645   3.192  0.00  0.00    -0.089 HD
ENDBRANCH  22  23
ENDBRANCH  21  22
ENDBRANCH  20  21
ENDBRANCH  18  20
ENDBRANCH  16  18
ENDBRANCH   2  16
BRANCH   6  27
ATOM     27  O   UNL     1      -2.127  -1.285  -1.401  0.00  0.00    -0.454 OA
BRANCH  27  28
ATOM     28  C   UNL     1      -3.121  -0.473  -0.887  0.00  0.00    +0.145 C 
ATOM     29  C   UNL     1      -3.000   0.047   0.402  0.00  0.00    +0.041 C 
ATOM     30  C   UNL     1      -4.245  -0.174  -1.657  0.00  0.00    +0.037 C 
ATOM     31  C   UNL     1      -4.003   0.865   0.920  0.00  0.00    +0.074 C 
ATOM     32  C   UNL     1      -5.248   0.645  -1.139  0.00  0.00    +0.003 C 
ATOM     33  C   UNL     1      -5.127   1.165   0.150  0.00  0.00    +0.004 C 
BRANCH  31  37
ATOM     34  F   UNL     1      -4.929   2.204   2.674  0.00  0.00    -0.166 F 
ATOM     35  F   UNL     1      -3.780   0.463   3.267  0.00  0.00    -0.166 F 
ATOM     36  F   UNL     1      -2.767   2.204   2.447  0.00  0.00    -0.166 F 
ATOM     37  C   UNL     1      -3.875   1.421   2.298  0.00  0.00    +0.419 C 
ENDBRANCH  31  37
ENDBRANCH  27  28
ENDBRANCH   6  27
TORSDOF 11
