REMARK  Name = 247
REMARK  2 active torsions:
REMARK  status: ('A' for Active; 'I' for Inactive)
REMARK    1  A    between atoms: N_1  and  C_5
REMARK    2  A    between atoms: C_5  and  C_8
REMARK                            x       y       z     vdW  Elec       q    Type
REMARK                         _______ _______ _______ _____ _____    ______ ____
ROOT
ATOM      1  N   UNL     1      -1.083  -0.043  -0.005  0.00  0.00    +0.393 N 
ATOM      2  C   UNL     1      -1.038  -0.734  -1.361  0.00  0.00    -0.095 C 
ATOM      3  C   UNL     1      -2.321  -0.497   0.755  0.00  0.00    -0.095 C 
ATOM      4  C   UNL     1      -1.136   1.465  -0.206  0.00  0.00    -0.095 C 
ENDROOT
BRANCH   1   5
ATOM      5  C   UNL     1       0.162  -0.405   0.791  0.00  0.00    +0.043 C 
BRANCH   5   8
ATOM      6  O   UNL     1       1.665   1.217  -0.059  0.00  0.00    -0.248 OA
ATOM      7  O   UNL     1       2.262  -0.989  -0.074  0.00  0.00    -0.248 OA
ATOM      8  C   UNL     1       1.490  -0.014   0.159  0.00  0.00    +0.345 C 
ENDBRANCH   5   8
ENDBRANCH   1   5
TORSDOF 2
