24180717
  -OEChem-10051720533D

 55 59  0     0  0  0  0  0  0999 V2000
   -3.2870   -2.6155   -1.3137 O   0  0  0  0  0  0  0  0  0  0  0  0
   -0.4974    3.9247   -0.8428 O   0  0  0  0  0  0  0  0  0  0  0  0
    2.0903    1.6897   -0.1592 O   0  0  0  0  0  0  0  0  0  0  0  0
   -0.6308    1.6128   -0.8815 N   0  0  0  0  0  0  0  0  0  0  0  0
   -7.1843   -0.0991    2.9666 N   0  0  0  0  0  0  0  0  0  0  0  0
   -2.8715   -0.2583   -0.8421 C   0  0  0  0  0  0  0  0  0  0  0  0
   -1.8579   -0.1703    0.3200 C   0  0  0  0  0  0  0  0  0  0  0  0
   -2.9250    1.0808   -1.5965 C   0  0  0  0  0  0  0  0  0  0  0  0
   -2.5717   -1.4482   -1.7871 C   0  0  0  0  0  0  0  0  0  0  0  0
   -4.1990   -0.7308   -0.3400 C   0  0  0  0  0  0  0  0  0  0  0  0
   -0.4915    0.3625   -0.1221 C   0  0  0  0  0  0  0  0  0  0  0  0
   -1.5345    1.5362   -2.0309 C   0  0  0  0  0  0  0  0  0  0  0  0
   -4.3468   -2.0821   -0.6259 C   0  0  0  0  0  0  0  0  0  0  0  0
   -5.1836   -0.0526    0.3603 C   0  0  0  0  0  0  0  0  0  0  0  0
   -5.4546   -2.8038   -0.2238 C   0  0  0  0  0  0  0  0  0  0  0  0
    0.0031    2.8315   -0.5727 C   0  0  0  0  0  0  0  0  0  0  0  0
   -6.3199   -0.7589    0.7647 C   0  0  0  0  0  0  0  0  0  0  0  0
   -6.4534   -2.1264    0.4762 C   0  0  0  0  0  0  0  0  0  0  0  0
   -7.3983   -0.0554    1.5194 C   0  0  0  0  0  0  0  0  0  0  0  0
    1.2990    2.7648    0.0938 C   0  0  0  0  0  0  0  0  0  0  0  0
    1.9148    3.6205    0.9773 C   0  0  0  0  0  0  0  0  0  0  0  0
    3.1647    3.0334    1.2871 C   0  0  0  0  0  0  0  0  0  0  0  0
    3.2239    1.8608    0.5706 C   0  0  0  0  0  0  0  0  0  0  0  0
    4.2152    0.8589    0.4729 C   0  0  0  0  0  0  0  0  0  0  0  0
    5.0580    0.0069    0.3891 C   0  0  0  0  0  0  0  0  0  0  0  0
    6.0613   -1.0077    0.2883 C   0  0  0  0  0  0  0  0  0  0  0  0
    7.2084   -0.7812   -0.4723 C   0  0  0  0  0  0  0  0  0  0  0  0
    5.8927   -2.2236    0.9509 C   0  0  0  0  0  0  0  0  0  0  0  0
    8.1867   -1.7705   -0.5707 C   0  0  0  0  0  0  0  0  0  0  0  0
    6.8712   -3.2129    0.8525 C   0  0  0  0  0  0  0  0  0  0  0  0
    8.0181   -2.9863    0.0917 C   0  0  0  0  0  0  0  0  0  0  0  0
   -1.7250   -1.1461    0.8046 H   0  0  0  0  0  0  0  0  0  0  0  0
   -2.2548    0.5041    1.0919 H   0  0  0  0  0  0  0  0  0  0  0  0
   -3.3573    1.8547   -0.9482 H   0  0  0  0  0  0  0  0  0  0  0  0
   -3.5815    1.0113   -2.4727 H   0  0  0  0  0  0  0  0  0  0  0  0
   -2.9164   -1.2553   -2.8121 H   0  0  0  0  0  0  0  0  0  0  0  0
   -1.5069   -1.6951   -1.8410 H   0  0  0  0  0  0  0  0  0  0  0  0
    0.1164    0.5230    0.7727 H   0  0  0  0  0  0  0  0  0  0  0  0
    0.0306   -0.3575   -0.7608 H   0  0  0  0  0  0  0  0  0  0  0  0
   -1.0970    0.8321   -2.7479 H   0  0  0  0  0  0  0  0  0  0  0  0
   -1.5981    2.5088   -2.5300 H   0  0  0  0  0  0  0  0  0  0  0  0
   -5.0669    0.9995    0.5999 H   0  0  0  0  0  0  0  0  0  0  0  0
   -5.5521   -3.8605   -0.4461 H   0  0  0  0  0  0  0  0  0  0  0  0
   -7.3359   -2.6732    0.7991 H   0  0  0  0  0  0  0  0  0  0  0  0
   -7.4691    0.9894    1.1935 H   0  0  0  0  0  0  0  0  0  0  0  0
   -8.3704   -0.5078    1.2896 H   0  0  0  0  0  0  0  0  0  0  0  0
    1.5161    4.5517    1.3543 H   0  0  0  0  0  0  0  0  0  0  0  0
   -7.9487    0.3887    3.4323 H   0  0  0  0  0  0  0  0  0  0  0  0
   -6.3373    0.4178    3.2012 H   0  0  0  0  0  0  0  0  0  0  0  0
    3.9242    3.4217    1.9511 H   0  0  0  0  0  0  0  0  0  0  0  0
    7.3544    0.1614   -0.9946 H   0  0  0  0  0  0  0  0  0  0  0  0
    5.0042   -2.4154    1.5478 H   0  0  0  0  0  0  0  0  0  0  0  0
    9.0799   -1.5942   -1.1630 H   0  0  0  0  0  0  0  0  0  0  0  0
    6.7401   -4.1597    1.3682 H   0  0  0  0  0  0  0  0  0  0  0  0
    8.7799   -3.7566    0.0151 H   0  0  0  0  0  0  0  0  0  0  0  0
  1  9  1  0  0  0  0
  1 13  1  0  0  0  0
  2 16  2  0  0  0  0
  3 20  1  0  0  0  0
  3 23  1  0  0  0  0
  4 11  1  0  0  0  0
  4 12  1  0  0  0  0
  4 16  1  0  0  0  0
  5 19  1  0  0  0  0
  5 48  1  0  0  0  0
  5 49  1  0  0  0  0
  6  7  1  0  0  0  0
  6  8  1  0  0  0  0
  6  9  1  0  0  0  0
  6 10  1  0  0  0  0
  7 11  1  0  0  0  0
  7 32  1  0  0  0  0
  7 33  1  0  0  0  0
  8 12  1  0  0  0  0
  8 34  1  0  0  0  0
  8 35  1  0  0  0  0
  9 36  1  0  0  0  0
  9 37  1  0  0  0  0
 10 13  2  0  0  0  0
 10 14  1  0  0  0  0
 11 38  1  0  0  0  0
 11 39  1  0  0  0  0
 12 40  1  0  0  0  0
 12 41  1  0  0  0  0
 13 15  1  0  0  0  0
 14 17  2  0  0  0  0
 14 42  1  0  0  0  0
 15 18  2  0  0  0  0
 15 43  1  0  0  0  0
 16 20  1  0  0  0  0
 17 18  1  0  0  0  0
 17 19  1  0  0  0  0
 18 44  1  0  0  0  0
 19 45  1  0  0  0  0
 19 46  1  0  0  0  0
 20 21  2  0  0  0  0
 21 22  1  0  0  0  0
 21 47  1  0  0  0  0
 22 23  2  0  0  0  0
 22 50  1  0  0  0  0
 23 24  1  0  0  0  0
 24 25  3  0  0  0  0
 25 26  1  0  0  0  0
 26 27  2  0  0  0  0
 26 28  1  0  0  0  0
 27 29  1  0  0  0  0
 27 51  1  0  0  0  0
 28 30  2  0  0  0  0
 28 52  1  0  0  0  0
 29 31  2  0  0  0  0
 29 53  1  0  0  0  0
 30 31  1  0  0  0  0
 30 54  1  0  0  0  0
 31 55  1  0  0  0  0
M  END
> <DATABASE_ID>
DB06962

> <DATABASE_NAME>
drugbank

> <ORIGINAL_SOURCE>
PUBCHEM

> <ORIGINAL_SOURCE_URL>
https://pubchem.ncbi.nlm.nih.gov/rest/pug/compound/inchikey/YKTUSHSSKIWDRY-UHFFFAOYSA-N/SDF?record_type=3d

> <SMILES>
NCC1=CC=C2OCC3(CCN(CC3)C(=O)C3=CC=C(O3)C#CC3=CC=CC=C3)C2=C1

> <INCHI_IDENTIFIER>
InChI=1S/C26H24N2O3/c27-17-20-7-10-23-22(16-20)26(18-30-23)12-14-28(15-13-26)25(29)24-11-9-21(31-24)8-6-19-4-2-1-3-5-19/h1-5,7,9-11,16H,12-15,17-18,27H2

> <INCHI_KEY>
YKTUSHSSKIWDRY-UHFFFAOYSA-N

> <FORMULA>
C26H24N2O3

> <MOLECULAR_WEIGHT>
412.4804

> <EXACT_MASS>
412.178692644

> <JCHEM_ACCEPTOR_COUNT>
3

> <JCHEM_AVERAGE_POLARIZABILITY>
45.88665721863289

> <JCHEM_BIOAVAILABILITY>
1

> <JCHEM_DONOR_COUNT>
1

> <JCHEM_FORMAL_CHARGE>
0

> <JCHEM_GHOSE_FILTER>
1

> <JCHEM_IUPAC>
1'-[5-(2-phenylethynyl)furan-2-carbonyl]-2H-spiro[1-benzofuran-3,4'-piperidine]-5-ylmethanamine

> <ALOGPS_LOGP>
3.49

> <JCHEM_LOGP>
3.149694769

> <ALOGPS_LOGS>
-4.31

> <JCHEM_MDDR_LIKE_RULE>
0

> <JCHEM_NUMBER_OF_RINGS>
5

> <JCHEM_PHYSIOLOGICAL_CHARGE>
1

> <JCHEM_PKA_STRONGEST_BASIC>
9.468494248032464

> <JCHEM_POLAR_SURFACE_AREA>
68.7

> <JCHEM_REFRACTIVITY>
114.74550000000002

> <JCHEM_ROTATABLE_BOND_COUNT>
4

> <JCHEM_RULE_OF_FIVE>
1

> <ALOGPS_SOLUBILITY>
2.04e-02 g/l

> <JCHEM_TRADITIONAL_IUPAC>
1'-[5-(2-phenylethynyl)furan-2-carbonyl]-2H-spiro[1-benzofuran-3,4'-piperidine]-5-ylmethanamine

> <JCHEM_VEBER_RULE>
0

> <DRUGBANK_ID>
DB06962

> <DRUG_GROUPS>
experimental

> <GENERIC_NAME>
(5-(aminomethyl)-2H-spiro[benzofuran-3,4'-piperidine]-1'-yl)(5-(phenylethynyl)furan-2-yl)methanone

$$$$
