REMARK  Name = 46937032
REMARK  8 active torsions:
REMARK  status: ('A' for Active; 'I' for Inactive)
REMARK    1  A    between atoms: C_1  and  C_4
REMARK    2  A    between atoms: C_1  and  O_8
REMARK    3  A    between atoms: C_2  and  O_10
REMARK    4  A    between atoms: C_4  and  C_5
REMARK    5  A    between atoms: C_5  and  C_6
REMARK    6  A    between atoms: O_10  and  P_11
REMARK    7  A    between atoms: P_11  and  O_13
REMARK    8  A    between atoms: P_11  and  O_15
REMARK                            x       y       z     vdW  Elec       q    Type
REMARK                         _______ _______ _______ _____ _____    ______ ____
ROOT
ATOM      1  C   UNL     1      -0.453   1.159   0.026  0.00  0.00    +0.207 C 
ATOM      2  C   UNL     1       0.511   0.232   0.041  0.00  0.00    +0.222 C 
ENDROOT
BRANCH   1   4
ATOM      3  O   UNL     1      -2.744   1.698  -0.006  0.00  0.00    -0.288 OA
ATOM      4  C   UNL     1      -1.905   0.796   0.006  0.00  0.00    +0.210 C 
BRANCH   4   5
ATOM      5  C   UNL     1      -2.304  -0.673   0.003  0.00  0.00    +0.073 C 
BRANCH   5   6
ATOM      6  C   UNL     1      -3.820  -0.862  -0.037  0.00  0.00    +0.008 C 
ATOM      7  C   UNL     1      -4.200  -2.333  -0.007  0.00  0.00    +0.000 C 
ENDBRANCH   5   6
ENDBRANCH   4   5
ENDBRANCH   1   4
BRANCH   1   8
ATOM      8  O   UNL     1      -0.168   2.511   0.029  0.00  0.00    -0.501 OA
ATOM      9  H   UNL     1      -0.865   3.137   0.018  0.00  0.00    +0.292 HD
ENDBRANCH   1   8
BRANCH   2  10
ATOM     10  O   UNL     1       1.845   0.544   0.059  0.00  0.00    -0.396 OA
BRANCH  10  11
ATOM     11  P   UNL     1       3.001  -0.573   0.076  0.00  0.00    +0.528 P 
ATOM     12  O   UNL     1       2.995  -1.516   1.244  0.00  0.00    -0.216 OA
BRANCH  11  13
ATOM     13  O   UNL     1       2.889  -1.287  -1.371  0.00  0.00    -0.293 OA
ATOM     14  H   UNL     1       2.900  -0.611  -2.067  0.00  0.00    +0.223 HD
ENDBRANCH  11  13
BRANCH  11  15
ATOM     15  O   UNL     1       4.352   0.306  -0.063  0.00  0.00    -0.293 OA
ATOM     16  H   UNL     1       4.281   0.888  -0.836  0.00  0.00    +0.223 HD
ENDBRANCH  11  15
ENDBRANCH  10  11
ENDBRANCH   2  10
TORSDOF 8
