REMARK  Name = 9818479
REMARK  1 active torsions:
REMARK  status: ('A' for Active; 'I' for Inactive)
REMARK    1  A    between atoms: C_4  and  N_15
REMARK                            x       y       z     vdW  Elec       q    Type
REMARK                         _______ _______ _______ _____ _____    ______ ____
ROOT
ATOM      1  O   UNL     1      -1.296  -3.240  -0.017  0.00  0.00    -0.247 OA
ATOM      2  N   UNL     1      -0.177  -1.151   0.085  0.00  0.00    -0.283 N 
ATOM      3  N   UNL     1      -2.435  -1.155  -0.150  0.00  0.00    -0.305 N 
ATOM      4  C   UNL     1       2.108  -0.255  -0.214  0.00  0.00    -0.034 C 
ATOM      5  C   UNL     1       1.233  -1.425   0.294  0.00  0.00    +0.090 C 
ATOM      6  C   UNL     1       1.634   1.120   0.332  0.00  0.00    +0.008 C 
ATOM      7  C   UNL     1      -0.629   0.164   0.052  0.00  0.00    +0.075 A 
ATOM      8  C   UNL     1       0.154   1.292   0.145  0.00  0.00    -0.007 C 
ATOM      9  C   UNL     1      -2.004   0.173  -0.094  0.00  0.00    +0.076 A 
ATOM     10  C   UNL     1      -1.292  -2.018  -0.027  0.00  0.00    +0.328 A 
ATOM     11  C   UNL     1      -0.527   2.508   0.105  0.00  0.00    -0.003 C 
ATOM     12  C   UNL     1      -2.695   1.359  -0.150  0.00  0.00    +0.019 C 
ATOM     13  C   UNL     1      -1.937   2.538  -0.047  0.00  0.00    +0.001 C 
ATOM     14  H   UNL     1      -3.368  -1.452  -0.255  0.00  0.00    +0.170 HD
ENDROOT
BRANCH   4  15
ATOM     15  N   UNL     1       3.510  -0.472   0.133  0.00  0.00    +0.385 N 
ATOM     16  C   UNL     1       4.352   0.563  -0.447  0.00  0.00    -0.105 C 
ATOM     17  H   UNL     1       3.806  -1.382  -0.221  0.00  0.00    -0.084 HD
ATOM     18  H   UNL     1       3.604  -0.440   1.149  0.00  0.00    -0.084 HD
ENDBRANCH   4  15
TORSDOF 1
