REMARK  Name = 9840777
REMARK  4 active torsions:
REMARK  status: ('A' for Active; 'I' for Inactive)
REMARK    1  A    between atoms: C3*_2  and  O3*_14
REMARK    2  A    between atoms: C4*_4  and  C5*_16
REMARK    3  A    between atoms: C1*_5  and  N_8
REMARK    4  A    between atoms: C5*_16  and  O5*_17
REMARK                            x       y       z     vdW  Elec       q    Type
REMARK                         _______ _______ _______ _____ _____    ______ ____
ROOT
ATOM      1  O4* UNL     1       1.333  -0.159  -1.000  0.00  0.00    -0.334 OA
ATOM      2  C3* UNL     1       2.769   0.625   0.716  0.00  0.00    +0.144 C 
ATOM      3  C2* UNL     1       1.370   1.112   1.013  0.00  0.00    +0.083 C 
ATOM      4  C4* UNL     1       2.538  -0.497  -0.286  0.00  0.00    +0.173 C 
ATOM      5  C1* UNL     1       0.662   0.909  -0.316  0.00  0.00    +0.204 C 
ENDROOT
BRANCH   5   8
ATOM      6  I   UNL     1      -2.921  -3.077   0.420  0.00  0.00    -0.044 I 
ATOM      7  O   UNL     1      -1.457   2.763  -0.335  0.00  0.00    -0.206 OA
ATOM      8  N   UNL     1      -0.725   0.577  -0.163  0.00  0.00    -0.208 N 
ATOM      9  N   UNL     1      -3.057   1.180  -0.028  0.00  0.00    -0.162 NA
ATOM     10  C   UNL     1      -1.071  -0.758   0.011  0.00  0.00    +0.139 C 
ATOM     11  C   UNL     1      -1.737   1.573  -0.184  0.00  0.00    +0.218 C 
ATOM     12  C   UNL     1      -2.333  -1.165   0.163  0.00  0.00    +0.049 C 
ATOM     13  C   UNL     1      -3.324  -0.075   0.130  0.00  0.00    +0.115 C 
ENDBRANCH   5   8
BRANCH   2  14
ATOM     14  O3* UNL     1       3.523   1.671   0.108  0.00  0.00    -0.382 OA
ATOM     15  H3* UNL     1       3.666   2.383   0.752  0.00  0.00    +0.210 HD
ENDBRANCH   2  14
BRANCH   4  16
ATOM     16  C5* UNL     1       2.324  -1.851   0.379  0.00  0.00    +0.169 C 
BRANCH  16  17
ATOM     17  O5* UNL     1       2.107  -2.827  -0.628  0.00  0.00    -0.379 OA
ATOM     18  H5* UNL     1       1.970  -3.693  -0.214  0.00  0.00    +0.211 HD
ENDBRANCH  16  17
ENDBRANCH   4  16
TORSDOF 4
