REMARK  Name = 1548943
REMARK  10 active torsions:
REMARK  status: ('A' for Active; 'I' for Inactive)
REMARK    1  A    between atoms: N_2  and  C_14
REMARK    2  A    between atoms: C_3  and  C_5
REMARK    3  A    between atoms: C_5  and  C_6
REMARK    4  A    between atoms: C_6  and  C_7
REMARK    5  A    between atoms: C_7  and  C_8
REMARK    6  A    between atoms: C_8  and  C_9
REMARK    7  A    between atoms: C_10  and  C_11
REMARK    8  A    between atoms: C_14  and  C_15
REMARK    9  A    between atoms: C_18  and  O_21
REMARK   10  A    between atoms: C_20  and  O_23
REMARK                            x       y       z     vdW  Elec       q    Type
REMARK                         _______ _______ _______ _____ _____    ______ ____
ROOT
ATOM      1  O   UNL     1      -3.072  -1.198  -1.618  0.00  0.00    -0.275 OA
ATOM      2  N   UNL     1      -3.043  -0.988   0.698  0.00  0.00    -0.300 N 
ATOM      3  C   UNL     1      -2.947  -1.683  -0.495  0.00  0.00    +0.223 C 
ATOM      4  H   UNL     1      -2.925  -1.484   1.540  0.00  0.00    +0.150 HD
ENDROOT
BRANCH   3   5
ATOM      5  C   UNL     1      -2.668  -3.160  -0.297  0.00  0.00    +0.085 C 
BRANCH   5   6
ATOM      6  C   UNL     1      -1.357  -3.414   0.447  0.00  0.00    +0.010 C 
BRANCH   6   7
ATOM      7  C   UNL     1      -0.153  -2.781  -0.262  0.00  0.00    +0.005 C 
BRANCH   7   8
ATOM      8  C   UNL     1       1.165  -2.964   0.499  0.00  0.00    +0.026 C 
BRANCH   8   9
ATOM      9  C   UNL     1       2.345  -2.360  -0.207  0.00  0.00    -0.031 C 
ATOM     10  C   UNL     1       3.130  -1.414   0.330  0.00  0.00    -0.031 C 
BRANCH  10  11
ATOM     11  C   UNL     1       4.319  -0.814  -0.377  0.00  0.00    +0.022 C 
ATOM     12  C   UNL     1       5.598  -1.092   0.413  0.00  0.00    +0.005 C 
ATOM     13  C   UNL     1       4.118   0.690  -0.563  0.00  0.00    +0.005 C 
ENDBRANCH  10  11
ENDBRANCH   8   9
ENDBRANCH   7   8
ENDBRANCH   6   7
ENDBRANCH   5   6
ENDBRANCH   3   5
BRANCH   2  14
ATOM     14  C   UNL     1      -3.311   0.430   0.766  0.00  0.00    +0.116 C 
BRANCH  14  15
ATOM     15  C   UNL     1      -2.047   1.241   0.753  0.00  0.00    +0.001 C 
ATOM     16  C   UNL     1      -1.505   1.668  -0.460  0.00  0.00    +0.037 C 
ATOM     17  C   UNL     1      -1.415   1.568   1.953  0.00  0.00    +0.001 C 
ATOM     18  C   UNL     1      -0.332   2.422  -0.472  0.00  0.00    +0.172 C 
ATOM     19  C   UNL     1      -0.241   2.322   1.940  0.00  0.00    +0.040 C 
ATOM     20  C   UNL     1       0.300   2.749   0.728  0.00  0.00    +0.168 C 
BRANCH  18  21
ATOM     21  O   UNL     1       0.188   2.833  -1.663  0.00  0.00    -0.468 OA
ATOM     22  C   UNL     1      -0.519   2.457  -2.843  0.00  0.00    +0.253 C 
ENDBRANCH  18  21
BRANCH  20  23
ATOM     23  O   UNL     1       1.447   3.484   0.729  0.00  0.00    -0.503 OA
ATOM     24  H   UNL     1       1.818   3.775  -0.081  0.00  0.00    +0.292 HD
ENDBRANCH  20  23
ENDBRANCH  14  15
ENDBRANCH   2  14
TORSDOF 10
