REMARK  Name = 9907323
REMARK  9 active torsions:
REMARK  status: ('A' for Active; 'I' for Inactive)
REMARK    1  A    between atoms: N_1  and  C_9
REMARK    2  A    between atoms: N_2  and  C_18
REMARK    3  A    between atoms: C_9  and  C_10
REMARK    4  A    between atoms: C_10  and  C_11
REMARK    5  A    between atoms: C_11  and  C_12
REMARK    6  A    between atoms: C_18  and  C_19
REMARK    7  A    between atoms: C_19  and  C_20
REMARK    8  A    between atoms: C_23  and  O_26
REMARK    9  A    between atoms: C_25  and  O_28
REMARK                            x       y       z     vdW  Elec       q    Type
REMARK                         _______ _______ _______ _____ _____    ______ ____
ROOT
ATOM      1  N   UNL     1      -2.243  -0.318   0.877  0.00  0.00    +0.384 N 
ATOM      2  N   UNL     1       0.553   0.417   0.808  0.00  0.00    +0.384 N 
ATOM      3  C   UNL     1      -1.252  -1.008   1.711  0.00  0.00    -0.101 C 
ATOM      4  C   UNL     1      -1.825   1.067   0.626  0.00  0.00    -0.101 C 
ATOM      5  C   UNL     1       0.134  -0.967   1.059  0.00  0.00    -0.101 C 
ATOM      6  C   UNL     1      -0.438   1.110  -0.025  0.00  0.00    -0.101 C 
ATOM      7  H   UNL     1      -2.303  -0.802  -0.019  0.00  0.00    -0.080 HD
ATOM      8  H   UNL     1       0.614   0.902   1.704  0.00  0.00    -0.080 HD
ENDROOT
BRANCH   1   9
ATOM      9  C   UNL     1      -3.564  -0.356   1.500  0.00  0.00    -0.077 C 
BRANCH   9  10
ATOM     10  C   UNL     1      -4.655  -0.206   0.440  0.00  0.00    -0.018 C 
BRANCH  10  11
ATOM     11  C   UNL     1      -6.048  -0.266   1.071  0.00  0.00    +0.024 C 
BRANCH  11  12
ATOM     12  C   UNL     1      -7.135  -0.082   0.043  0.00  0.00    -0.022 C 
ATOM     13  C   UNL     1      -7.606   1.197  -0.252  0.00  0.00    -0.004 C 
ATOM     14  C   UNL     1      -7.669  -1.191  -0.614  0.00  0.00    -0.004 C 
ATOM     15  C   UNL     1      -8.612   1.367  -1.204  0.00  0.00    -0.000 C 
ATOM     16  C   UNL     1      -8.674  -1.020  -1.566  0.00  0.00    -0.000 C 
ATOM     17  C   UNL     1      -9.145   0.259  -1.861  0.00  0.00    -0.000 C 
ENDBRANCH  11  12
ENDBRANCH  10  11
ENDBRANCH   9  10
ENDBRANCH   1   9
BRANCH   2  18
ATOM     18  C   UNL     1       1.873   0.455   0.183  0.00  0.00    -0.073 C 
BRANCH  18  19
ATOM     19  C   UNL     1       2.976   0.245   1.221  0.00  0.00    +0.004 C 
BRANCH  19  20
ATOM     20  C   UNL     1       4.346   0.304   0.593  0.00  0.00    -0.021 C 
ATOM     21  C   UNL     1       4.939  -0.859   0.104  0.00  0.00    +0.036 C 
ATOM     22  C   UNL     1       5.020   1.522   0.502  0.00  0.00    -0.001 C 
ATOM     23  C   UNL     1       6.207  -0.805  -0.477  0.00  0.00    +0.172 C 
ATOM     24  C   UNL     1       6.287   1.577  -0.078  0.00  0.00    +0.040 C 
ATOM     25  C   UNL     1       6.880   0.414  -0.568  0.00  0.00    +0.172 C 
BRANCH  23  26
ATOM     26  O   UNL     1       6.776  -1.947  -0.952  0.00  0.00    -0.468 OA
ATOM     27  C   UNL     1       6.021  -3.151  -0.821  0.00  0.00    +0.253 C 
ENDBRANCH  23  26
BRANCH  25  28
ATOM     28  O   UNL     1       8.117   0.479  -1.134  0.00  0.00    -0.468 OA
ATOM     29  C   UNL     1       8.738   1.763  -1.188  0.00  0.00    +0.253 C 
ENDBRANCH  25  28
ENDBRANCH  19  20
ENDBRANCH  18  19
ENDBRANCH   2  18
TORSDOF 9
