REMARK  Name = 25113127
REMARK  7 active torsions:
REMARK  status: ('A' for Active; 'I' for Inactive)
REMARK    1  A    between atoms: C_3  and  C_10
REMARK    2  A    between atoms: C_7  and  C_20
REMARK    3  A    between atoms: N_9  and  C_12
REMARK    4  A    between atoms: C_12  and  C_14
REMARK    5  A    between atoms: C_20  and  N_21
REMARK    6  A    between atoms: C_20  and  C_25
REMARK    7  A    between atoms: C_25  and  C_26
REMARK                            x       y       z     vdW  Elec       q    Type
REMARK                         _______ _______ _______ _____ _____    ______ ____
ROOT
ATOM      1  O   UNL     1       2.505  -1.222  -0.704  0.00  0.00    -0.277 OA
ATOM      2  N   UNL     1       1.683   0.642   0.395  0.00  0.00    -0.275 N 
ATOM      3  C   UNL     1       0.547  -0.022   1.021  0.00  0.00    +0.152 C 
ATOM      4  C   UNL     1       0.075   0.950   2.096  0.00  0.00    +0.031 C 
ATOM      5  C   UNL     1       0.464   2.316   1.535  0.00  0.00    +0.024 C 
ATOM      6  C   UNL     1       1.775   2.037   0.816  0.00  0.00    +0.094 C 
ATOM      7  C   UNL     1       2.617  -0.042  -0.367  0.00  0.00    +0.205 C 
ENDROOT
BRANCH   3  10
ATOM      8  O   UNL     1      -0.601   0.548  -0.993  0.00  0.00    -0.273 OA
ATOM      9  N   UNL     1      -1.281  -1.333   0.199  0.00  0.00    -0.299 N 
ATOM     10  C   UNL     1      -0.490  -0.223  -0.043  0.00  0.00    +0.241 C 
ATOM     11  H   UNL     1      -1.094  -1.876   0.999  0.00  0.00    +0.150 HD
BRANCH   9  12
ATOM     12  C   UNL     1      -2.368  -1.732  -0.665  0.00  0.00    +0.116 C 
BRANCH  12  14
ATOM     13 CL   UNL     1      -6.042   1.855  -1.541  0.00  0.00    -0.082 Cl
ATOM     14  C   UNL     1      -3.669  -1.100  -0.260  0.00  0.00    -0.002 C 
ATOM     15  C   UNL     1      -4.190  -0.039  -1.002  0.00  0.00    +0.009 C 
ATOM     16  C   UNL     1      -4.356  -1.573   0.857  0.00  0.00    -0.003 C 
ATOM     17  C   UNL     1      -5.398   0.548  -0.626  0.00  0.00    +0.057 C 
ATOM     18  C   UNL     1      -5.564  -0.986   1.234  0.00  0.00    +0.001 C 
ATOM     19  C   UNL     1      -6.085   0.074   0.492  0.00  0.00    +0.011 C 
ENDBRANCH  12  14
ENDBRANCH   9  12
ENDBRANCH   3  10
BRANCH   7  20
ATOM     20  C   UNL     1       3.821   0.761  -0.793  0.00  0.00    +0.013 C 
BRANCH  20  21
ATOM     21  N   UNL     1       3.429   1.420  -2.032  0.00  0.00    +0.387 N 
ATOM     22  H   UNL     1       2.625   2.023  -1.857  0.00  0.00    -0.089 HD
ATOM     23  H   UNL     1       3.182   0.717  -2.728  0.00  0.00    -0.089 HD
ATOM     24  H   UNL     1       4.207   1.982  -2.378  0.00  0.00    -0.089 HD
ENDBRANCH  20  21
BRANCH  20  25
ATOM     25  C   UNL     1       5.026  -0.148  -1.034  0.00  0.00    -0.013 C 
BRANCH  25  26
ATOM     26  C   UNL     1       5.508  -0.928   0.209  0.00  0.00    -0.002 C 
ATOM     27  C   UNL     1       5.915   0.057   1.309  0.00  0.00    -0.000 C 
ATOM     28  C   UNL     1       6.678  -1.861  -0.104  0.00  0.00    -0.000 C 
ENDBRANCH  25  26
ENDBRANCH  20  25
ENDBRANCH   7  20
TORSDOF 7
