REMARK  Name = 9821178
REMARK  6 active torsions:
REMARK  status: ('A' for Active; 'I' for Inactive)
REMARK    1  A    between atoms: N_1  and  C_29
REMARK    2  A    between atoms: C_4  and  N_21
REMARK    3  A    between atoms: C_6  and  C_12
REMARK    4  A    between atoms: N_11  and  C_14
REMARK    5  A    between atoms: C_14  and  C_15
REMARK    6  A    between atoms: N_21  and  C_24
REMARK                            x       y       z     vdW  Elec       q    Type
REMARK                         _______ _______ _______ _____ _____    ______ ____
ROOT
ATOM      1  N   UNL     1      -4.414  -1.340   0.314  0.00  0.00    -0.195 N 
ATOM      2  N   UNL     1      -2.361  -2.303  -0.529  0.00  0.00    -0.227 NA
ATOM      3  N   UNL     1      -4.945  -0.142   0.618  0.00  0.00    -0.175 NA
ATOM      4  C   UNL     1      -1.512   0.459  -0.585  0.00  0.00    +0.055 C 
ATOM      5  C   UNL     1      -2.800   0.076  -0.148  0.00  0.00    +0.067 C 
ATOM      6  C   UNL     1      -0.671  -0.594  -0.992  0.00  0.00    +0.086 C 
ATOM      7  C   UNL     1      -3.133  -1.270  -0.150  0.00  0.00    +0.153 C 
ATOM      8  C   UNL     1      -3.959   0.716   0.336  0.00  0.00    +0.122 C 
ATOM      9  C   UNL     1      -1.133  -1.905  -0.943  0.00  0.00    +0.106 C 
ENDROOT
BRANCH   6  12
ATOM     10  O   UNL     1       0.957   0.744  -2.021  0.00  0.00    -0.270 OA
ATOM     11  N   UNL     1       1.635  -1.332  -1.240  0.00  0.00    -0.297 N 
ATOM     12  C   UNL     1       0.681  -0.333  -1.465  0.00  0.00    +0.249 C 
ATOM     13  H   UNL     1       1.346  -2.160  -0.794  0.00  0.00    +0.150 HD
BRANCH  11  14
ATOM     14  C   UNL     1       3.022  -1.212  -1.629  0.00  0.00    +0.117 C 
BRANCH  14  15
ATOM     15  C   UNL     1       3.946  -1.313  -0.451  0.00  0.00    -0.003 C 
ATOM     16  C   UNL     1       4.309  -0.161   0.239  0.00  0.00    -0.003 C 
ATOM     17  C   UNL     1       4.431  -2.555  -0.060  0.00  0.00    -0.003 C 
ATOM     18  C   UNL     1       5.168  -0.254   1.334  0.00  0.00    -0.000 C 
ATOM     19  C   UNL     1       5.290  -2.648   1.035  0.00  0.00    -0.000 C 
ATOM     20  C   UNL     1       5.658  -1.497   1.732  0.00  0.00    -0.000 C 
ENDBRANCH  14  15
ENDBRANCH  11  14
ENDBRANCH   6  12
BRANCH   4  21
ATOM     21  N   UNL     1      -1.100   1.778  -0.616  0.00  0.00    -0.334 N 
ATOM     22  H   UNL     1      -0.831   2.162  -1.481  0.00  0.00    +0.147 HD
BRANCH  21  24
ATOM     23  O   UNL     1       1.328   4.280   0.473  0.00  0.00    -0.354 OA
ATOM     24  C   UNL     1      -1.042   2.626   0.559  0.00  0.00    +0.074 C 
ATOM     25  C   UNL     1       0.214   2.315   1.375  0.00  0.00    +0.052 C 
ATOM     26  C   UNL     1      -1.072   4.097   0.140  0.00  0.00    +0.052 C 
ATOM     27  C   UNL     1       1.474   2.885   0.730  0.00  0.00    +0.144 C 
ATOM     28  C   UNL     1       0.264   4.550  -0.439  0.00  0.00    +0.144 C 
ENDBRANCH  21  24
ENDBRANCH   4  21
BRANCH   1  29
ATOM     29  C   UNL     1      -5.203  -2.536   0.497  0.00  0.00    +0.118 C 
ATOM     30  C   UNL     1      -5.034  -3.129   1.885  0.00  0.00    +0.025 C 
ENDBRANCH   1  29
TORSDOF 6
