REMARK  Name = 123618
REMARK  3 active torsions:
REMARK  status: ('A' for Active; 'I' for Inactive)
REMARK    1  A    between atoms: N_1  and  C_13
REMARK    2  A    between atoms: N_2  and  C_20
REMARK    3  A    between atoms: C_20  and  C_22
REMARK                            x       y       z     vdW  Elec       q    Type
REMARK                         _______ _______ _______ _____ _____    ______ ____
ROOT
ATOM      1  N   UNL     1       1.126  -1.453   0.613  0.00  0.00    -0.298 N 
ATOM      2  N   UNL     1      -1.009  -0.490   0.817  0.00  0.00    -0.244 N 
ATOM      3  N   UNL     1      -0.852  -2.307  -0.454  0.00  0.00    -0.376 NA
ATOM      4  C   UNL     1      -0.200  -1.461   0.304  0.00  0.00    +0.242 C 
ATOM      5  C   UNL     1      -2.279  -0.726   0.357  0.00  0.00    +0.081 C 
ATOM      6  C   UNL     1      -2.155  -1.865  -0.433  0.00  0.00    +0.130 C 
ATOM      7  C   UNL     1      -3.489  -0.062   0.560  0.00  0.00    +0.017 C 
ATOM      8  C   UNL     1      -3.295  -2.386  -1.068  0.00  0.00    +0.086 C 
ATOM      9  C   UNL     1      -4.614  -0.594  -0.080  0.00  0.00    -0.003 C 
ATOM     10  C   UNL     1      -4.521  -1.735  -0.880  0.00  0.00    -0.019 C 
ATOM     11  H   UNL     1       1.460  -0.739   1.202  0.00  0.00    +0.150 HD
ENDROOT
BRANCH   1  13
ATOM     12  N   UNL     1       4.595  -1.085  -0.548  0.00  0.00    +0.384 N 
ATOM     13  C   UNL     1       2.077  -2.434   0.127  0.00  0.00    +0.068 C 
ATOM     14  C   UNL     1       2.480  -2.116  -1.315  0.00  0.00    -0.004 C 
ATOM     15  C   UNL     1       3.303  -2.469   1.041  0.00  0.00    -0.004 C 
ATOM     16  C   UNL     1       3.426  -0.917  -1.411  0.00  0.00    -0.080 C 
ATOM     17  C   UNL     1       4.206  -1.249   0.852  0.00  0.00    -0.080 C 
ATOM     18  H   UNL     1       5.191  -0.261  -0.633  0.00  0.00    -0.085 HD
ATOM     19  H   UNL     1       5.095  -1.924  -0.843  0.00  0.00    -0.085 HD
ENDBRANCH   1  13
BRANCH   2  20
ATOM     20  C   UNL     1      -0.619   0.597   1.689  0.00  0.00    +0.126 C 
BRANCH  20  22
ATOM     21  F   UNL     1       0.887   5.146  -1.248  0.00  0.00    -0.204 F 
ATOM     22  C   UNL     1      -0.216   1.814   0.902  0.00  0.00    -0.002 C 
ATOM     23  C   UNL     1      -1.175   2.760   0.566  0.00  0.00    -0.000 C 
ATOM     24  C   UNL     1       1.110   1.976   0.523  0.00  0.00    -0.000 C 
ATOM     25  C   UNL     1      -0.801   3.889  -0.162  0.00  0.00    +0.029 C 
ATOM     26  C   UNL     1       1.484   3.105  -0.205  0.00  0.00    +0.029 C 
ATOM     27  C   UNL     1       0.528   4.061  -0.548  0.00  0.00    +0.140 C 
ENDBRANCH  20  22
ENDBRANCH   2  20
TORSDOF 3
