REMARK  Name = 134111
REMARK  10 active torsions:
REMARK  status: ('A' for Active; 'I' for Inactive)
REMARK    1  A    between atoms: C_1  and  C_6
REMARK    2  A    between atoms: C_1  and  C_17
REMARK    3  A    between atoms: N_4  and  C_11
REMARK    4  A    between atoms: C_11  and  O_12
REMARK    5  A    between atoms: O_12  and  C_13
REMARK    6  A    between atoms: C_13  and  C_14
REMARK    7  A    between atoms: C_14  and  O_15
REMARK    8  A    between atoms: C_20  and  O_23
REMARK    9  A    between atoms: O_23  and  C_24
REMARK   10  A    between atoms: C_24  and  C_25
REMARK                            x       y       z     vdW  Elec       q    Type
REMARK                         _______ _______ _______ _____ _____    ______ ____
ROOT
ATOM      1  C   UNL     1       1.713   2.225  -1.359  0.00  0.00    +0.059 C 
ENDROOT
BRANCH   1   6
ATOM      2  O   UNL     1       4.086   2.789   0.110  0.00  0.00    -0.270 OA
ATOM      3  O   UNL     1       5.310  -1.626   0.503  0.00  0.00    -0.252 OA
ATOM      4  N   UNL     1       3.342  -1.115  -0.641  0.00  0.00    -0.216 N 
ATOM      5  N   UNL     1       4.687   0.572   0.300  0.00  0.00    -0.236 N 
ATOM      6  C   UNL     1       2.656   1.171  -0.875  0.00  0.00    +0.051 C 
ATOM      7  C   UNL     1       2.474  -0.139  -1.086  0.00  0.00    +0.072 C 
ATOM      8  C   UNL     1       3.860   1.604  -0.117  0.00  0.00    +0.250 C 
ATOM      9  C   UNL     1       4.501  -0.798   0.081  0.00  0.00    +0.315 C 
ATOM     10  H   UNL     1       5.492   0.831   0.804  0.00  0.00    +0.159 HD
BRANCH   4  11
ATOM     11  C   UNL     1       3.016  -2.503  -0.945  0.00  0.00    +0.248 C 
BRANCH  11  12
ATOM     12  O   UNL     1       2.224  -3.026   0.110  0.00  0.00    -0.331 OA
BRANCH  12  13
ATOM     13  C   UNL     1       1.898  -4.392  -0.109  0.00  0.00    +0.176 C 
BRANCH  13  14
ATOM     14  C   UNL     1       1.054  -4.891   1.048  0.00  0.00    +0.169 C 
BRANCH  14  15
ATOM     15  O   UNL     1      -0.127  -4.103   1.135  0.00  0.00    -0.379 OA
ATOM     16  H   UNL     1      -0.672  -4.417   1.873  0.00  0.00    +0.211 HD
ENDBRANCH  14  15
ENDBRANCH  13  14
ENDBRANCH  12  13
ENDBRANCH  11  12
ENDBRANCH   4  11
ENDBRANCH   1   6
BRANCH   1  17
ATOM     17  C   UNL     1       0.635   2.540  -0.358  0.00  0.00    -0.015 C 
ATOM     18  C   UNL     1      -0.558   1.831  -0.391  0.00  0.00    +0.033 C 
ATOM     19  C   UNL     1       0.847   3.536   0.586  0.00  0.00    -0.004 C 
ATOM     20  C   UNL     1      -1.557   2.122   0.537  0.00  0.00    +0.139 C 
ATOM     21  C   UNL     1      -0.152   3.828   1.514  0.00  0.00    +0.003 C 
ATOM     22  C   UNL     1      -1.354   3.121   1.490  0.00  0.00    +0.037 C 
BRANCH  20  23
ATOM     23  O   UNL     1      -2.730   1.433   0.514  0.00  0.00    -0.471 OA
BRANCH  23  24
ATOM     24  C   UNL     1      -2.872   0.425  -0.487  0.00  0.00    +0.232 C 
BRANCH  24  25
ATOM     25  C   UNL     1      -4.233  -0.195  -0.369  0.00  0.00    +0.021 C 
ATOM     26  C   UNL     1      -4.417  -1.302   0.452  0.00  0.00    -0.001 C 
ATOM     27  C   UNL     1      -5.299   0.344  -1.081  0.00  0.00    -0.001 C 
ATOM     28  C   UNL     1      -5.683  -1.878   0.561  0.00  0.00    -0.000 C 
ATOM     29  C   UNL     1      -6.564  -0.232  -0.972  0.00  0.00    -0.000 C 
ATOM     30  C   UNL     1      -6.756  -1.343  -0.150  0.00  0.00    -0.000 C 
ENDBRANCH  24  25
ENDBRANCH  23  24
ENDBRANCH  20  23
ENDBRANCH   1  17
TORSDOF 10
