REMARK  Name = 17759780
REMARK  9 active torsions:
REMARK  status: ('A' for Active; 'I' for Inactive)
REMARK    1  A    between atoms: C_3  and  C_10
REMARK    2  A    between atoms: C_5  and  O_25
REMARK    3  A    between atoms: C_6  and  C_22
REMARK    4  A    between atoms: C_7  and  N_13
REMARK    5  A    between atoms: N_13  and  C_15
REMARK    6  A    between atoms: C_22  and  O_23
REMARK    7  A    between atoms: O_25  and  C_26
REMARK    8  A    between atoms: C_26  and  C_28
REMARK    9  A    between atoms: C_28  and  O_29
REMARK                            x       y       z     vdW  Elec       q    Type
REMARK                         _______ _______ _______ _____ _____    ______ ____
ROOT
ATOM      1 BR   UNL     1       1.094  -0.708   2.413  0.00  0.00    -0.045 Br
ATOM      2  S   UNL     1       1.309   2.016  -1.056  0.00  0.00    -0.077 S 
ATOM      3  C   UNL     1       0.601   1.234   0.293  0.00  0.00    +0.039 A 
ATOM      4  C   UNL     1       1.474   0.355   0.897  0.00  0.00    +0.075 A 
ATOM      5  C   UNL     1       2.739   0.324   0.244  0.00  0.00    +0.158 A 
ATOM      6  C   UNL     1       2.786   1.179  -0.835  0.00  0.00    +0.139 A 
ENDROOT
BRANCH   3  10
ATOM      7  C   UNL     1      -3.132   1.157   0.404  0.00  0.00    +0.045 C 
ATOM      8  C   UNL     1      -1.814   0.838   0.076  0.00  0.00    +0.015 C 
ATOM      9  C   UNL     1      -3.396   2.203   1.288  0.00  0.00    +0.014 C 
ATOM     10  C   UNL     1      -0.761   1.565   0.632  0.00  0.00    +0.008 C 
ATOM     11  C   UNL     1      -2.344   2.930   1.844  0.00  0.00    +0.001 C 
ATOM     12  C   UNL     1      -1.026   2.611   1.516  0.00  0.00    +0.001 C 
BRANCH   7  13
ATOM     13  N   UNL     1      -4.176   0.437  -0.146  0.00  0.00    -0.334 N 
ATOM     14  H   UNL     1      -5.095   0.684   0.105  0.00  0.00    +0.147 HD
BRANCH  13  15
ATOM     15  C   UNL     1      -3.989  -0.663  -1.074  0.00  0.00    +0.069 C 
ATOM     16  C   UNL     1      -3.584  -1.929  -0.313  0.00  0.00    +0.019 C 
ATOM     17  C   UNL     1      -5.265  -0.883  -1.893  0.00  0.00    +0.019 C 
ATOM     18  C   UNL     1      -4.730  -2.518   0.510  0.00  0.00    +0.002 C 
ATOM     19  C   UNL     1      -6.405  -1.474  -1.064  0.00  0.00    +0.002 C 
ATOM     20  C   UNL     1      -5.975  -2.747  -0.341  0.00  0.00    +0.000 C 
ENDBRANCH  13  15
ENDBRANCH   7  13
ENDBRANCH   3  10
BRANCH   6  22
ATOM     21  O   UNL     1       3.866   2.220  -2.704  0.00  0.00    -0.244 OA
ATOM     22  C   UNL     1       3.862   1.436  -1.738  0.00  0.00    +0.347 C 
BRANCH  22  23
ATOM     23  O   UNL     1       4.988   0.703  -1.452  0.00  0.00    -0.477 OA
ATOM     24  H   UNL     1       4.990   0.112  -0.726  0.00  0.00    +0.295 HD
ENDBRANCH  22  23
ENDBRANCH   6  22
BRANCH   5  25
ATOM     25  O   UNL     1       3.792  -0.435   0.603  0.00  0.00    -0.463 OA
BRANCH  25  26
ATOM     26  C   UNL     1       3.885  -1.735   0.017  0.00  0.00    +0.314 C 
BRANCH  26  28
ATOM     27  O   UNL     1       5.917  -1.982   1.326  0.00  0.00    -0.246 OA
ATOM     28  C   UNL     1       5.104  -2.444   0.540  0.00  0.00    +0.359 C 
BRANCH  28  29
ATOM     29  O   UNL     1       5.183  -3.691   0.012  0.00  0.00    -0.478 OA
ATOM     30  H   UNL     1       4.527  -3.989  -0.587  0.00  0.00    +0.295 HD
ENDBRANCH  28  29
ENDBRANCH  26  28
ENDBRANCH  25  26
ENDBRANCH   5  25
TORSDOF 9
