REMARK  Name = 9884642
REMARK  10 active torsions:
REMARK  status: ('A' for Active; 'I' for Inactive)
REMARK    1  A    between atoms: C_1  and  C_3
REMARK    2  A    between atoms: C_1  and  C_16
REMARK    3  A    between atoms: C_11  and  O_13
REMARK    4  A    between atoms: C_16  and  O_17
REMARK    5  A    between atoms: O_17  and  C_18
REMARK    6  A    between atoms: C_18  and  C_19
REMARK    7  A    between atoms: C_19  and  C_20
REMARK    8  A    between atoms: C_20  and  C_21
REMARK    9  A    between atoms: C_21  and  O_22
REMARK   10  A    between atoms: O_22  and  N_25
REMARK                            x       y       z     vdW  Elec       q    Type
REMARK                         _______ _______ _______ _____ _____    ______ ____
ROOT
ATOM      1  C   UNL     1       1.601  -3.111  -0.005  0.00  0.00    +0.121 C 
ATOM      2  C   UNL     1       1.823  -4.236   1.028  0.00  0.00    +0.016 C 
ENDROOT
BRANCH   1   3
ATOM      3  C   UNL     1       0.384  -2.292   0.263  0.00  0.00    -0.012 C 
ATOM      4  C   UNL     1      -1.800  -1.481  -0.438  0.00  0.00    -0.000 C 
ATOM      5  C   UNL     1      -0.647  -2.248  -0.675  0.00  0.00    -0.004 C 
ATOM      6  C   UNL     1      -1.907  -0.749   0.769  0.00  0.00    +0.003 C 
ATOM      7  C   UNL     1       0.278  -1.572   1.450  0.00  0.00    -0.004 C 
ATOM      8  C   UNL     1      -0.860  -0.805   1.702  0.00  0.00    -0.000 C 
ATOM      9  C   UNL     1      -2.847  -1.425  -1.371  0.00  0.00    +0.003 C 
ATOM     10  C   UNL     1      -3.060   0.018   1.006  0.00  0.00    +0.037 C 
ATOM     11  C   UNL     1      -4.091   0.062   0.067  0.00  0.00    +0.139 C 
ATOM     12  C   UNL     1      -3.985  -0.658  -1.119  0.00  0.00    +0.037 C 
BRANCH  11  13
ATOM     13  O   UNL     1      -5.202   0.810   0.313  0.00  0.00    -0.471 OA
ATOM     14  C   UNL     1      -6.218   0.810  -0.689  0.00  0.00    +0.252 C 
ENDBRANCH  11  13
ENDBRANCH   1   3
BRANCH   1  16
ATOM     15  O   UNL     1       3.857  -2.420   0.625  0.00  0.00    -0.250 OA
ATOM     16  C   UNL     1       2.881  -2.271  -0.100  0.00  0.00    +0.321 C 
BRANCH  16  17
ATOM     17  O   UNL     1       2.784  -1.365  -1.120  0.00  0.00    -0.448 OA
BRANCH  17  18
ATOM     18  C   UNL     1       3.936  -0.541  -1.326  0.00  0.00    +0.209 C 
BRANCH  18  19
ATOM     19  C   UNL     1       3.799   0.717  -0.479  0.00  0.00    +0.051 C 
BRANCH  19  20
ATOM     20  C   UNL     1       2.547   1.506  -0.843  0.00  0.00    +0.054 C 
BRANCH  20  21
ATOM     21  C   UNL     1       2.432   2.786  -0.027  0.00  0.00    +0.243 C 
BRANCH  21  22
ATOM     22  O   UNL     1       1.257   3.480  -0.422  0.00  0.00    -0.336 OA
BRANCH  22  25
ATOM     23  O   UNL     1       1.935   4.928   1.110  0.00  0.00    -0.090 OA
ATOM     24  O   UNL     1       0.051   5.361  -0.002  0.00  0.00    -0.090 OA
ATOM     25  N   UNL     1       1.052   4.698   0.283  0.00  0.00    +0.218 N 
ENDBRANCH  22  25
ENDBRANCH  21  22
ENDBRANCH  20  21
ENDBRANCH  19  20
ENDBRANCH  18  19
ENDBRANCH  17  18
ENDBRANCH  16  17
ENDBRANCH   1  16
TORSDOF 10
