REMARK  Name = 3080
REMARK  5 active torsions:
REMARK  status: ('A' for Active; 'I' for Inactive)
REMARK    1  A    between atoms: C_1  and  S_2
REMARK    2  A    between atoms: C_1  and  C_4
REMARK    3  A    between atoms: C_1  and  C_7
REMARK    4  A    between atoms: C_4  and  S_5
REMARK    5  A    between atoms: C_7  and  O_8
REMARK                            x       y       z     vdW  Elec       q    Type
REMARK                         _______ _______ _______ _____ _____    ______ ____
ROOT
ATOM      1  C   UNL     1       0.053   0.061  -0.248  0.00  0.00    +0.084 C 
ENDROOT
BRANCH   1   2
ATOM      2  S   UNL     1       0.076  -1.713   0.223  0.00  0.00    -0.165 S 
ATOM      3  H   UNL     1      -1.055  -2.318  -0.228  0.00  0.00    +0.102 HD
ENDBRANCH   1   2
BRANCH   1   4
ATOM      4  C   UNL     1      -1.184   0.769   0.322  0.00  0.00    +0.066 C 
BRANCH   4   5
ATOM      5  S   UNL     1      -2.754   0.060  -0.271  0.00  0.00    -0.167 S 
ATOM      6  H   UNL     1      -3.795   0.741   0.279  0.00  0.00    +0.102 HD
ENDBRANCH   4   5
ENDBRANCH   1   4
BRANCH   1   7
ATOM      7  C   UNL     1       1.332   0.729   0.267  0.00  0.00    +0.148 C 
BRANCH   7   8
ATOM      8  O   UNL     1       2.476   0.094  -0.293  0.00  0.00    -0.381 OA
ATOM      9  H   UNL     1       3.280   0.524   0.040  0.00  0.00    +0.210 HD
ENDBRANCH   7   8
ENDBRANCH   1   7
TORSDOF 5
