REMARK  Name = 16089915
REMARK  4 active torsions:
REMARK  status: ('A' for Active; 'I' for Inactive)
REMARK    1  A    between atoms: N_3  and  C_25
REMARK    2  A    between atoms: C_5  and  O_21
REMARK    3  A    between atoms: C_19  and  O_23
REMARK    4  A    between atoms: C_25  and  C_26
REMARK                            x       y       z     vdW  Elec       q    Type
REMARK                         _______ _______ _______ _____ _____    ______ ____
ROOT
ATOM      1  O   UNL     1      -2.965   0.188  -1.157  0.00  0.00    -0.469 OA
ATOM      2  O   UNL     1      -3.869   2.016   0.618  0.00  0.00    -0.292 OA
ATOM      3  N   UNL     1       2.241   0.083  -0.700  0.00  0.00    +0.392 N 
ATOM      4  C   UNL     1      -0.665   0.715  -0.629  0.00  0.00    +0.084 C 
ATOM      5  C   UNL     1       0.268   1.401   0.377  0.00  0.00    +0.080 C 
ATOM      6  C   UNL     1       1.444   0.397   0.653  0.00  0.00    -0.024 C 
ATOM      7  C   UNL     1       0.065   0.493  -1.973  0.00  0.00    -0.012 C 
ATOM      8  C   UNL     1       1.324  -0.368  -1.843  0.00  0.00    -0.072 C 
ATOM      9  C   UNL     1      -2.073   1.303  -0.831  0.00  0.00    +0.228 C 
ATOM     10  C   UNL     1      -1.107  -0.603  -0.089  0.00  0.00    +0.016 C 
ATOM     11  C   UNL     1       0.918  -0.926   1.316  0.00  0.00    +0.008 C 
ATOM     12  C   UNL     1      -0.487   1.822   1.658  0.00  0.00    +0.033 C 
ATOM     13  C   UNL     1      -0.383  -1.432   0.748  0.00  0.00    -0.025 C 
ATOM     14  C   UNL     1       3.061   1.308  -1.157  0.00  0.00    -0.096 C 
ATOM     15  C   UNL     1      -1.697   2.699   1.337  0.00  0.00    +0.071 C 
ATOM     16  C   UNL     1      -2.655   1.984   0.411  0.00  0.00    +0.191 C 
ATOM     17  C   UNL     1      -2.400  -0.874  -0.490  0.00  0.00    +0.168 C 
ATOM     18  C   UNL     1      -0.981  -2.640   1.106  0.00  0.00    -0.001 C 
ATOM     19  C   UNL     1      -3.002  -2.067  -0.162  0.00  0.00    +0.167 C 
ATOM     20  C   UNL     1      -2.273  -2.961   0.636  0.00  0.00    +0.039 C 
ENDROOT
BRANCH   5  21
ATOM     21  O   UNL     1       0.790   2.622  -0.149  0.00  0.00    -0.388 OA
ATOM     22  H   UNL     1       1.283   2.438  -0.964  0.00  0.00    +0.210 HD
ENDBRANCH   5  21
BRANCH  19  23
ATOM     23  O   UNL     1      -4.265  -2.359  -0.558  0.00  0.00    -0.503 OA
ATOM     24  H   UNL     1      -4.741  -1.753  -1.091  0.00  0.00    +0.292 HD
ENDBRANCH  19  23
BRANCH   3  25
ATOM     25  C   UNL     1       3.292  -1.021  -0.464  0.00  0.00    -0.073 C 
BRANCH  25  26
ATOM     26  C   UNL     1       4.293  -0.700   0.593  0.00  0.00    -0.020 C 
ATOM     27  C   UNL     1       5.451   0.193   0.258  0.00  0.00    -0.002 C 
ATOM     28  C   UNL     1       5.677  -1.272   0.490  0.00  0.00    -0.002 C 
ENDBRANCH  25  26
ENDBRANCH   3  25
TORSDOF 4
