REMARK  Name = 71733
REMARK  6 active torsions:
REMARK  status: ('A' for Active; 'I' for Inactive)
REMARK    1  A    between atoms: C_1  and  C_3
REMARK    2  A    between atoms: C_1  and  O_13
REMARK    3  A    between atoms: C_1  and  C_15
REMARK    4  A    between atoms: C_7  and  C_11
REMARK    5  A    between atoms: C_15  and  N_16
REMARK    6  A    between atoms: N_16  and  C_19
REMARK                            x       y       z     vdW  Elec       q    Type
REMARK                         _______ _______ _______ _____ _____    ______ ____
ROOT
ATOM      1  C   UNL     1       1.232  -1.405  -0.595  0.00  0.00    +0.146 C 
ENDROOT
BRANCH   1   3
ATOM      2  O   UNL     1      -0.723  -0.011  -0.553  0.00  0.00    -0.456 OA
ATOM      3  C   UNL     1      -0.226  -1.215  -0.239  0.00  0.00    +0.147 C 
ATOM      4  C   UNL     1      -2.026  -0.048  -0.158  0.00  0.00    +0.141 C 
ATOM      5  C   UNL     1      -2.324  -1.286   0.402  0.00  0.00    +0.037 C 
ATOM      6  C   UNL     1      -1.122  -2.038   0.337  0.00  0.00    +0.038 C 
ATOM      7  C   UNL     1      -2.944   0.994  -0.286  0.00  0.00    +0.012 C 
ATOM      8  C   UNL     1      -3.630  -1.513   0.872  0.00  0.00    +0.003 C 
ATOM      9  C   UNL     1      -4.236   0.745   0.187  0.00  0.00    -0.001 C 
ATOM     10  C   UNL     1      -4.575  -0.485   0.756  0.00  0.00    -0.000 C 
BRANCH   7  11
ATOM     11  C   UNL     1      -2.603   2.313  -0.887  0.00  0.00    +0.029 C 
ATOM     12  C   UNL     1      -2.096   3.312   0.150  0.00  0.00    +0.005 C 
ENDBRANCH   7  11
ENDBRANCH   1   3
BRANCH   1  13
ATOM     13  O   UNL     1       1.361  -1.318  -2.013  0.00  0.00    -0.379 OA
ATOM     14  H   UNL     1       2.291  -1.438  -2.262  0.00  0.00    +0.211 HD
ENDBRANCH   1  13
BRANCH   1  15
ATOM     15  C   UNL     1       2.118  -0.353   0.084  0.00  0.00    -0.044 C 
BRANCH  15  16
ATOM     16  N   UNL     1       3.514  -0.548  -0.266  0.00  0.00    +0.388 N 
ATOM     17  H   UNL     1       3.808  -1.478   0.034  0.00  0.00    -0.084 HD
ATOM     18  H   UNL     1       3.616  -0.455  -1.276  0.00  0.00    -0.084 HD
BRANCH  16  19
ATOM     19  C   UNL     1       4.356   0.458   0.390  0.00  0.00    -0.046 C 
ATOM     20  C   UNL     1       5.813   0.217  -0.018  0.00  0.00    -0.022 C 
ATOM     21  C   UNL     1       3.904   1.848  -0.072  0.00  0.00    -0.022 C 
ATOM     22  C   UNL     1       4.207   0.334   1.910  0.00  0.00    -0.022 C 
ENDBRANCH  16  19
ENDBRANCH  15  16
ENDBRANCH   1  15
TORSDOF 6
