REMARK  Name = 6914659
REMARK  10 active torsions:
REMARK  status: ('A' for Active; 'I' for Inactive)
REMARK    1  A    between atoms: C_1  and  C_3
REMARK    2  A    between atoms: C_1  and  C_7
REMARK    3  A    between atoms: C_1  and  C_10
REMARK    4  A    between atoms: C_1  and  C_23
REMARK    5  A    between atoms: C_3  and  O_4
REMARK    6  A    between atoms: C_7  and  O_8
REMARK    7  A    between atoms: C_10  and  C_11
REMARK    8  A    between atoms: C_16  and  N_17
REMARK    9  A    between atoms: N_17  and  S_19
REMARK   10  A    between atoms: C_23  and  C_24
REMARK                            x       y       z     vdW  Elec       q    Type
REMARK                         _______ _______ _______ _____ _____    ______ ____
ROOT
ATOM      1  C   UNL     1      -1.310  -0.127   0.787  0.00  0.00    +0.186 C 
ENDROOT
BRANCH   1   3
ATOM      2  O   UNL     1      -0.816   1.276  -1.173  0.00  0.00    -0.250 OA
ATOM      3  C   UNL     1      -1.049   1.198   0.027  0.00  0.00    +0.327 C 
BRANCH   3   4
ATOM      4  O   UNL     1      -1.066   2.262   0.886  0.00  0.00    -0.444 OA
ATOM      5  C   UNL     1      -0.786   3.538   0.301  0.00  0.00    +0.256 C 
ENDBRANCH   3   4
ENDBRANCH   1   3
BRANCH   1   7
ATOM      6  O   UNL     1      -1.000  -1.241  -1.376  0.00  0.00    -0.250 OA
ATOM      7  C   UNL     1      -1.235  -1.334  -0.176  0.00  0.00    +0.327 C 
BRANCH   7   8
ATOM      8  O   UNL     1      -1.535  -2.501   0.465  0.00  0.00    -0.444 OA
ATOM      9  C   UNL     1      -1.568  -3.674  -0.355  0.00  0.00    +0.256 C 
ENDBRANCH   7   8
ENDBRANCH   1   7
BRANCH   1  10
ATOM     10  C   UNL     1      -0.272  -0.224   1.948  0.00  0.00    +0.048 C 
BRANCH  10  11
ATOM     11  C   UNL     1       1.187  -0.226   1.536  0.00  0.00    -0.021 C 
ATOM     12  C   UNL     1       1.882   0.979   1.425  0.00  0.00    -0.003 C 
ATOM     13  C   UNL     1       1.834  -1.432   1.266  0.00  0.00    -0.003 C 
ATOM     14  C   UNL     1       3.224   0.977   1.045  0.00  0.00    +0.016 C 
ATOM     15  C   UNL     1       3.176  -1.434   0.887  0.00  0.00    +0.016 C 
ATOM     16  C   UNL     1       3.871  -0.230   0.776  0.00  0.00    +0.065 C 
BRANCH  16  17
ATOM     17  N   UNL     1       5.245  -0.231   0.388  0.00  0.00    -0.213 N 
ATOM     18  H   UNL     1       5.957  -0.508   1.009  0.00  0.00    +0.174 HD
BRANCH  17  19
ATOM     19  S   UNL     1       5.596   0.278  -1.231  0.00  0.00    +0.091 S 
ATOM     20  O   UNL     1       5.152  -0.986  -2.161  0.00  0.00    -0.050 OA
ATOM     21  O   UNL     1       4.735   1.398  -1.566  0.00  0.00    -0.050 OA
ATOM     22  O   UNL     1       7.037   0.412  -1.353  0.00  0.00    -0.050 OA
ENDBRANCH  17  19
ENDBRANCH  16  17
ENDBRANCH  10  11
ENDBRANCH   1  10
BRANCH   1  23
ATOM     23  C   UNL     1      -2.778  -0.060   1.330  0.00  0.00    +0.048 C 
BRANCH  23  24
ATOM     24  C   UNL     1      -3.893   0.091   0.320  0.00  0.00    -0.021 C 
ATOM     25  C   UNL     1      -4.320   1.363  -0.062  0.00  0.00    -0.004 C 
ATOM     26  C   UNL     1      -4.493  -1.041  -0.231  0.00  0.00    -0.004 C 
ATOM     27  C   UNL     1      -5.349   1.502  -0.994  0.00  0.00    -0.000 C 
ATOM     28  C   UNL     1      -5.521  -0.901  -1.163  0.00  0.00    -0.000 C 
ATOM     29  C   UNL     1      -5.949   0.370  -1.544  0.00  0.00    -0.000 C 
ENDBRANCH  23  24
ENDBRANCH   1  23
TORSDOF 10
