REMARK  Name = 60149
REMARK  5 active torsions:
REMARK  status: ('A' for Active; 'I' for Inactive)
REMARK    1  A    between atoms: N_2  and  C_12
REMARK    2  A    between atoms: C_3  and  C_19
REMARK    3  A    between atoms: N_18  and  C_25
REMARK    4  A    between atoms: C_25  and  C_26
REMARK    5  A    between atoms: C_26  and  N_28
REMARK                            x       y       z     vdW  Elec       q    Type
REMARK                         _______ _______ _______ _____ _____    ______ ____
ROOT
ATOM      1 CL   UNL     1       3.228  -5.569   0.179  0.00  0.00    -0.082 Cl
ATOM      2  N   UNL     1       3.144   0.270  -0.007  0.00  0.00    -0.265 N 
ATOM      3  C   UNL     1       1.155  -0.695  -0.134  0.00  0.00    -0.006 C 
ATOM      4  C   UNL     1       2.133  -1.719  -0.026  0.00  0.00    +0.012 C 
ATOM      5  C   UNL     1       1.802   0.515  -0.120  0.00  0.00    +0.065 C 
ATOM      6  C   UNL     1       3.375  -1.086   0.053  0.00  0.00    +0.055 C 
ATOM      7  C   UNL     1       2.085  -3.127   0.013  0.00  0.00    +0.012 C 
ATOM      8  C   UNL     1       4.577  -1.794   0.170  0.00  0.00    +0.016 C 
ATOM      9  C   UNL     1       3.279  -3.847   0.129  0.00  0.00    +0.058 C 
ATOM     10  C   UNL     1       4.505  -3.189   0.206  0.00  0.00    +0.013 C 
ENDROOT
BRANCH   2  12
ATOM     11  F   UNL     1       6.997   4.206   0.187  0.00  0.00    -0.204 F 
ATOM     12  C   UNL     1       4.121   1.268   0.042  0.00  0.00    +0.056 C 
ATOM     13  C   UNL     1       3.807   2.504   0.588  0.00  0.00    +0.017 C 
ATOM     14  C   UNL     1       5.389   1.006  -0.456  0.00  0.00    +0.017 C 
ATOM     15  C   UNL     1       4.782   3.501   0.636  0.00  0.00    +0.031 C 
ATOM     16  C   UNL     1       6.364   2.003  -0.408  0.00  0.00    +0.031 C 
ATOM     17  C   UNL     1       6.061   3.250   0.139  0.00  0.00    +0.140 C 
ENDBRANCH   2  12
BRANCH   3  19
ATOM     18  N   UNL     1      -3.096   0.080  -0.497  0.00  0.00    +0.388 N 
ATOM     19  C   UNL     1      -0.340  -0.893  -0.247  0.00  0.00    +0.019 C 
ATOM     20  C   UNL     1      -1.111  -0.283   0.935  0.00  0.00    -0.018 C 
ATOM     21  C   UNL     1      -0.911  -0.361  -1.571  0.00  0.00    -0.018 C 
ATOM     22  C   UNL     1      -2.620  -0.481   0.775  0.00  0.00    -0.077 C 
ATOM     23  C   UNL     1      -2.428  -0.555  -1.640  0.00  0.00    -0.077 C 
ATOM     24  H   UNL     1      -2.865   1.073  -0.509  0.00  0.00    -0.080 HD
BRANCH  18  25
ATOM     25  C   UNL     1      -4.548  -0.066  -0.608  0.00  0.00    -0.055 C 
BRANCH  25  26
ATOM     26  C   UNL     1      -5.239   0.627   0.557  0.00  0.00    +0.077 C 
BRANCH  26  28
ATOM     27  O   UNL     1      -7.221   2.500  -0.707  0.00  0.00    -0.252 OA
ATOM     28  N   UNL     1      -6.669   0.520   0.452  0.00  0.00    -0.243 N 
ATOM     29  N   UNL     1      -8.832   0.928  -0.065  0.00  0.00    -0.266 N 
ATOM     30  C   UNL     1      -7.398  -0.646   0.920  0.00  0.00    +0.085 C 
ATOM     31  C   UNL     1      -8.860  -0.309   0.673  0.00  0.00    +0.082 C 
ATOM     32  C   UNL     1      -7.531   1.444  -0.170  0.00  0.00    +0.311 C 
ATOM     33  H   UNL     1      -9.630   1.359  -0.449  0.00  0.00    +0.157 HD
ENDBRANCH  26  28
ENDBRANCH  25  26
ENDBRANCH  18  25
ENDBRANCH   3  19
TORSDOF 5
