REMARK  Name = 181428
REMARK  2 active torsions:
REMARK  status: ('A' for Active; 'I' for Inactive)
REMARK    1  A    between atoms: N_2  and  N_6
REMARK    2  A    between atoms: C_3  and  C_15
REMARK                            x       y       z     vdW  Elec       q    Type
REMARK                         _______ _______ _______ _____ _____    ______ ____
ROOT
ATOM      1  O   UNL     1      -1.335   2.528  -0.283  0.00  0.00    -0.269 OA
ATOM      2  N   UNL     1       0.019   0.660  -0.040  0.00  0.00    -0.243 N 
ATOM      3  C   UNL     1      -1.194   1.315  -0.149  0.00  0.00    +0.259 C 
ATOM      4  H   UNL     1       0.054  -0.318   0.066  0.00  0.00    +0.170 HD
ENDROOT
BRANCH   2   6
ATOM      5  O   UNL     1       5.267  -1.175   1.266  0.00  0.00    -0.275 OA
ATOM      6  N   UNL     1       1.183   1.405  -0.084  0.00  0.00    -0.202 NA
ATOM      7  N   UNL     1       3.420  -0.431   0.070  0.00  0.00    -0.277 N 
ATOM      8  C   UNL     1       1.963   1.248   1.149  0.00  0.00    +0.113 C 
ATOM      9  C   UNL     1       1.984   1.075  -1.268  0.00  0.00    +0.113 C 
ATOM     10  C   UNL     1       2.651  -0.113   1.272  0.00  0.00    +0.112 C 
ATOM     11  C   UNL     1       2.679  -0.288  -1.187  0.00  0.00    +0.112 C 
ATOM     12  C   UNL     1       4.707  -0.954   0.189  0.00  0.00    +0.226 C 
ATOM     13  C   UNL     1       5.437  -1.251  -1.097  0.00  0.00    +0.095 C 
ENDBRANCH   2   6
BRANCH   3  15
ATOM     14  F   UNL     1      -5.724  -1.935   0.147  0.00  0.00    -0.204 F 
ATOM     15  C   UNL     1      -2.400   0.449  -0.071  0.00  0.00    +0.055 C 
ATOM     16  C   UNL     1      -3.580   0.994   0.389  0.00  0.00    +0.007 C 
ATOM     17  C   UNL     1      -2.299  -0.870  -0.460  0.00  0.00    +0.007 C 
ATOM     18  C   UNL     1      -4.712   0.182   0.464  0.00  0.00    +0.030 C 
ATOM     19  C   UNL     1      -3.430  -1.682  -0.385  0.00  0.00    +0.030 C 
ATOM     20  C   UNL     1      -4.637  -1.156   0.077  0.00  0.00    +0.140 C 
ENDBRANCH   3  15
TORSDOF 2
