REMARK  Name = 9910224
REMARK  5 active torsions:
REMARK  status: ('A' for Active; 'I' for Inactive)
REMARK    1  A    between atoms: C_2  and  S_18
REMARK    2  A    between atoms: C_3  and  C_7
REMARK    3  A    between atoms: C_10  and  C_16
REMARK    4  A    between atoms: S_18  and  N_21
REMARK    5  A    between atoms: C_25  and  O_30
REMARK                            x       y       z     vdW  Elec       q    Type
REMARK                         _______ _______ _______ _____ _____    ______ ____
ROOT
ATOM      1  N   UNL     1       0.700  -2.295  -2.048  0.00  0.00    -0.242 NA
ATOM      2  C   UNL     1       1.423  -1.924   0.229  0.00  0.00    +0.143 C 
ATOM      3  C   UNL     1       0.488  -1.848  -0.791  0.00  0.00    +0.100 C 
ATOM      4  C   UNL     1       2.656  -2.497  -0.061  0.00  0.00    +0.023 C 
ATOM      5  C   UNL     1       2.913  -2.970  -1.343  0.00  0.00    +0.022 C 
ATOM      6  C   UNL     1       1.911  -2.846  -2.292  0.00  0.00    +0.099 C 
ENDROOT
BRANCH   3   7
ATOM      7  C   UNL     1      -0.824  -1.271  -0.594  0.00  0.00    +0.019 C 
ATOM      8  C   UNL     1      -1.027   0.091  -0.813  0.00  0.00    +0.002 C 
ATOM      9  C   UNL     1      -1.887  -2.078  -0.186  0.00  0.00    +0.002 C 
ATOM     10  C   UNL     1      -3.355  -0.160  -0.215  0.00  0.00    +0.055 C 
ATOM     11  C   UNL     1      -2.293   0.647  -0.623  0.00  0.00    +0.005 C 
ATOM     12  C   UNL     1      -3.152  -1.522   0.003  0.00  0.00    +0.005 C 
BRANCH  10  16
ATOM     13  O   UNL     1      -4.763   1.748  -0.255  0.00  0.00    -0.412 OA
ATOM     14  N   UNL     1      -5.783  -0.147   0.356  0.00  0.00    -0.107 NA
ATOM     15  N   UNL     1      -6.720   0.870   0.379  0.00  0.00    -0.102 NA
ATOM     16  C   UNL     1      -4.663   0.415  -0.018  0.00  0.00    +0.250 C 
ATOM     17  C   UNL     1      -6.080   1.957   0.016  0.00  0.00    +0.306 C 
ENDBRANCH  10  16
ENDBRANCH   3   7
BRANCH   2  18
ATOM     18  S   UNL     1       1.113  -1.335   1.844  0.00  0.00    +0.076 S 
ATOM     19  O   UNL     1       2.270  -1.665   2.666  0.00  0.00    -0.150 OA
ATOM     20  O   UNL     1      -0.203  -1.799   2.264  0.00  0.00    -0.150 OA
BRANCH  18  21
ATOM     21  N   UNL     1       1.081   0.374   1.627  0.00  0.00    -0.194 N 
ATOM     22  N   UNL     1       3.402   0.476   1.220  0.00  0.00    -0.243 NA
ATOM     23  N   UNL     1       3.040   2.630  -0.540  0.00  0.00    -0.372 NA
ATOM     24  C   UNL     1       2.191   0.992   0.954  0.00  0.00    +0.210 C 
ATOM     25  C   UNL     1       2.005   2.045   0.095  0.00  0.00    +0.311 C 
ATOM     26  C   UNL     1       4.259   2.119  -0.279  0.00  0.00    +0.115 C 
ATOM     27  C   UNL     1       4.438   1.061   0.585  0.00  0.00    +0.181 C 
ATOM     28  C   UNL     1       5.427   2.741  -0.962  0.00  0.00    +0.064 C 
ATOM     29  H   UNL     1       0.323   0.912   1.953  0.00  0.00    +0.175 HD
BRANCH  25  30
ATOM     30  O   UNL     1       0.758   2.548  -0.155  0.00  0.00    -0.446 OA
ATOM     31  C   UNL     1       0.675   3.642  -1.063  0.00  0.00    +0.255 C 
ENDBRANCH  25  30
ENDBRANCH  18  21
ENDBRANCH   2  18
TORSDOF 5
