REMARK  Name = 16122570
REMARK  3 active torsions:
REMARK  status: ('A' for Active; 'I' for Inactive)
REMARK    1  A    between atoms: C_2  and  O_11
REMARK    2  A    between atoms: C_2  and  C_14
REMARK    3  A    between atoms: C_14  and  O_15
REMARK                            x       y       z     vdW  Elec       q    Type
REMARK                         _______ _______ _______ _____ _____    ______ ____
ROOT
ATOM      1  O   UNL     1       0.452  -0.932  -0.464  0.00  0.00    -0.446 OA
ATOM      2  C   UNL     1       1.488   0.052  -0.508  0.00  0.00    +0.337 C 
ATOM      3  C   UNL     1      -1.189   0.806   0.010  0.00  0.00    +0.034 C 
ATOM      4  C   UNL     1      -0.831  -0.526  -0.220  0.00  0.00    +0.142 C 
ATOM      5  C   UNL     1       1.091   1.477  -0.259  0.00  0.00    +0.054 C 
ATOM      6  C   UNL     1      -0.169   1.841  -0.011  0.00  0.00    +0.005 C 
ATOM      7  C   UNL     1      -2.529   1.126   0.256  0.00  0.00    +0.003 C 
ATOM      8  C   UNL     1      -1.804  -1.528  -0.203  0.00  0.00    +0.037 C 
ATOM      9  C   UNL     1      -3.500   0.124   0.271  0.00  0.00    +0.000 C 
ATOM     10  C   UNL     1      -3.138  -1.202   0.042  0.00  0.00    +0.003 C 
ENDROOT
BRANCH   2  11
ATOM     11  O   UNL     1       2.233  -0.060  -1.714  0.00  0.00    -0.343 OA
ATOM     12  H   UNL     1       1.666   0.166  -2.468  0.00  0.00    +0.215 HD
ENDBRANCH   2  11
BRANCH   2  14
ATOM     13  O   UNL     1       3.600  -0.674   0.416  0.00  0.00    -0.243 OA
ATOM     14  C   UNL     1       2.445  -0.314   0.586  0.00  0.00    +0.383 C 
BRANCH  14  15
ATOM     15  O   UNL     1       1.853  -0.192   1.799  0.00  0.00    -0.476 OA
ATOM     16  H   UNL     1       0.962   0.090   1.860  0.00  0.00    +0.295 HD
ENDBRANCH  14  15
ENDBRANCH   2  14
TORSDOF 3
