REMARK  Name = 9913881
REMARK  12 active torsions:
REMARK  status: ('A' for Active; 'I' for Inactive)
REMARK    1  A    between atoms: N_2  and  C_5
REMARK    2  A    between atoms: C_3  and  C_24
REMARK    3  A    between atoms: C_5  and  C_8
REMARK    4  A    between atoms: C_5  and  C_20
REMARK    5  A    between atoms: N_7  and  C_10
REMARK    6  A    between atoms: C_10  and  C_13
REMARK    7  A    between atoms: C_10  and  C_16
REMARK    8  A    between atoms: C_20  and  C_21
REMARK    9  A    between atoms: C_24  and  S_25
REMARK   10  A    between atoms: C_24  and  C_27
REMARK   11  A    between atoms: C_27  and  C_28
REMARK   12  A    between atoms: C_28  and  N_32
REMARK                            x       y       z     vdW  Elec       q    Type
REMARK                         _______ _______ _______ _____ _____    ______ ____
ROOT
ATOM      1  O   UNL     1      -0.158  -1.737  -1.912  0.00  0.00    -0.274 OA
ATOM      2  N   UNL     1      -0.971  -2.392   0.160  0.00  0.00    -0.298 N 
ATOM      3  C   UNL     1      -0.016  -2.336  -0.848  0.00  0.00    +0.232 C 
ATOM      4  H   UNL     1      -0.764  -2.899   0.979  0.00  0.00    +0.150 HD
ENDROOT
BRANCH   2   5
ATOM      5  C   UNL     1      -2.250  -1.739   0.056  0.00  0.00    +0.149 C 
BRANCH   5   8
ATOM      6  O   UNL     1      -1.292  -0.001   1.450  0.00  0.00    -0.273 OA
ATOM      7  N   UNL     1      -2.821   0.597  -0.193  0.00  0.00    -0.297 N 
ATOM      8  C   UNL     1      -2.063  -0.305   0.542  0.00  0.00    +0.241 C 
ATOM      9  H   UNL     1      -3.408   0.247  -0.900  0.00  0.00    +0.150 HD
BRANCH   7  10
ATOM     10  C   UNL     1      -2.789   2.024   0.030  0.00  0.00    +0.148 C 
BRANCH  10  13
ATOM     11  O   UNL     1      -5.210   1.859   0.085  0.00  0.00    -0.273 OA
ATOM     12  N   UNL     1      -4.173   3.358   1.515  0.00  0.00    -0.301 N 
ATOM     13  C   UNL     1      -4.190   2.391   0.520  0.00  0.00    +0.240 C 
ATOM     14  C   UNL     1      -5.383   3.835   2.139  0.00  0.00    +0.111 C 
ATOM     15  H   UNL     1      -3.308   3.730   1.803  0.00  0.00    +0.150 HD
ENDBRANCH  10  13
BRANCH  10  16
ATOM     16  C   UNL     1      -2.320   2.821  -1.224  0.00  0.00    +0.025 C 
ATOM     17  C   UNL     1      -2.233   4.335  -0.954  0.00  0.00    +0.002 C 
ATOM     18  C   UNL     1      -3.283   2.590  -2.405  0.00  0.00    +0.002 C 
ATOM     19  C   UNL     1      -0.923   2.323  -1.656  0.00  0.00    +0.002 C 
ENDBRANCH  10  16
ENDBRANCH   7  10
ENDBRANCH   5   8
BRANCH   5  20
ATOM     20  C   UNL     1      -3.331  -2.443   0.885  0.00  0.00    +0.029 C 
BRANCH  20  21
ATOM     21  C   UNL     1      -3.572  -3.921   0.512  0.00  0.00    +0.002 C 
ATOM     22  C   UNL     1      -4.011  -4.018  -0.951  0.00  0.00    +0.000 C 
ATOM     23  C   UNL     1      -4.619  -4.584   1.409  0.00  0.00    +0.000 C 
ENDBRANCH  20  21
ENDBRANCH   5  20
ENDBRANCH   2   5
BRANCH   3  24
ATOM     24  C   UNL     1       1.263  -3.083  -0.488  0.00  0.00    +0.122 C 
BRANCH  24  25
ATOM     25  S   UNL     1       1.449  -4.425  -1.716  0.00  0.00    -0.160 S 
ATOM     26  H   UNL     1       2.579  -5.132  -1.447  0.00  0.00    +0.103 HD
ENDBRANCH  24  25
BRANCH  24  27
ATOM     27  C   UNL     1       2.500  -2.178  -0.530  0.00  0.00    +0.042 C 
BRANCH  27  28
ATOM     28  C   UNL     1       2.384  -1.014   0.454  0.00  0.00    +0.104 C 
BRANCH  28  32
ATOM     29  O   UNL     1       2.924   1.290  -1.286  0.00  0.00    -0.273 OA
ATOM     30  O   UNL     1       4.814  -1.184   2.101  0.00  0.00    -0.252 OA
ATOM     31  N   UNL     1       5.570   0.682   0.894  0.00  0.00    -0.257 N 
ATOM     32  N   UNL     1       3.551  -0.174   0.417  0.00  0.00    -0.213 N 
ATOM     33  C   UNL     1       5.083   1.546  -0.177  0.00  0.00    +0.131 C 
ATOM     34  C   UNL     1       3.721   0.898  -0.442  0.00  0.00    +0.249 C 
ATOM     35  C   UNL     1       4.660  -0.328   1.238  0.00  0.00    +0.313 C 
ATOM     36  C   UNL     1       4.881   2.988   0.282  0.00  0.00    +0.029 C 
ATOM     37  C   UNL     1       5.943   1.458  -1.435  0.00  0.00    +0.029 C 
ATOM     38  C   UNL     1       6.863   0.866   1.528  0.00  0.00    +0.117 C 
ENDBRANCH  28  32
ENDBRANCH  27  28
ENDBRANCH  24  27
ENDBRANCH   3  24
TORSDOF 12
