REMARK  Name = 24768548
REMARK  12 active torsions:
REMARK  status: ('A' for Active; 'I' for Inactive)
REMARK    1  A    between atoms: C_1  and  C_2
REMARK    2  A    between atoms: C_1  and  C_17
REMARK    3  A    between atoms: C_2  and  C_4
REMARK    4  A    between atoms: C_2  and  C_14
REMARK    5  A    between atoms: C_14  and  O_15
REMARK    6  A    between atoms: C_17  and  C_18
REMARK    7  A    between atoms: C_18  and  C_19
REMARK    8  A    between atoms: C_19  and  C_20
REMARK    9  A    between atoms: C_20  and  C_21
REMARK   10  A    between atoms: C_21  and  N_23
REMARK   11  A    between atoms: C_24  and  O_26
REMARK   12  A    between atoms: O_26  and  C_27
REMARK                            x       y       z     vdW  Elec       q    Type
REMARK                         _______ _______ _______ _____ _____    ______ ____
ROOT
ATOM      1  C   UNL     1       3.357  -1.992   0.789  0.00  0.00    +0.016 C 
ENDROOT
BRANCH   1   2
ATOM      2  C   UNL     1       3.533  -0.835  -0.220  0.00  0.00    +0.122 C 
BRANCH   2   4
ATOM      3  N   UNL     1       2.832   2.315   1.571  0.00  0.00    -0.312 N 
ATOM      4  C   UNL     1       3.045   0.499   0.313  0.00  0.00    +0.004 C 
ATOM      5  C   UNL     1       2.009   1.304  -0.239  0.00  0.00    +0.011 C 
ATOM      6  C   UNL     1       3.532   1.147   1.424  0.00  0.00    +0.058 C 
ATOM      7  C   UNL     1       1.896   2.437   0.570  0.00  0.00    +0.048 C 
ATOM      8  C   UNL     1       1.153   1.176  -1.351  0.00  0.00    +0.001 C 
ATOM      9  C   UNL     1       0.966   3.453   0.320  0.00  0.00    +0.015 C 
ATOM     10  C   UNL     1       0.219   2.185  -1.613  0.00  0.00    +0.000 C 
ATOM     11  C   UNL     1       0.129   3.305  -0.789  0.00  0.00    +0.001 C 
ATOM     12  H   UNL     1       2.978   2.972   2.289  0.00  0.00    +0.152 HD
ENDBRANCH   2   4
BRANCH   2  14
ATOM     13  O   UNL     1       5.686   0.261  -0.575  0.00  0.00    -0.250 OA
ATOM     14  C   UNL     1       4.991  -0.743  -0.654  0.00  0.00    +0.317 C 
BRANCH  14  15
ATOM     15  O   UNL     1       5.457  -1.923  -1.143  0.00  0.00    -0.480 OA
ATOM     16  H   UNL     1       4.891  -2.669  -1.186  0.00  0.00    +0.295 HD
ENDBRANCH  14  15
ENDBRANCH   2  14
ENDBRANCH   1   2
BRANCH   1  17
ATOM     17  C   UNL     1       1.903  -2.161   1.250  0.00  0.00    +0.001 C 
BRANCH  17  18
ATOM     18  C   UNL     1       0.945  -2.542   0.116  0.00  0.00    +0.000 C 
BRANCH  18  19
ATOM     19  C   UNL     1      -0.489  -2.791   0.592  0.00  0.00    +0.002 C 
BRANCH  19  20
ATOM     20  C   UNL     1      -1.461  -3.102  -0.550  0.00  0.00    +0.021 C 
BRANCH  20  21
ATOM     21  C   UNL     1      -2.905  -3.269  -0.090  0.00  0.00    +0.093 C 
BRANCH  21  23
ATOM     22  O   UNL     1      -4.245  -1.001  -1.313  0.00  0.00    -0.226 OA
ATOM     23  N   UNL     1      -3.392  -2.080   0.556  0.00  0.00    -0.271 N 
ATOM     24  C   UNL     1      -4.021  -1.044  -0.107  0.00  0.00    +0.401 C 
ATOM     25  H   UNL     1      -3.269  -1.999   1.530  0.00  0.00    +0.153 HD
BRANCH  24  26
ATOM     26  O   UNL     1      -4.364  -0.063   0.780  0.00  0.00    -0.442 OA
BRANCH  26  27
ATOM     27  C   UNL     1      -5.028   1.078   0.225  0.00  0.00    +0.138 C 
ATOM     28  C   UNL     1      -6.324   0.612  -0.437  0.00  0.00    +0.044 C 
ATOM     29  C   UNL     1      -5.326   2.041   1.372  0.00  0.00    +0.044 C 
ATOM     30  C   UNL     1      -4.099   1.732  -0.797  0.00  0.00    +0.044 C 
ENDBRANCH  26  27
ENDBRANCH  24  26
ENDBRANCH  21  23
ENDBRANCH  20  21
ENDBRANCH  19  20
ENDBRANCH  18  19
ENDBRANCH  17  18
ENDBRANCH   1  17
TORSDOF 12
