REMARK  Name = 4969
REMARK  9 active torsions:
REMARK  status: ('A' for Active; 'I' for Inactive)
REMARK    1  A    between atoms: N_1  and  C_4
REMARK    2  A    between atoms: N_1  and  C_16
REMARK    3  A    between atoms: C_4  and  C_6
REMARK    4  A    between atoms: C_6  and  C_9
REMARK    5  A    between atoms: C_16  and  C_17
REMARK    6  A    between atoms: C_17  and  C_18
REMARK    7  A    between atoms: C_17  and  O_28
REMARK    8  A    between atoms: C_21  and  O_24
REMARK    9  A    between atoms: C_23  and  O_26
REMARK                            x       y       z     vdW  Elec       q    Type
REMARK                         _______ _______ _______ _____ _____    ______ ____
ROOT
ATOM      1  N   UNL     1       1.020   2.160   0.368  0.00  0.00    +0.387 N 
ATOM      2  H   UNL     1       0.563   1.261   0.218  0.00  0.00    -0.084 HD
ATOM      3  H   UNL     1       1.067   2.369   1.366  0.00  0.00    -0.084 HD
ENDROOT
BRANCH   1   4
ATOM      4  C   UNL     1       0.246   3.211  -0.299  0.00  0.00    -0.057 C 
ATOM      5  C   UNL     1       0.939   4.551  -0.048  0.00  0.00    -0.023 C 
BRANCH   4   6
ATOM      6  C   UNL     1      -1.214   3.201   0.209  0.00  0.00    +0.005 C 
BRANCH   6   9
ATOM      7  O   UNL     1      -2.613  -1.327   1.592  0.00  0.00    -0.435 OA
ATOM      8  O   UNL     1      -3.839  -1.697  -0.449  0.00  0.00    -0.435 OA
ATOM      9  C   UNL     1      -1.926   1.907   0.001  0.00  0.00    -0.021 C 
ATOM     10  C   UNL     1      -1.877   0.921   0.989  0.00  0.00    +0.036 C 
ATOM     11  C   UNL     1      -2.642   1.691  -1.190  0.00  0.00    -0.001 C 
ATOM     12  C   UNL     1      -2.550  -0.259   0.751  0.00  0.00    +0.176 C 
ATOM     13  C   UNL     1      -3.251  -0.471  -0.415  0.00  0.00    +0.176 C 
ATOM     14  C   UNL     1      -3.315   0.486  -1.407  0.00  0.00    +0.040 C 
ATOM     15  C   UNL     1      -3.431  -2.234   0.826  0.00  0.00    +0.429 C 
ENDBRANCH   6   9
ENDBRANCH   4   6
ENDBRANCH   1   4
BRANCH   1  16
ATOM     16  C   UNL     1       2.372   2.104  -0.162  0.00  0.00    -0.047 C 
BRANCH  16  17
ATOM     17  C   UNL     1       3.194   1.013   0.524  0.00  0.00    +0.112 C 
BRANCH  17  18
ATOM     18  C   UNL     1       2.569  -0.352   0.353  0.00  0.00    +0.005 C 
ATOM     19  C   UNL     1       2.337  -0.835  -0.924  0.00  0.00    +0.038 C 
ATOM     20  C   UNL     1       2.239  -1.092   1.476  0.00  0.00    +0.001 C 
ATOM     21  C   UNL     1       1.760  -2.095  -1.083  0.00  0.00    +0.167 C 
ATOM     22  C   UNL     1       1.661  -2.351   1.318  0.00  0.00    +0.040 C 
ATOM     23  C   UNL     1       1.422  -2.853   0.039  0.00  0.00    +0.167 C 
BRANCH  21  24
ATOM     24  O   UNL     1       1.531  -2.574  -2.337  0.00  0.00    -0.503 OA
ATOM     25  H   UNL     1       1.761  -2.059  -3.085  0.00  0.00    +0.292 HD
ENDBRANCH  21  24
BRANCH  23  26
ATOM     26  O   UNL     1       0.857  -4.084  -0.103  0.00  0.00    -0.503 OA
ATOM     27  H   UNL     1       0.693  -4.429  -0.958  0.00  0.00    +0.292 HD
ENDBRANCH  23  26
ENDBRANCH  17  18
BRANCH  17  28
ATOM     28  O   UNL     1       4.510   0.981  -0.029  0.00  0.00    -0.382 OA
ATOM     29  H   UNL     1       4.926   1.851   0.074  0.00  0.00    +0.211 HD
ENDBRANCH  17  28
ENDBRANCH  16  17
ENDBRANCH   1  16
TORSDOF 9
