REMARK  Name = 1540
REMARK  4 active torsions:
REMARK  status: ('A' for Active; 'I' for Inactive)
REMARK    1  A    between atoms: N_5  and  C_14
REMARK    2  A    between atoms: C_6  and  O_20
REMARK    3  A    between atoms: O_20  and  C_21
REMARK    4  A    between atoms: C_21  and  C_22
REMARK                            x       y       z     vdW  Elec       q    Type
REMARK                         _______ _______ _______ _____ _____    ______ ____
ROOT
ATOM      1  N   UNL     1       0.859  -0.440  -0.065  0.00  0.00    -0.293 NA
ATOM      2  N   UNL     1      -0.275  -3.937  -0.146  0.00  0.00    -0.266 NA
ATOM      3  N   UNL     1       2.658  -2.076   0.131  0.00  0.00    -0.316 NA
ATOM      4  N   UNL     1       1.897  -4.385   0.076  0.00  0.00    -0.296 N 
ATOM      5  N   UNL     1       3.095   0.222   0.153  0.00  0.00    -0.238 N 
ATOM      6  C   UNL     1      -0.075  -1.412  -0.150  0.00  0.00    +0.288 C 
ATOM      7  C   UNL     1       0.350  -2.724  -0.095  0.00  0.00    +0.215 C 
ATOM      8  C   UNL     1       1.698  -3.028   0.043  0.00  0.00    +0.196 C 
ATOM      9  C   UNL     1       2.150  -0.826   0.068  0.00  0.00    +0.207 C 
ATOM     10  C   UNL     1       0.693  -4.901  -0.040  0.00  0.00    +0.164 C 
ATOM     11  H   UNL     1      -1.243  -4.091  -0.242  0.00  0.00    +0.126 HD
ATOM     12  H   UNL     1       2.752  -4.865   0.167  0.00  0.00    +0.150 HD
ATOM     13  H   UNL     1       4.024  -0.088   0.249  0.00  0.00    +0.166 HD
ENDROOT
BRANCH   5  14
ATOM     14  C   UNL     1       2.966   1.622   0.128  0.00  0.00    +0.058 C 
ATOM     15  C   UNL     1       3.998   2.413  -0.382  0.00  0.00    +0.015 C 
ATOM     16  C   UNL     1       1.804   2.229   0.613  0.00  0.00    +0.015 C 
ATOM     17  C   UNL     1       3.870   3.802  -0.406  0.00  0.00    +0.001 C 
ATOM     18  C   UNL     1       1.677   3.618   0.588  0.00  0.00    +0.001 C 
ATOM     19  C   UNL     1       2.709   4.404   0.079  0.00  0.00    +0.000 C 
ENDBRANCH   5  14
BRANCH   6  20
ATOM     20  O   UNL     1      -1.394  -1.055  -0.285  0.00  0.00    -0.453 OA
BRANCH  20  21
ATOM     21  C   UNL     1      -1.684   0.330  -0.327  0.00  0.00    +0.208 C 
BRANCH  21  22
ATOM     22  C   UNL     1      -3.194   0.504  -0.475  0.00  0.00    +0.044 C 
ATOM     23  C   UNL     1      -3.933  -0.145   0.703  0.00  0.00    +0.004 C 
ATOM     24  C   UNL     1      -3.559   1.990  -0.598  0.00  0.00    +0.004 C 
ATOM     25  C   UNL     1      -5.442   0.062   0.605  0.00  0.00    +0.000 C 
ATOM     26  C   UNL     1      -5.069   2.193  -0.693  0.00  0.00    +0.000 C 
ATOM     27  C   UNL     1      -5.800   1.539   0.475  0.00  0.00    +0.000 C 
ENDBRANCH  21  22
ENDBRANCH  20  21
ENDBRANCH   6  20
TORSDOF 4
