REMARK  Name = 176885
REMARK  6 active torsions:
REMARK  status: ('A' for Active; 'I' for Inactive)
REMARK    1  A    between atoms: C_2  and  O_16
REMARK    2  A    between atoms: C_2  and  C_20
REMARK    3  A    between atoms: C_3  and  O_18
REMARK    4  A    between atoms: C_4  and  C_22
REMARK    5  A    between atoms: C_5  and  N_7
REMARK    6  A    between atoms: C_22  and  O_23
REMARK                            x       y       z     vdW  Elec       q    Type
REMARK                         _______ _______ _______ _____ _____    ______ ____
ROOT
ATOM      1  O   UNL     1      -0.766  -0.893   1.281  0.00  0.00    -0.331 OA
ATOM      2  C   UNL     1      -2.428   0.362   0.154  0.00  0.00    +0.198 C 
ATOM      3  C   UNL     1      -1.075   0.996  -0.134  0.00  0.00    +0.197 C 
ATOM      4  C   UNL     1      -2.024  -1.052   0.584  0.00  0.00    +0.185 C 
ATOM      5  C   UNL     1      -0.184   0.373   0.931  0.00  0.00    +0.237 C 
ENDROOT
BRANCH   5   7
ATOM      6  O   UNL     1       1.620   2.395   0.161  0.00  0.00    -0.193 OA
ATOM      7  N   UNL     1       1.155   0.155   0.462  0.00  0.00    -0.178 N 
ATOM      8  N   UNL     1       3.286   0.941  -0.351  0.00  0.00    -0.306 NA
ATOM      9  N   UNL     1       4.989  -0.553  -0.876  0.00  0.00    -0.332 N 
ATOM     10  C   UNL     1       1.624  -1.147   0.369  0.00  0.00    +0.083 C 
ATOM     11  C   UNL     1       2.006   1.227   0.092  0.00  0.00    +0.276 C 
ATOM     12  C   UNL     1       2.851  -1.442  -0.056  0.00  0.00    +0.065 C 
ATOM     13  C   UNL     1       3.713  -0.291  -0.433  0.00  0.00    +0.193 C 
ATOM     14  H   UNL     1       5.583   0.189  -1.133  0.00  0.00    +0.145 HD
ATOM     15  H   UNL     1       5.308  -1.483  -0.937  0.00  0.00    +0.145 HD
ENDBRANCH   5   7
BRANCH   2  16
ATOM     16  O   UNL     1      -3.054   1.014   1.261  0.00  0.00    -0.371 OA
ATOM     17  H   UNL     1      -2.461   0.990   2.028  0.00  0.00    +0.212 HD
ENDBRANCH   2  16
BRANCH   3  18
ATOM     18  O   UNL     1      -1.085   2.408  -0.016  0.00  0.00    -0.377 OA
ATOM     19  H   UNL     1      -1.657   2.785  -0.702  0.00  0.00    +0.211 HD
ENDBRANCH   3  18
BRANCH   2  20
ATOM     20  C   UNL     1      -3.341   0.410  -0.990  0.00  0.00    -0.047 C 
ATOM     21  C   UNL     1      -4.089   0.450  -1.928  0.00  0.00    -0.012 C 
ENDBRANCH   2  20
BRANCH   4  22
ATOM     22  C   UNL     1      -1.784  -2.056  -0.542  0.00  0.00    +0.170 C 
BRANCH  22  23
ATOM     23  O   UNL     1      -1.412  -3.295   0.031  0.00  0.00    -0.379 OA
ATOM     24  H   UNL     1      -1.256  -3.943  -0.673  0.00  0.00    +0.211 HD
ENDBRANCH  22  23
ENDBRANCH   4  22
TORSDOF 6
