REMARK  Name = 44141860
REMARK  7 active torsions:
REMARK  status: ('A' for Active; 'I' for Inactive)
REMARK    1  A    between atoms: C_3  and  C_10
REMARK    2  A    between atoms: C_7  and  C_25
REMARK    3  A    between atoms: N_9  and  C_12
REMARK    4  A    between atoms: C_12  and  C_13
REMARK    5  A    between atoms: C_18  and  C_21
REMARK    6  A    between atoms: C_25  and  N_26
REMARK    7  A    between atoms: N_26  and  C_29
REMARK                            x       y       z     vdW  Elec       q    Type
REMARK                         _______ _______ _______ _____ _____    ______ ____
ROOT
ATOM      1  O   UNL     1      -2.978   2.719  -1.138  0.00  0.00    -0.277 OA
ATOM      2  N   UNL     1      -3.598   0.710  -0.179  0.00  0.00    -0.275 N 
ATOM      3  C   UNL     1      -3.423  -0.400   0.754  0.00  0.00    +0.152 C 
ATOM      4  C   UNL     1      -4.836  -0.924   0.993  0.00  0.00    +0.031 C 
ATOM      5  C   UNL     1      -4.945   0.719  -0.736  0.00  0.00    +0.094 C 
ATOM      6  C   UNL     1      -5.557  -0.607  -0.315  0.00  0.00    +0.024 C 
ATOM      7  C   UNL     1      -2.709   1.741  -0.438  0.00  0.00    +0.204 C 
ENDROOT
BRANCH   3  10
ATOM      8  O   UNL     1      -2.573  -1.585  -1.136  0.00  0.00    -0.273 OA
ATOM      9  N   UNL     1      -1.853  -2.193   0.993  0.00  0.00    -0.299 N 
ATOM     10  C   UNL     1      -2.577  -1.440   0.084  0.00  0.00    +0.241 C 
ATOM     11  H   UNL     1      -1.940  -1.981   1.950  0.00  0.00    +0.150 HD
BRANCH   9  12
ATOM     12  C   UNL     1      -0.978  -3.275   0.604  0.00  0.00    +0.116 C 
BRANCH  12  13
ATOM     13  C   UNL     1       0.423  -2.800   0.350  0.00  0.00    -0.003 C 
ATOM     14  C   UNL     1       1.006  -2.986  -0.904  0.00  0.00    -0.003 C 
ATOM     15  C   UNL     1       1.143  -2.174   1.367  0.00  0.00    -0.003 C 
ATOM     16  C   UNL     1       2.308  -2.545  -1.141  0.00  0.00    +0.002 C 
ATOM     17  C   UNL     1       2.446  -1.734   1.131  0.00  0.00    +0.002 C 
ATOM     18  C   UNL     1       3.028  -1.919  -0.123  0.00  0.00    +0.031 C 
BRANCH  18  21
ATOM     19  N   UNL     1       4.994  -1.628  -1.611  0.00  0.00    -0.343 N 
ATOM     20  N   UNL     1       5.066  -0.869   0.598  0.00  0.00    -0.285 NA
ATOM     21  C   UNL     1       4.385  -1.458  -0.369  0.00  0.00    +0.117 C 
ATOM     22  H   UNL     1       5.914  -1.308  -1.756  0.00  0.00    +0.144 HD
ATOM     23  H   UNL     1       4.504  -2.067  -2.344  0.00  0.00    +0.144 HD
ATOM     24  H   UNL     1       5.985  -0.557   0.433  0.00  0.00    +0.188 HD
ENDBRANCH  18  21
ENDBRANCH  12  13
ENDBRANCH   9  12
ENDBRANCH   3  10
BRANCH   7  25
ATOM     25  C   UNL     1      -1.346   1.616   0.196  0.00  0.00    +0.006 C 
BRANCH  25  26
ATOM     26  N   UNL     1      -0.606   2.794  -0.201  0.00  0.00    +0.391 N 
ATOM     27  H   UNL     1      -0.550   2.824  -1.219  0.00  0.00    -0.084 HD
ATOM     28  H   UNL     1      -1.092   3.616   0.158  0.00  0.00    -0.084 HD
BRANCH  26  29
ATOM     29  C   UNL     1       0.748   2.781   0.351  0.00  0.00    -0.061 C 
ATOM     30  C   UNL     1       1.641   1.855  -0.483  0.00  0.00    -0.021 C 
ATOM     31  C   UNL     1       1.310   4.206   0.386  0.00  0.00    -0.021 C 
ATOM     32  C   UNL     1       3.084   1.875   0.017  0.00  0.00    -0.002 C 
ATOM     33  C   UNL     1       2.753   4.223   0.886  0.00  0.00    -0.002 C 
ATOM     34  C   UNL     1       3.644   3.295   0.066  0.00  0.00    -0.000 C 
ENDBRANCH  26  29
ENDBRANCH  25  26
ENDBRANCH   7  25
TORSDOF 7
