REMARK  Name = 6151
REMARK  8 active torsions:
REMARK  status: ('A' for Active; 'I' for Inactive)
REMARK    1  A    between atoms: C_1  and  C_3
REMARK    2  A    between atoms: C_1  and  C_7
REMARK    3  A    between atoms: C_1  and  C_14
REMARK    4  A    between atoms: C_3  and  C_5
REMARK    5  A    between atoms: C_7  and  O_8
REMARK    6  A    between atoms: O_8  and  C_11
REMARK    7  A    between atoms: C_14  and  O_15
REMARK    8  A    between atoms: O_15  and  C_18
REMARK                            x       y       z     vdW  Elec       q    Type
REMARK                         _______ _______ _______ _____ _____    ______ ____
ROOT
ATOM      1  C   UNL     1      -0.428  -0.573   0.656  0.00  0.00    +0.081 C 
ATOM      2  C   UNL     1      -0.255  -1.212   2.051  0.00  0.00    +0.007 C 
ENDROOT
BRANCH   1   3
ATOM      3  C   UNL     1      -1.694  -1.153  -0.105  0.00  0.00    +0.007 C 
ATOM      4  C   UNL     1      -3.016  -0.911   0.647  0.00  0.00    +0.000 C 
BRANCH   3   5
ATOM      5  C   UNL     1      -1.563  -2.658  -0.460  0.00  0.00    +0.000 C 
ATOM      6  C   UNL     1      -2.746  -3.215  -1.244  0.00  0.00    +0.000 C 
ENDBRANCH   3   5
ENDBRANCH   1   3
BRANCH   1   7
ATOM      7  C   UNL     1      -0.552   0.962   0.871  0.00  0.00    +0.213 C 
BRANCH   7   8
ATOM      8  O   UNL     1      -0.723   1.632  -0.371  0.00  0.00    -0.435 OA
BRANCH   8  11
ATOM      9  O   UNL     1      -0.817   3.655   0.724  0.00  0.00    -0.227 OA
ATOM     10  N   UNL     1      -1.004   3.527  -1.564  0.00  0.00    -0.295 N 
ATOM     11  C   UNL     1      -0.845   2.994  -0.309  0.00  0.00    +0.398 C 
ATOM     12  H   UNL     1      -1.018   2.937  -2.352  0.00  0.00    +0.148 HD
ATOM     13  H   UNL     1      -1.106   4.500  -1.677  0.00  0.00    +0.148 HD
ENDBRANCH   8  11
ENDBRANCH   7   8
ENDBRANCH   1   7
BRANCH   1  14
ATOM     14  C   UNL     1       0.851  -0.866  -0.186  0.00  0.00    +0.213 C 
BRANCH  14  15
ATOM     15  O   UNL     1       2.034  -0.367   0.429  0.00  0.00    -0.435 OA
BRANCH  15  18
ATOM     16  O   UNL     1       3.290  -1.167  -1.327  0.00  0.00    -0.227 OA
ATOM     17  N   UNL     1       4.268  -0.063   0.437  0.00  0.00    -0.295 N 
ATOM     18  C   UNL     1       3.201  -0.586  -0.251  0.00  0.00    +0.398 C 
ATOM     19  H   UNL     1       4.124   0.392   1.298  0.00  0.00    +0.148 HD
ATOM     20  H   UNL     1       5.178  -0.144   0.069  0.00  0.00    +0.148 HD
ENDBRANCH  15  18
ENDBRANCH  14  15
ENDBRANCH   1  14
TORSDOF 8
