REMARK  Name = 275196
REMARK  4 active torsions:
REMARK  status: ('A' for Active; 'I' for Inactive)
REMARK    1  A    between atoms: C_4  and  C_18
REMARK    2  A    between atoms: C_9  and  O_30
REMARK    3  A    between atoms: C_23  and  O_26
REMARK    4  A    between atoms: C_25  and  O_28
REMARK                            x       y       z     vdW  Elec       q    Type
REMARK                         _______ _______ _______ _____ _____    ______ ____
ROOT
ATOM      1  O   UNL     1       4.364   2.228  -0.242  0.00  0.00    -0.432 OA
ATOM      2  O   UNL     1       5.907   0.561   0.562  0.00  0.00    -0.435 OA
ATOM      3  N   UNL     1       0.282  -2.409  -0.502  0.00  0.00    +0.392 N 
ATOM      4  C   UNL     1       0.557  -0.960  -0.386  0.00  0.00    +0.013 C 
ATOM      5  C   UNL     1       2.014  -0.608  -0.130  0.00  0.00    -0.005 C 
ATOM      6  C   UNL     1       0.967  -3.181   0.540  0.00  0.00    -0.072 C 
ATOM      7  C   UNL     1       2.925  -1.584   0.349  0.00  0.00    -0.024 C 
ATOM      8  C   UNL     1       2.488  -3.015   0.530  0.00  0.00    +0.003 C 
ATOM      9  C   UNL     1       2.456   0.710  -0.348  0.00  0.00    +0.169 C 
ATOM     10  C   UNL     1       0.569  -2.917  -1.844  0.00  0.00    -0.100 C 
ATOM     11  C   UNL     1       4.264  -1.243   0.596  0.00  0.00    +0.036 C 
ATOM     12  C   UNL     1       3.776   1.010  -0.086  0.00  0.00    +0.210 C 
ATOM     13  C   UNL     1       4.656   0.060   0.373  0.00  0.00    +0.179 C 
ATOM     14  C   UNL     1       5.714   1.936   0.172  0.00  0.00    +0.429 C 
ATOM     15  H   UNL     1      -0.719  -2.533  -0.352  0.00  0.00    -0.079 HD
ENDROOT
BRANCH   4  18
ATOM     16  O   UNL     1      -0.242   1.091   0.657  0.00  0.00    -0.446 OA
ATOM     17  O   UNL     1      -1.660   2.891   0.363  0.00  0.00    -0.245 OA
ATOM     18  C   UNL     1      -0.339  -0.358   0.709  0.00  0.00    +0.177 C 
ATOM     19  C   UNL     1      -1.786  -0.586   0.498  0.00  0.00    +0.025 C 
ATOM     20  C   UNL     1      -2.431   0.626   0.354  0.00  0.00    +0.112 C 
ATOM     21  C   UNL     1      -1.452   1.697   0.449  0.00  0.00    +0.344 C 
ATOM     22  C   UNL     1      -2.502  -1.769   0.448  0.00  0.00    +0.003 C 
ATOM     23  C   UNL     1      -3.795   0.728   0.149  0.00  0.00    +0.178 C 
ATOM     24  C   UNL     1      -3.884  -1.700   0.242  0.00  0.00    +0.040 C 
ATOM     25  C   UNL     1      -4.526  -0.460   0.093  0.00  0.00    +0.173 C 
BRANCH  23  26
ATOM     26  O   UNL     1      -4.407   1.930   0.007  0.00  0.00    -0.468 OA
ATOM     27  C   UNL     1      -5.421   2.264   0.957  0.00  0.00    +0.253 C 
ENDBRANCH  23  26
BRANCH  25  28
ATOM     28  O   UNL     1      -5.874  -0.430  -0.106  0.00  0.00    -0.468 OA
ATOM     29  C   UNL     1      -6.330  -0.471  -1.457  0.00  0.00    +0.253 C 
ENDBRANCH  25  28
ENDBRANCH   4  18
BRANCH   9  30
ATOM     30  O   UNL     1       1.651   1.677  -0.860  0.00  0.00    -0.469 OA
ATOM     31  C   UNL     1       2.060   2.283  -2.086  0.00  0.00    +0.253 C 
ENDBRANCH   9  30
TORSDOF 4
