REMARK  Name = 82148
REMARK  4 active torsions:
REMARK  status: ('A' for Active; 'I' for Inactive)
REMARK    1  A    between atoms: C_1  and  C_13
REMARK    2  A    between atoms: C_9  and  O_11
REMARK    3  A    between atoms: C_13  and  C_14
REMARK    4  A    between atoms: C_14  and  N_16
REMARK                            x       y       z     vdW  Elec       q    Type
REMARK                         _______ _______ _______ _____ _____    ______ ____
ROOT
ATOM      1  C   UNL     1       0.027   1.515  -0.338  0.00  0.00    -0.020 C 
ATOM      2  C   UNL     1      -0.985   0.557  -0.164  0.00  0.00    -0.001 C 
ATOM      3  C   UNL     1      -2.302   0.988   0.124  0.00  0.00    -0.000 C 
ATOM      4  C   UNL     1      -0.255   2.877  -0.231  0.00  0.00    -0.004 C 
ATOM      5  C   UNL     1      -0.718  -0.817  -0.268  0.00  0.00    +0.037 C 
ATOM      6  C   UNL     1      -2.568   2.362   0.228  0.00  0.00    -0.000 C 
ATOM      7  C   UNL     1      -3.314   0.030   0.298  0.00  0.00    +0.003 C 
ATOM      8  C   UNL     1      -1.550   3.300   0.052  0.00  0.00    -0.000 C 
ATOM      9  C   UNL     1      -1.736  -1.755  -0.091  0.00  0.00    +0.139 C 
ATOM     10  C   UNL     1      -3.032  -1.332   0.191  0.00  0.00    +0.037 C 
ENDROOT
BRANCH   9  11
ATOM     11  O   UNL     1      -1.463  -3.084  -0.197  0.00  0.00    -0.471 OA
ATOM     12  C   UNL     1      -2.550  -3.988  -0.007  0.00  0.00    +0.252 C 
ENDBRANCH   9  11
BRANCH   1  13
ATOM     13  C   UNL     1       1.441   1.129  -0.644  0.00  0.00    +0.048 C 
BRANCH  13  14
ATOM     14  C   UNL     1       2.299   0.924   0.608  0.00  0.00    +0.094 C 
BRANCH  14  16
ATOM     15  O   UNL     1       3.398  -1.738   0.240  0.00  0.00    -0.275 OA
ATOM     16  N   UNL     1       3.658   0.576   0.290  0.00  0.00    -0.304 N 
ATOM     17  C   UNL     1       4.095  -0.732   0.132  0.00  0.00    +0.223 C 
ATOM     18  C   UNL     1       5.556  -0.812  -0.222  0.00  0.00    +0.095 C 
ATOM     19  H   UNL     1       4.312   1.303   0.179  0.00  0.00    +0.149 HD
ENDBRANCH  14  16
ENDBRANCH  13  14
ENDBRANCH   1  13
TORSDOF 4
