REMARK  Name = 1082702
REMARK  3 active torsions:
REMARK  status: ('A' for Active; 'I' for Inactive)
REMARK    1  A    between atoms: N_1  and  C_3
REMARK    2  A    between atoms: N_1  and  C_9
REMARK    3  A    between atoms: C_9  and  C_11
REMARK                            x       y       z     vdW  Elec       q    Type
REMARK                         _______ _______ _______ _____ _____    ______ ____
ROOT
ATOM      1  N   UNL     1      -0.430   0.329   0.002  0.00  0.00    -0.329 N 
ATOM      2  H   UNL     1      -0.042   1.231   0.071  0.00  0.00    +0.147 HD
ENDROOT
BRANCH   1   3
ATOM      3  C   UNL     1      -1.834   0.196   0.004  0.00  0.00    +0.045 C 
ATOM      4  C   UNL     1      -2.415  -1.068  -0.093  0.00  0.00    +0.014 C 
ATOM      5  C   UNL     1      -2.642   1.329   0.103  0.00  0.00    +0.014 C 
ATOM      6  C   UNL     1      -3.804  -1.200  -0.091  0.00  0.00    +0.001 C 
ATOM      7  C   UNL     1      -4.030   1.198   0.105  0.00  0.00    +0.001 C 
ATOM      8  C   UNL     1      -4.611  -0.067   0.008  0.00  0.00    +0.000 C 
ENDBRANCH   1   3
BRANCH   1   9
ATOM      9  C   UNL     1       0.456  -0.790  -0.096  0.00  0.00    +0.116 C 
BRANCH   9  11
ATOM     10  N   UNL     1       3.888   0.326  -1.181  0.00  0.00    -0.243 NA
ATOM     11  C   UNL     1       1.897  -0.374  -0.026  0.00  0.00    +0.017 C 
ATOM     12  C   UNL     1       2.549  -0.300   1.192  0.00  0.00    +0.001 C 
ATOM     13  C   UNL     1       2.591  -0.057  -1.174  0.00  0.00    +0.096 C 
ATOM     14  C   UNL     1       3.883   0.090   1.225  0.00  0.00    +0.020 C 
ATOM     15  C   UNL     1       4.502   0.389   0.022  0.00  0.00    +0.099 C 
ENDBRANCH   9  11
ENDBRANCH   1   9
TORSDOF 3
