REMARK  Name = 25147644
REMARK  4 active torsions:
REMARK  status: ('A' for Active; 'I' for Inactive)
REMARK    1  A    between atoms: C_3  and  N_11
REMARK    2  A    between atoms: C_4  and  C_23
REMARK    3  A    between atoms: C_12  and  C_15
REMARK    4  A    between atoms: C_23  and  C_25
REMARK                            x       y       z     vdW  Elec       q    Type
REMARK                         _______ _______ _______ _____ _____    ______ ____
ROOT
ATOM      1  N   UNL     1       4.069   0.543  -1.018  0.00  0.00    +0.390 N 
ATOM      2  C   UNL     1       2.604   2.313   0.205  0.00  0.00    +0.012 C 
ATOM      3  C   UNL     1       2.043   0.889   0.410  0.00  0.00    +0.053 C 
ATOM      4  C   UNL     1       2.823  -0.091  -0.504  0.00  0.00    -0.035 C 
ATOM      5  C   UNL     1       2.699   2.611  -1.302  0.00  0.00    -0.021 C 
ATOM      6  C   UNL     1       4.039   2.305   0.759  0.00  0.00    -0.021 C 
ATOM      7  C   UNL     1       3.670   1.615  -1.962  0.00  0.00    -0.077 C 
ATOM      8  C   UNL     1       4.833   1.173   0.084  0.00  0.00    -0.077 C 
ATOM      9  H   UNL     1       4.650  -0.168  -1.464  0.00  0.00    -0.080 HD
ENDROOT
BRANCH   3  11
ATOM     10  O   UNL     1      -0.042   1.372   2.324  0.00  0.00    -0.267 OA
ATOM     11  N   UNL     1       0.622   0.821   0.171  0.00  0.00    -0.302 N 
ATOM     12  C   UNL     1      -0.313   1.072   1.164  0.00  0.00    +0.280 C 
ATOM     13  H   UNL     1       0.305   0.587  -0.731  0.00  0.00    +0.150 HD
BRANCH  12  15
ATOM     14  O   UNL     1      -2.004   0.580  -0.520  0.00  0.00    -0.449 OA
ATOM     15  C   UNL     1      -1.738   0.935   0.764  0.00  0.00    +0.198 C 
ATOM     16  C   UNL     1      -2.903   1.105   1.474  0.00  0.00    +0.045 C 
ATOM     17  C   UNL     1      -3.965   0.838   0.571  0.00  0.00    +0.038 C 
ATOM     18  C   UNL     1      -3.360   0.520  -0.641  0.00  0.00    +0.146 C 
ATOM     19  C   UNL     1      -5.369   0.830   0.642  0.00  0.00    +0.003 C 
ATOM     20  C   UNL     1      -4.058   0.191  -1.801  0.00  0.00    +0.037 C 
ATOM     21  C   UNL     1      -6.099   0.503  -0.509  0.00  0.00    +0.000 C 
ATOM     22  C   UNL     1      -5.453   0.189  -1.707  0.00  0.00    +0.003 C 
ENDBRANCH  12  15
ENDBRANCH   3  11
BRANCH   4  23
ATOM     23  C   UNL     1       3.113  -1.417   0.205  0.00  0.00    +0.009 C 
BRANCH  23  25
ATOM     24  N   UNL     1       0.612  -4.045  -0.865  0.00  0.00    -0.243 NA
ATOM     25  C   UNL     1       1.906  -2.312   0.215  0.00  0.00    -0.005 C 
ATOM     26  C   UNL     1       0.984  -2.259   1.254  0.00  0.00    -0.001 C 
ATOM     27  C   UNL     1       1.677  -3.214  -0.812  0.00  0.00    +0.095 C 
ATOM     28  C   UNL     1      -0.125  -3.099   1.235  0.00  0.00    +0.020 C 
ATOM     29  C   UNL     1      -0.264  -3.966   0.163  0.00  0.00    +0.099 C 
ENDBRANCH  23  25
ENDBRANCH   4  23
TORSDOF 4
