REMARK  Name = 5360621
REMARK  8 active torsions:
REMARK  status: ('A' for Active; 'I' for Inactive)
REMARK    1  A    between atoms: C_11  and  O_23
REMARK    2  A    between atoms: C_18  and  O_21
REMARK    3  A    between atoms: O_23  and  C_25
REMARK    4  A    between atoms: C_26  and  O_30
REMARK    5  A    between atoms: C_27  and  O_32
REMARK    6  A    between atoms: C_28  and  O_34
REMARK    7  A    between atoms: C_29  and  C_37
REMARK    8  A    between atoms: C_37  and  O_38
REMARK                            x       y       z     vdW  Elec       q    Type
REMARK                         _______ _______ _______ _____ _____    ______ ____
ROOT
ATOM      1  O   UNL     1       0.617  -1.247  -0.718  0.00  0.00    -0.473 OA
ATOM      2  N   UNL     1       4.644   2.100  -1.025  0.00  0.00    +0.387 N 
ATOM      3  C   UNL     1       2.164   0.633  -0.673  0.00  0.00    +0.061 C 
ATOM      4  C   UNL     1       2.536   1.850   0.189  0.00  0.00    +0.010 C 
ATOM      5  C   UNL     1       0.674   0.222  -0.733  0.00  0.00    +0.201 C 
ATOM      6  C   UNL     1       4.093   1.846   0.328  0.00  0.00    -0.049 C 
ATOM      7  C   UNL     1       2.799   0.784  -2.070  0.00  0.00    -0.015 C 
ATOM      8  C   UNL     1       2.683  -0.596  -0.002  0.00  0.00    +0.014 C 
ATOM      9  C   UNL     1       4.635   0.553   1.029  0.00  0.00    +0.006 C 
ATOM     10  C   UNL     1       4.309   1.066  -2.009  0.00  0.00    -0.077 C 
ATOM     11  C   UNL     1      -0.203   0.824   0.395  0.00  0.00    +0.180 C 
ATOM     12  C   UNL     1       3.847  -0.696   0.739  0.00  0.00    -0.025 C 
ATOM     13  C   UNL     1       1.788   1.852   1.497  0.00  0.00    -0.030 C 
ATOM     14  C   UNL     1       1.785  -1.632  -0.119  0.00  0.00    +0.168 C 
ATOM     15  C   UNL     1       0.542   1.363   1.587  0.00  0.00    +0.002 C 
ATOM     16  C   UNL     1       6.074   2.392  -1.024  0.00  0.00    -0.101 C 
ATOM     17  C   UNL     1       4.155  -1.947   1.275  0.00  0.00    -0.001 C 
ATOM     18  C   UNL     1       2.071  -2.879   0.394  0.00  0.00    +0.167 C 
ATOM     19  C   UNL     1       3.280  -3.035   1.084  0.00  0.00    +0.039 C 
ATOM     20  H   UNL     1       4.168   2.950  -1.329  0.00  0.00    -0.080 HD
ENDROOT
BRANCH  18  21
ATOM     21  O   UNL     1       1.204  -3.913   0.270  0.00  0.00    -0.503 OA
ATOM     22  H   UNL     1       0.398  -3.797  -0.194  0.00  0.00    +0.292 HD
ENDBRANCH  18  21
BRANCH  11  23
ATOM     23  O   UNL     1      -1.180  -0.127   0.810  0.00  0.00    -0.323 OA
BRANCH  23  25
ATOM     24  O   UNL     1      -3.266   0.888   0.562  0.00  0.00    -0.317 OA
ATOM     25  C   UNL     1      -2.354  -0.054   0.002  0.00  0.00    +0.266 C 
ATOM     26  C   UNL     1      -2.986  -1.446  -0.040  0.00  0.00    +0.196 C 
ATOM     27  C   UNL     1      -4.326  -1.423  -0.776  0.00  0.00    +0.172 C 
ATOM     28  C   UNL     1      -5.221  -0.292  -0.271  0.00  0.00    +0.178 C 
ATOM     29  C   UNL     1      -4.451   1.022  -0.214  0.00  0.00    +0.245 C 
BRANCH  26  30
ATOM     30  O   UNL     1      -2.088  -2.324  -0.718  0.00  0.00    -0.378 OA
ATOM     31  H   UNL     1      -1.237  -2.339  -0.252  0.00  0.00    +0.211 HD
ENDBRANCH  26  30
BRANCH  27  32
ATOM     32  O   UNL     1      -5.010  -2.658  -0.559  0.00  0.00    -0.379 OA
ATOM     33  H   UNL     1      -4.459  -3.393  -0.873  0.00  0.00    +0.211 HD
ENDBRANCH  27  32
BRANCH  28  34
ATOM     34  O   UNL     1      -6.325  -0.138  -1.161  0.00  0.00    -0.379 OA
ATOM     35  H   UNL     1      -6.824  -0.969  -1.205  0.00  0.00    +0.211 HD
ENDBRANCH  28  34
BRANCH  29  37
ATOM     36  O   UNL     1      -4.881   2.590   1.569  0.00  0.00    -0.247 OA
ATOM     37  C   UNL     1      -5.228   2.066   0.520  0.00  0.00    +0.344 C 
BRANCH  37  38
ATOM     38  O   UNL     1      -6.379   2.356  -0.134  0.00  0.00    -0.478 OA
ATOM     39  H   UNL     1      -6.585   1.917  -0.935  0.00  0.00    +0.295 HD
ENDBRANCH  37  38
ENDBRANCH  29  37
ENDBRANCH  23  25
ENDBRANCH  11  23
TORSDOF 8
