REMARK  Name = 471161
REMARK  6 active torsions:
REMARK  status: ('A' for Active; 'I' for Inactive)
REMARK    1  A    between atoms: N_3  and  C1*_15
REMARK    2  A    between atoms: N_4  and  C_26
REMARK    3  A    between atoms: C2*_16  and  O2*_19
REMARK    4  A    between atoms: C3*_17  and  O3*_21
REMARK    5  A    between atoms: C4*_18  and  C5*_23
REMARK    6  A    between atoms: C5*_23  and  O5*_24
REMARK                            x       y       z     vdW  Elec       q    Type
REMARK                         _______ _______ _______ _____ _____    ______ ____
ROOT
ATOM      1 CL   UNL     1       4.968   2.078  -0.322  0.00  0.00    -0.082 Cl
ATOM      2 CL   UNL     1       5.901  -0.903   0.470  0.00  0.00    -0.086 Cl
ATOM      3  N   UNL     1       0.214  -0.035  -0.423  0.00  0.00    -0.224 N 
ATOM      4  N   UNL     1      -1.478  -1.661  -0.261  0.00  0.00    -0.298 N 
ATOM      5  N   UNL     1       0.854  -2.097   0.124  0.00  0.00    -0.376 NA
ATOM      6  C   UNL     1       1.579   0.027  -0.270  0.00  0.00    +0.084 C 
ATOM      7  C   UNL     1      -0.168  -1.328  -0.176  0.00  0.00    +0.243 C 
ATOM      8  C   UNL     1       1.952  -1.270   0.071  0.00  0.00    +0.131 C 
ATOM      9  C   UNL     1       2.487   1.078  -0.397  0.00  0.00    +0.029 C 
ATOM     10  C   UNL     1       3.309  -1.553   0.301  0.00  0.00    +0.099 C 
ATOM     11  C   UNL     1       3.833   0.778  -0.164  0.00  0.00    +0.066 C 
ATOM     12  C   UNL     1       4.239  -0.513   0.179  0.00  0.00    +0.053 C 
ATOM     13  H   UNL     1      -2.117  -0.951  -0.500  0.00  0.00    +0.150 HD
ENDROOT
BRANCH   3  15
ATOM     14  O4* UNL     1      -2.012   0.611  -0.936  0.00  0.00    -0.333 OA
ATOM     15  C1* UNL     1      -0.657   1.085  -0.782  0.00  0.00    +0.229 C 
ATOM     16  C2* UNL     1      -0.675   2.206   0.258  0.00  0.00    +0.187 C 
ATOM     17  C3* UNL     1      -1.996   1.984   0.971  0.00  0.00    +0.171 C 
ATOM     18  C4* UNL     1      -2.876   1.440  -0.142  0.00  0.00    +0.175 C 
BRANCH  16  19
ATOM     19  O2* UNL     1      -0.653   3.466  -0.412  0.00  0.00    -0.378 OA
ATOM     20  H2* UNL     1       0.200   3.580  -0.858  0.00  0.00    +0.211 HD
ENDBRANCH  16  19
BRANCH  17  21
ATOM     21  O3* UNL     1      -2.504   3.167   1.550  0.00  0.00    -0.379 OA
ATOM     22  H3* UNL     1      -1.904   3.467   2.251  0.00  0.00    +0.211 HD
ENDBRANCH  17  21
BRANCH  18  23
ATOM     23  C5* UNL     1      -4.051   0.619   0.358  0.00  0.00    +0.169 C 
BRANCH  23  24
ATOM     24  O5* UNL     1      -4.803   0.176  -0.758  0.00  0.00    -0.379 OA
ATOM     25  H5* UNL     1      -5.558  -0.350  -0.451  0.00  0.00    +0.211 HD
ENDBRANCH  23  24
ENDBRANCH  18  23
ENDBRANCH   3  15
BRANCH   4  26
ATOM     26  C   UNL     1      -2.003  -2.992  -0.022  0.00  0.00    +0.073 C 
ATOM     27  C   UNL     1      -3.364  -3.122  -0.693  0.00  0.00    +0.021 C 
ATOM     28  C   UNL     1      -2.097  -3.240   1.477  0.00  0.00    +0.021 C 
ENDBRANCH   4  26
TORSDOF 6
