REMARK  Name = 123964
REMARK  3 active torsions:
REMARK  status: ('A' for Active; 'I' for Inactive)
REMARK    1  A    between atoms: C_8  and  C_18
REMARK    2  A    between atoms: C_18  and  C_20
REMARK    3  A    between atoms: C_20  and  O_21
REMARK                            x       y       z     vdW  Elec       q    Type
REMARK                         _______ _______ _______ _____ _____    ______ ____
ROOT
ATOM      1  O   UNL     1      -0.043   0.567   0.358  0.00  0.00    -0.454 OA
ATOM      2  O   UNL     1       1.049  -3.298  -0.427  0.00  0.00    -0.286 OA
ATOM      3  C   UNL     1       1.273   0.236   0.147  0.00  0.00    +0.144 A 
ATOM      4  C   UNL     1       1.714  -1.059  -0.126  0.00  0.00    +0.073 A 
ATOM      5  C   UNL     1      -0.983  -0.432   0.298  0.00  0.00    +0.145 A 
ATOM      6  C   UNL     1      -0.681  -1.768   0.035  0.00  0.00    +0.073 A 
ATOM      7  C   UNL     1       2.197   1.280   0.216  0.00  0.00    +0.009 C 
ATOM      8  C   UNL     1      -2.309  -0.054   0.518  0.00  0.00    +0.024 C 
ATOM      9  C   UNL     1       0.723  -2.143  -0.194  0.00  0.00    +0.201 A 
ATOM     10  C   UNL     1       3.554   1.027   0.013  0.00  0.00    -0.023 C 
ATOM     11  C   UNL     1       3.072  -1.318  -0.330  0.00  0.00    +0.006 C 
ATOM     12  C   UNL     1       3.990  -0.270  -0.260  0.00  0.00    -0.004 C 
ATOM     13  C   UNL     1      -1.694  -2.729  -0.010  0.00  0.00    +0.006 C 
ATOM     14  C   UNL     1      -3.324  -1.010   0.474  0.00  0.00    -0.001 C 
ATOM     15  C   UNL     1       1.736   2.674   0.508  0.00  0.00    +0.034 C 
ATOM     16  C   UNL     1      -3.017  -2.345   0.210  0.00  0.00    -0.000 C 
ATOM     17  C   UNL     1       4.562   2.127   0.083  0.00  0.00    +0.031 C 
ENDROOT
BRANCH   8  18
ATOM     18  C   UNL     1      -2.670   1.368   0.803  0.00  0.00    +0.139 C 
BRANCH  18  20
ATOM     19  O   UNL     1      -2.837   1.636  -1.591  0.00  0.00    -0.250 OA
ATOM     20  C   UNL     1      -2.962   2.117  -0.472  0.00  0.00    +0.318 C 
BRANCH  20  21
ATOM     21  O   UNL     1      -3.350   3.398  -0.252  0.00  0.00    -0.480 OA
ATOM     22  H   UNL     1      -3.430   3.719   0.625  0.00  0.00    +0.295 HD
ENDBRANCH  20  21
ENDBRANCH  18  20
ENDBRANCH   8  18
TORSDOF 3
