62930
  -OEChem-10051720503D

 53 56  0     1  0  0  0  0  0999 V2000
   -4.7813   -0.8388    0.2033 O   0  0  0  0  0  0  0  0  0  0  0  0
    5.8960   -1.8212   -0.8426 O   0  0  0  0  0  0  0  0  0  0  0  0
    5.5990   -0.4646   -0.9768 N   0  0  0  0  0  0  0  0  0  0  0  0
   -2.3788   -0.2348    0.3671 C   0  0  1  0  0  0  0  0  0  0  0  0
   -1.5676    0.8326   -0.4032 C   0  0  2  0  0  0  0  0  0  0  0  0
   -0.2383    1.1735    0.2755 C   0  0  1  0  0  0  0  0  0  0  0  0
    0.6274   -0.1294    0.3732 C   0  0  2  0  0  0  0  0  0  0  0  0
   -3.6810   -0.2712   -0.4925 C   0  0  2  0  0  0  0  0  0  0  0  0
   -1.5409   -1.5263    0.4231 C   0  0  0  0  0  0  0  0  0  0  0  0
   -2.5798    1.9513   -0.6380 C   0  0  0  0  0  0  0  0  0  0  0  0
   -0.1494   -1.2883    1.0398 C   0  0  0  0  0  0  0  0  0  0  0  0
    1.9679    0.2052    1.0824 C   0  0  2  0  0  0  0  0  0  0  0  0
   -3.9323    1.2281   -0.8109 C   0  0  0  0  0  0  0  0  0  0  0  0
    0.5196    2.2925   -0.4661 C   0  0  0  0  0  0  0  0  0  0  0  0
   -2.7244    0.1826    1.8268 C   0  0  0  0  0  0  0  0  0  0  0  0
    1.8903    2.5666    0.1593 C   0  0  0  0  0  0  0  0  0  0  0  0
    2.6609    1.2776    0.2585 C   0  0  0  0  0  0  0  0  0  0  0  0
    2.9048   -0.9820    1.3584 C   0  0  0  0  0  0  0  0  0  0  0  0
   -3.4833   -0.9181    2.5193 C   0  0  0  0  0  0  0  0  0  0  0  0
   -3.5273   -1.0253   -1.7529 C   0  0  0  0  0  0  0  0  0  0  0  0
    3.6668   -1.4187    0.1199 C   0  0  0  0  0  0  0  0  0  0  0  0
    3.8128    1.0954   -0.4054 C   0  0  0  0  0  0  0  0  0  0  0  0
    4.4418   -0.2484   -0.4407 C   0  0  0  0  0  0  0  0  0  0  0  0
   -3.4028   -1.6382   -2.7775 C   0  0  0  0  0  0  0  0  0  0  0  0
   -1.3101    0.4367   -1.3985 H   0  0  0  0  0  0  0  0  0  0  0  0
   -0.4284    1.5468    1.2892 H   0  0  0  0  0  0  0  0  0  0  0  0
    0.8529   -0.4556   -0.6538 H   0  0  0  0  0  0  0  0  0  0  0  0
   -1.3632   -1.8964   -0.5948 H   0  0  0  0  0  0  0  0  0  0  0  0
   -2.0301   -2.3570    0.9365 H   0  0  0  0  0  0  0  0  0  0  0  0
   -2.3318    2.5415   -1.5264 H   0  0  0  0  0  0  0  0  0  0  0  0
   -2.6235    2.6402    0.2130 H   0  0  0  0  0  0  0  0  0  0  0  0
   -0.2392   -1.1085    2.1168 H   0  0  0  0  0  0  0  0  0  0  0  0
    0.4169   -2.2204    0.9295 H   0  0  0  0  0  0  0  0  0  0  0  0
    1.7280    0.6332    2.0667 H   0  0  0  0  0  0  0  0  0  0  0  0
   -4.6718    1.6611   -0.1262 H   0  0  0  0  0  0  0  0  0  0  0  0
   -4.3216    1.3797   -1.8249 H   0  0  0  0  0  0  0  0  0  0  0  0
   -0.0665    3.2187   -0.4508 H   0  0  0  0  0  0  0  0  0  0  0  0
    0.6485    2.0155   -1.5208 H   0  0  0  0  0  0  0  0  0  0  0  0
   -3.3235    1.0996    1.8510 H   0  0  0  0  0  0  0  0  0  0  0  0
   -1.8279    0.4087    2.4112 H   0  0  0  0  0  0  0  0  0  0  0  0
    1.7698    2.9976    1.1605 H   0  0  0  0  0  0  0  0  0  0  0  0
    2.4216    3.3110   -0.4450 H   0  0  0  0  0  0  0  0  0  0  0  0
    2.3674   -1.8286    1.7952 H   0  0  0  0  0  0  0  0  0  0  0  0
    3.6344   -0.6715    2.1205 H   0  0  0  0  0  0  0  0  0  0  0  0
   -4.4621   -0.5473    2.8469 H   0  0  0  0  0  0  0  0  0  0  0  0
   -3.6596   -1.8438    1.9708 H   0  0  0  0  0  0  0  0  0  0  0  0
   -2.9540   -1.2028    3.4370 H   0  0  0  0  0  0  0  0  0  0  0  0
   -5.5898   -0.6506   -0.3036 H   0  0  0  0  0  0  0  0  0  0  0  0
    2.9845   -1.7853   -0.6556 H   0  0  0  0  0  0  0  0  0  0  0  0
    4.2855   -2.2606    0.4403 H   0  0  0  0  0  0  0  0  0  0  0  0
    4.2788    1.8835   -0.9858 H   0  0  0  0  0  0  0  0  0  0  0  0
   -3.2914   -2.1819   -3.6862 H   0  0  0  0  0  0  0  0  0  0  0  0
    6.7678   -1.8740   -1.2693 H   0  0  0  0  0  0  0  0  0  0  0  0
  1  8  1  0  0  0  0
  1 48  1  0  0  0  0
  2  3  1  0  0  0  0
  2 53  1  0  0  0  0
  3 23  2  0  0  0  0
  4  5  1  0  0  0  0
  4  8  1  0  0  0  0
  4  9  1  0  0  0  0
  4 15  1  0  0  0  0
  5  6  1  0  0  0  0
  5 10  1  0  0  0  0
  5 25  1  0  0  0  0
  6  7  1  0  0  0  0
  6 14  1  0  0  0  0
  6 26  1  0  0  0  0
  7 11  1  0  0  0  0
  7 12  1  0  0  0  0
  7 27  1  0  0  0  0
  8 13  1  0  0  0  0
  8 20  1  0  0  0  0
  9 11  1  0  0  0  0
  9 28  1  0  0  0  0
  9 29  1  0  0  0  0
 10 13  1  0  0  0  0
 10 30  1  0  0  0  0
 10 31  1  0  0  0  0
 11 32  1  0  0  0  0
 11 33  1  0  0  0  0
 12 17  1  0  0  0  0
 12 18  1  0  0  0  0
 12 34  1  0  0  0  0
 13 35  1  0  0  0  0
 13 36  1  0  0  0  0
 14 16  1  0  0  0  0
 14 37  1  0  0  0  0
 14 38  1  0  0  0  0
 15 19  1  0  0  0  0
 15 39  1  0  0  0  0
 15 40  1  0  0  0  0
 16 17  1  0  0  0  0
 16 41  1  0  0  0  0
 16 42  1  0  0  0  0
 17 22  2  0  0  0  0
 18 21  1  0  0  0  0
 18 43  1  0  0  0  0
 18 44  1  0  0  0  0
 19 45  1  0  0  0  0
 19 46  1  0  0  0  0
 19 47  1  0  0  0  0
 20 24  3  0  0  0  0
 21 23  1  0  0  0  0
 21 49  1  0  0  0  0
 21 50  1  0  0  0  0
 22 23  1  0  0  0  0
 22 51  1  0  0  0  0
 24 52  1  0  0  0  0
M  END
> <DATABASE_ID>
DB06713

> <DATABASE_NAME>
drugbank

> <ORIGINAL_SOURCE>
PUBCHEM

> <ORIGINAL_SOURCE_URL>
https://pubchem.ncbi.nlm.nih.gov/rest/pug/compound/inchikey/ISHXLNHNDMZNMC-XUDSTZEESA-N/SDF?record_type=3d

> <SMILES>
[H][C@@]12CC[C@@](O)(C#C)[C@@]1(CC)CC[C@]1([H])[C@@]3([H])CCC(C=C3CC[C@@]21[H])=NO

> <INCHI_IDENTIFIER>
InChI=1S/C21H29NO2/c1-3-20-11-9-17-16-8-6-15(22-24)13-14(16)5-7-18(17)19(20)10-12-21(20,23)4-2/h2,13,16-19,23-24H,3,5-12H2,1H3/t16-,17+,18+,19-,20-,21-/m0/s1

> <INCHI_KEY>
ISHXLNHNDMZNMC-XUDSTZEESA-N

> <FORMULA>
C21H29NO2

> <MOLECULAR_WEIGHT>
327.468

> <EXACT_MASS>
327.219829178

> <JCHEM_ACCEPTOR_COUNT>
3

> <JCHEM_ATOM_COUNT>
53

> <JCHEM_AVERAGE_POLARIZABILITY>
38.40137486940553

> <JCHEM_BIOAVAILABILITY>
1

> <JCHEM_DONOR_COUNT>
2

> <JCHEM_FORMAL_CHARGE>
0

> <JCHEM_GHOSE_FILTER>
1

> <JCHEM_IUPAC>
(1S,2R,10R,11S,14R,15S)-15-ethyl-14-ethynyl-5-(hydroxyimino)tetracyclo[8.7.0.0²,⁷.0¹¹,¹⁵]heptadec-6-en-14-ol

> <ALOGPS_LOGP>
3.18

> <JCHEM_LOGP>
3.671276388333333

> <ALOGPS_LOGS>
-4.73

> <JCHEM_MDDR_LIKE_RULE>
0

> <JCHEM_NUMBER_OF_RINGS>
4

> <JCHEM_PHYSIOLOGICAL_CHARGE>
0

> <JCHEM_PKA>
17.909290746374918

> <JCHEM_PKA_STRONGEST_ACIDIC>
11.466128004560874

> <JCHEM_PKA_STRONGEST_BASIC>
3.115281896892417

> <JCHEM_POLAR_SURFACE_AREA>
52.82

> <JCHEM_REFRACTIVITY>
95.8472

> <JCHEM_ROTATABLE_BOND_COUNT>
1

> <JCHEM_RULE_OF_FIVE>
1

> <ALOGPS_SOLUBILITY>
6.05e-03 g/l

> <JCHEM_TRADITIONAL_IUPAC>
norelgestromin

> <JCHEM_VEBER_RULE>
0

> <DRUGBANK_ID>
DB06713

> <DRUG_GROUPS>
approved; investigational

> <GENERIC_NAME>
Norelgestromin

> <SYNONYMS>
17-Deacetylnorgestimate; 17-Deacylnorgestimate; 18-Methylnorethindrone oxime; D-Norgestrel 3-oxime; Deacetylnorgestimate; Levonorgestrel 3-oxime; Levonorgestrel oxime; Norelgestromin; Norelgestromina; Norplant 3-oxime

> <PRODUCTS>
Evra; Evra -(6/0.75); Ortho Evra; Xulane

$$$$
