REMARK  Name = 5326
REMARK  4 active torsions:
REMARK  status: ('A' for Active; 'I' for Inactive)
REMARK    1  A    between atoms: S_1  and  N_4
REMARK    2  A    between atoms: S_1  and  C_14
REMARK    3  A    between atoms: C_8  and  O_12
REMARK    4  A    between atoms: C_17  and  N_20
REMARK                            x       y       z     vdW  Elec       q    Type
REMARK                         _______ _______ _______ _____ _____    ______ ____
ROOT
ATOM      1  S   UNL     1       1.447  -2.115  -0.109  0.00  0.00    +0.081 S 
ATOM      2  O   UNL     1       2.503  -2.811   0.616  0.00  0.00    -0.149 OA
ATOM      3  O   UNL     1       1.139  -2.531  -1.472  0.00  0.00    -0.149 OA
ENDROOT
BRANCH   1   4
ATOM      4  N   UNL     1       0.015  -2.172   0.848  0.00  0.00    -0.158 N 
ATOM      5  N   UNL     1      -1.683  -1.557  -0.670  0.00  0.00    -0.199 NA
ATOM      6  N   UNL     1      -1.348  -0.320   1.371  0.00  0.00    -0.176 NA
ATOM      7  C   UNL     1      -1.070  -1.297   0.495  0.00  0.00    +0.106 C 
ATOM      8  C   UNL     1      -3.088   0.330  -0.161  0.00  0.00    +0.161 C 
ATOM      9  C   UNL     1      -2.696  -0.717  -0.969  0.00  0.00    +0.203 C 
ATOM     10  C   UNL     1      -2.371   0.482   1.009  0.00  0.00    +0.145 C 
ATOM     11  H   UNL     1      -0.058  -2.787   1.614  0.00  0.00    +0.186 HD
BRANCH   8  12
ATOM     12  O   UNL     1      -4.107   1.152  -0.492  0.00  0.00    -0.472 OA
ATOM     13  C   UNL     1      -4.428   2.206   0.422  0.00  0.00    +0.252 C 
ENDBRANCH   8  12
ENDBRANCH   1   4
BRANCH   1  14
ATOM     14  C   UNL     1       1.839  -0.414  -0.118  0.00  0.00    +0.126 C 
ATOM     15  C   UNL     1       2.666   0.116   0.872  0.00  0.00    +0.021 C 
ATOM     16  C   UNL     1       1.324   0.415  -1.115  0.00  0.00    +0.021 C 
ATOM     17  C   UNL     1       2.463   2.305  -0.131  0.00  0.00    +0.042 C 
ATOM     18  C   UNL     1       2.978   1.476   0.866  0.00  0.00    +0.015 C 
ATOM     19  C   UNL     1       1.636   1.774  -1.121  0.00  0.00    +0.015 C 
BRANCH  17  20
ATOM     20  N   UNL     1       2.780   3.679  -0.139  0.00  0.00    -0.357 N 
ATOM     21  H   UNL     1       3.364   4.054   0.559  0.00  0.00    +0.142 HD
ATOM     22  H   UNL     1       2.417   4.264  -0.844  0.00  0.00    +0.142 HD
ENDBRANCH  17  20
ENDBRANCH   1  14
TORSDOF 4
