REMARK  Name = 27400
REMARK  0 active torsions:
REMARK  status: ('A' for Active; 'I' for Inactive)
REMARK                            x       y       z     vdW  Elec       q    Type
REMARK                         _______ _______ _______ _____ _____    ______ ____
ROOT
ATOM      1  S   UNL     1       1.915  -3.688   0.267  0.00  0.00    -0.091 S 
ATOM      2  N   UNL     1      -3.929   0.597   0.248  0.00  0.00    +0.386 N 
ATOM      3  C   UNL     1      -1.211   0.060  -0.566  0.00  0.00    -0.048 C 
ATOM      4  C   UNL     1      -2.269  -1.004  -0.675  0.00  0.00    -0.001 C 
ATOM      5  C   UNL     1      -1.750   1.465  -0.571  0.00  0.00    -0.001 C 
ATOM      6  C   UNL     1       0.093  -0.219  -0.441  0.00  0.00    -0.008 C 
ATOM      7  C   UNL     1      -3.378  -0.765   0.356  0.00  0.00    -0.073 C 
ATOM      8  C   UNL     1      -2.879   1.609   0.456  0.00  0.00    -0.073 C 
ATOM      9  C   UNL     1       1.000   0.959  -0.345  0.00  0.00    -0.005 C 
ATOM     10  C   UNL     1       0.565  -1.586  -0.360  0.00  0.00    +0.002 C 
ATOM     11  C   UNL     1       1.864   1.117   0.757  0.00  0.00    -0.022 C 
ATOM     12  C   UNL     1       1.906   0.097   1.870  0.00  0.00    +0.032 C 
ATOM     13  C   UNL     1       2.495  -1.234   1.399  0.00  0.00    +0.038 C 
ATOM     14  C   UNL     1       1.615  -2.001   0.446  0.00  0.00    +0.008 C 
ATOM     15  C   UNL     1      -5.018   0.785   1.206  0.00  0.00    -0.101 C 
ATOM     16  C   UNL     1       0.012  -2.677  -1.110  0.00  0.00    +0.007 C 
ATOM     17  C   UNL     1       1.023   1.916  -1.375  0.00  0.00    -0.000 C 
ATOM     18  C   UNL     1       2.712   2.235   0.814  0.00  0.00    -0.004 C 
ATOM     19  C   UNL     1       0.651  -3.869  -0.860  0.00  0.00    +0.035 C 
ATOM     20  C   UNL     1       1.871   3.021  -1.305  0.00  0.00    -0.000 C 
ATOM     21  C   UNL     1       2.712   3.182  -0.209  0.00  0.00    -0.000 C 
ATOM     22  H   UNL     1      -4.299   0.714  -0.695  0.00  0.00    -0.080 HD
ENDROOT
TORSDOF 0
