REMARK  Name = 159603
REMARK  6 active torsions:
REMARK  status: ('A' for Active; 'I' for Inactive)
REMARK    1  A    between atoms: N_1  and  C_17
REMARK    2  A    between atoms: C_6  and  C_23
REMARK    3  A    between atoms: C_17  and  C_18
REMARK    4  A    between atoms: C_18  and  O_21
REMARK    5  A    between atoms: C_23  and  O_24
REMARK    6  A    between atoms: O_24  and  C_25
REMARK                            x       y       z     vdW  Elec       q    Type
REMARK                         _______ _______ _______ _____ _____    ______ ____
ROOT
ATOM      1  N   UNL     1      -0.567   0.416   0.209  0.00  0.00    -0.259 N 
ATOM      2  N   UNL     1      -1.236  -1.582  -0.493  0.00  0.00    -0.383 NA
ATOM      3  N   UNL     1       2.388  -2.342  -0.359  0.00  0.00    -0.385 NA
ATOM      4  N   UNL     1       0.653  -3.846  -1.017  0.00  0.00    -0.331 N 
ATOM      5  C   UNL     1       0.578  -0.332   0.091  0.00  0.00    +0.090 C 
ATOM      6  C   UNL     1      -1.623  -0.374  -0.150  0.00  0.00    +0.194 C 
ATOM      7  C   UNL     1       0.131  -1.572  -0.349  0.00  0.00    +0.189 C 
ATOM      8  C   UNL     1       1.939  -0.060   0.318  0.00  0.00    +0.046 C 
ATOM      9  C   UNL     1       2.815  -1.136   0.068  0.00  0.00    +0.134 C 
ATOM     10  C   UNL     1       1.067  -2.578  -0.571  0.00  0.00    +0.208 C 
ATOM     11  C   UNL     1       2.399   1.195   0.764  0.00  0.00    +0.004 C 
ATOM     12  C   UNL     1       4.170  -0.904   0.282  0.00  0.00    +0.032 C 
ATOM     13  C   UNL     1       3.761   1.385   0.965  0.00  0.00    +0.000 C 
ATOM     14  C   UNL     1       4.645   0.336   0.725  0.00  0.00    +0.003 C 
ATOM     15  H   UNL     1       1.318  -4.555  -1.173  0.00  0.00    +0.145 HD
ATOM     16  H   UNL     1      -0.302  -4.025  -1.174  0.00  0.00    +0.145 HD
ENDROOT
BRANCH   1  17
ATOM     17  C   UNL     1      -0.696   1.793   0.631  0.00  0.00    +0.124 C 
BRANCH  17  18
ATOM     18  C   UNL     1      -0.618   2.835  -0.505  0.00  0.00    +0.107 C 
ATOM     19  C   UNL     1      -0.772   4.242   0.084  0.00  0.00    +0.031 C 
ATOM     20  C   UNL     1      -1.673   2.617  -1.591  0.00  0.00    +0.031 C 
BRANCH  18  21
ATOM     21  O   UNL     1       0.665   2.771  -1.131  0.00  0.00    -0.385 OA
ATOM     22  H   UNL     1       1.357   2.906  -0.464  0.00  0.00    +0.210 HD
ENDBRANCH  18  21
ENDBRANCH  17  18
ENDBRANCH   1  17
BRANCH   6  23
ATOM     23  C   UNL     1      -3.017   0.115  -0.140  0.00  0.00    +0.217 C 
BRANCH  23  24
ATOM     24  O   UNL     1      -3.826  -0.889   0.471  0.00  0.00    -0.345 OA
BRANCH  24  25
ATOM     25  C   UNL     1      -5.188  -0.495   0.521  0.00  0.00    +0.143 C 
ATOM     26  C   UNL     1      -5.996  -1.595   1.177  0.00  0.00    +0.035 C 
ENDBRANCH  24  25
ENDBRANCH  23  24
ENDBRANCH   6  23
TORSDOF 6
