REMARK  Name = 5287452
REMARK  5 active torsions:
REMARK  status: ('A' for Active; 'I' for Inactive)
REMARK    1  A    between atoms: C_1  and  C_8
REMARK    2  A    between atoms: C_2  and  O_6
REMARK    3  A    between atoms: C_8  and  C_10
REMARK    4  A    between atoms: C_8  and  C_11
REMARK    5  A    between atoms: C_11  and  C_12
REMARK                            x       y       z     vdW  Elec       q    Type
REMARK                         _______ _______ _______ _____ _____    ______ ____
ROOT
ATOM      1  C   UNL     1       0.441   0.244  -0.016  0.00  0.00    +0.035 C 
ATOM      2  C   UNL     1       1.772  -0.504  -0.010  0.00  0.00    +0.111 C 
ATOM      3  C   UNL     1       0.783   1.523   0.743  0.00  0.00    +0.003 C 
ATOM      4  C   UNL     1       2.786   0.593  -0.313  0.00  0.00    +0.029 C 
ATOM      5  C   UNL     1       2.211   1.863   0.315  0.00  0.00    +0.003 C 
ENDROOT
BRANCH   2   6
ATOM      6  O   UNL     1       1.794  -1.518  -0.997  0.00  0.00    -0.384 OA
ATOM      7  H   UNL     1       1.139  -2.198  -0.775  0.00  0.00    +0.210 HD
ENDBRANCH   2   6
BRANCH   1   8
ATOM      8  C   UNL     1      -0.695  -0.543   0.618  0.00  0.00    +0.072 C 
BRANCH   8  10
ATOM      9  O   UNL     1      -0.859  -2.959   0.355  0.00  0.00    -0.288 OA
ATOM     10  C   UNL     1      -0.979  -1.838  -0.129  0.00  0.00    +0.207 C 
ENDBRANCH   8  10
BRANCH   8  11
ATOM     11  C   UNL     1      -1.989   0.277   0.774  0.00  0.00    +0.034 C 
BRANCH  11  12
ATOM     12  C   UNL     1      -2.561   0.782  -0.521  0.00  0.00    -0.026 C 
ATOM     13  C   UNL     1      -2.706   2.078  -0.820  0.00  0.00    -0.005 C 
ENDBRANCH  11  12
ENDBRANCH   8  11
ENDBRANCH   1   8
TORSDOF 5
