REMARK  Name = 17748441
REMARK  5 active torsions:
REMARK  status: ('A' for Active; 'I' for Inactive)
REMARK    1  A    between atoms: C_2  and  N_10
REMARK    2  A    between atoms: C_3  and  O_24
REMARK    3  A    between atoms: C_12  and  C_16
REMARK    4  A    between atoms: C_16  and  C_18
REMARK    5  A    between atoms: O_24  and  C_27
REMARK                            x       y       z     vdW  Elec       q    Type
REMARK                         _______ _______ _______ _____ _____    ______ ____
ROOT
ATOM      1  F   UNL     1       3.948   1.946   2.477  0.00  0.00    -0.201 F 
ATOM      2  C   UNL     1       1.047   1.371   0.360  0.00  0.00    +0.054 C 
ATOM      3  C   UNL     1       3.829   1.224   0.220  0.00  0.00    +0.173 C 
ATOM      4  C   UNL     1       1.820   1.702   1.473  0.00  0.00    +0.047 C 
ATOM      5  C   UNL     1       1.666   0.967  -0.823  0.00  0.00    +0.018 C 
ATOM      6  C   UNL     1       3.211   1.628   1.403  0.00  0.00    +0.176 C 
ATOM      7  C   UNL     1       3.057   0.894  -0.893  0.00  0.00    +0.041 C 
ENDROOT
BRANCH   2  10
ATOM      8  O   UNL     1      -3.815   0.794  -2.011  0.00  0.00    -0.274 OA
ATOM      9  O   UNL     1      -1.037   0.781  -1.720  0.00  0.00    -0.252 OA
ATOM     10  N   UNL     1      -0.364   1.446   0.430  0.00  0.00    -0.268 N 
ATOM     11  N   UNL     1      -2.600   1.359  -0.102  0.00  0.00    -0.239 N 
ATOM     12  C   UNL     1      -3.770   1.167  -0.842  0.00  0.00    +0.234 C 
ATOM     13  C   UNL     1      -1.289   1.157  -0.578  0.00  0.00    +0.310 C 
ATOM     14  H   UNL     1      -0.739   1.738   1.293  0.00  0.00    +0.156 HD
ATOM     15  H   UNL     1      -2.700   1.662   0.830  0.00  0.00    +0.159 HD
BRANCH  12  16
ATOM     16  C   UNL     1      -5.002   1.480  -0.014  0.00  0.00    +0.112 C 
BRANCH  16  18
ATOM     17  F   UNL     1      -8.484  -2.914   0.550  0.00  0.00    -0.204 F 
ATOM     18  C   UNL     1      -5.933   0.306   0.137  0.00  0.00    -0.013 C 
ATOM     19  C   UNL     1      -5.777  -0.574   1.207  0.00  0.00    -0.001 C 
ATOM     20  C   UNL     1      -6.951   0.098  -0.794  0.00  0.00    -0.001 C 
ATOM     21  C   UNL     1      -6.639  -1.662   1.347  0.00  0.00    +0.029 C 
ATOM     22  C   UNL     1      -7.812  -0.990  -0.655  0.00  0.00    +0.029 C 
ATOM     23  C   UNL     1      -7.657  -1.870   0.416  0.00  0.00    +0.140 C 
ENDBRANCH  16  18
ENDBRANCH  12  16
ENDBRANCH   2  10
BRANCH   3  24
ATOM     24  O   UNL     1       5.187   1.154   0.151  0.00  0.00    -0.451 OA
BRANCH  24  27
ATOM     25  N   UNL     1       6.898  -2.558  -0.723  0.00  0.00    -0.229 NA
ATOM     26  N   UNL     1       5.422  -3.589   0.838  0.00  0.00    -0.343 N 
ATOM     27  C   UNL     1       5.754  -0.076  -0.138  0.00  0.00    +0.150 C 
ATOM     28  C   UNL     1       5.298  -1.223   0.502  0.00  0.00    +0.071 C 
ATOM     29  C   UNL     1       6.781  -0.169  -1.070  0.00  0.00    +0.058 C 
ATOM     30  C   UNL     1       5.898  -2.429   0.177  0.00  0.00    +0.128 C 
ATOM     31  C   UNL     1       7.315  -1.422  -1.325  0.00  0.00    +0.103 C 
ATOM     32  H   UNL     1       5.819  -4.467   0.638  0.00  0.00    +0.144 HD
ATOM     33  H   UNL     1       4.694  -3.516   1.497  0.00  0.00    +0.144 HD
ENDBRANCH  24  27
ENDBRANCH   3  24
TORSDOF 5
