REMARK  Name = 53276
REMARK  5 active torsions:
REMARK  status: ('A' for Active; 'I' for Inactive)
REMARK    1  A    between atoms: N_1  and  C_19
REMARK    2  A    between atoms: C_4  and  N_10
REMARK    3  A    between atoms: C_11  and  O_13
REMARK    4  A    between atoms: O_13  and  C_14
REMARK    5  A    between atoms: C_19  and  C_21
REMARK                            x       y       z     vdW  Elec       q    Type
REMARK                         _______ _______ _______ _____ _____    ______ ____
ROOT
ATOM      1  N   UNL     1       1.656  -0.444   0.050  0.00  0.00    -0.308 N 
ATOM      2  N   UNL     1      -0.382  -1.678   0.007  0.00  0.00    -0.376 NA
ATOM      3  C   UNL     1       0.282  -0.477   0.036  0.00  0.00    +0.163 C 
ATOM      4  C   UNL     1      -2.490  -0.494   0.005  0.00  0.00    +0.093 C 
ATOM      5  C   UNL     1      -0.424   0.738   0.051  0.00  0.00    +0.102 C 
ATOM      6  C   UNL     1      -1.733  -1.655  -0.008  0.00  0.00    +0.191 C 
ATOM      7  C   UNL     1      -1.815   0.722   0.035  0.00  0.00    +0.001 C 
ATOM      8  H   UNL     1       2.146  -1.297   0.040  0.00  0.00    +0.149 HD
ATOM      9  N   UNL     1      -2.412  -2.899  -0.040  0.00  0.00    -0.332 N 
ATOM     10  H   UNL     1      -1.899  -3.740  -0.050  0.00  0.00    +0.145 HD
ATOM     11  H   UNL     1      -3.396  -2.923  -0.053  0.00  0.00    +0.145 HD
ENDROOT
BRANCH   4  13
ATOM     12  O   UNL     1      -4.479   1.758   0.022  0.00  0.00    -0.226 OA
ATOM     13  N   UNL     1      -3.885  -0.510  -0.011  0.00  0.00    -0.247 N 
ATOM     14  C   UNL     1      -4.766   0.568  -0.003  0.00  0.00    +0.405 C 
ATOM     15  H   UNL     1      -4.302  -1.402  -0.032  0.00  0.00    +0.158 HD
BRANCH  14  16
ATOM     16  O   UNL     1      -6.053   0.100  -0.026  0.00  0.00    -0.434 OA
BRANCH  16  17
ATOM     17  C   UNL     1      -7.084   1.094  -0.020  0.00  0.00    +0.210 C 
ATOM     18  C   UNL     1      -8.432   0.407  -0.048  0.00  0.00    +0.051 C 
ENDBRANCH  16  17
ENDBRANCH  14  16
ENDBRANCH   4  13
BRANCH   1  19
ATOM     19  C   UNL     1       2.423   0.803   0.080  0.00  0.00    +0.116 C 
BRANCH  19  21
ATOM     20  F   UNL     1       7.969  -0.093  -0.090  0.00  0.00    -0.204 F 
ATOM     21  C   UNL     1       3.895   0.566   0.036  0.00  0.00    -0.002 C 
ATOM     22  C   UNL     1       4.612   0.408   1.221  0.00  0.00    -0.000 C 
ATOM     23  C   UNL     1       4.553   0.501  -1.192  0.00  0.00    -0.000 C 
ATOM     24  C   UNL     1       5.989   0.186   1.179  0.00  0.00    +0.029 C 
ATOM     25  C   UNL     1       5.930   0.279  -1.235  0.00  0.00    +0.029 C 
ATOM     26  C   UNL     1       6.648   0.121  -0.049  0.00  0.00    +0.140 C 
ENDBRANCH  19  21
ENDBRANCH   1  19
TORSDOF 5
