REMARK  Name = 6435808
REMARK  4 active torsions:
REMARK  status: ('A' for Active; 'I' for Inactive)
REMARK    1  A    between atoms: C_3  and  C_20
REMARK    2  A    between atoms: C_4  and  O_18
REMARK    3  A    between atoms: C_5  and  N_9
REMARK    4  A    between atoms: C_20  and  O_21
REMARK                            x       y       z     vdW  Elec       q    Type
REMARK                         _______ _______ _______ _____ _____    ______ ____
ROOT
ATOM      1  F   UNL     1      -1.722  -3.238   0.810  0.00  0.00    -0.202 F 
ATOM      2  O   UNL     1      -1.167   1.049  -0.884  0.00  0.00    -0.331 OA
ATOM      3  C   UNL     1      -2.441   0.760  -0.286  0.00  0.00    +0.177 C 
ATOM      4  C   UNL     1      -2.169  -0.326   0.744  0.00  0.00    +0.165 C 
ATOM      5  C   UNL     1      -0.418  -0.178  -0.903  0.00  0.00    +0.231 C 
ATOM      6  C   UNL     1      -1.137  -1.120   0.010  0.00  0.00    +0.061 C 
ATOM      7  C   UNL     1      -0.950  -2.444   0.054  0.00  0.00    +0.165 C 
ENDROOT
BRANCH   5   9
ATOM      8  O   UNL     1       1.913  -1.543  -1.704  0.00  0.00    -0.193 OA
ATOM      9  N   UNL     1       0.906   0.085  -0.414  0.00  0.00    -0.177 N 
ATOM     10  N   UNL     1       3.281  -0.339  -0.351  0.00  0.00    -0.306 NA
ATOM     11  N   UNL     1       4.677   0.897   1.039  0.00  0.00    -0.332 N 
ATOM     12  C   UNL     1       1.081   1.085   0.531  0.00  0.00    +0.084 C 
ATOM     13  C   UNL     1       2.034  -0.646  -0.866  0.00  0.00    +0.276 C 
ATOM     14  C   UNL     1       2.272   1.395   1.040  0.00  0.00    +0.065 C 
ATOM     15  C   UNL     1       3.429   0.608   0.539  0.00  0.00    +0.193 C 
ATOM     16  H   UNL     1       5.462   0.392   0.726  0.00  0.00    +0.145 HD
ATOM     17  H   UNL     1       4.786   1.610   1.709  0.00  0.00    +0.145 HD
ENDBRANCH   5   9
BRANCH   4  18
ATOM     18  O   UNL     1      -3.350  -1.044   1.038  0.00  0.00    -0.378 OA
ATOM     19  H   UNL     1      -3.969  -0.467   1.512  0.00  0.00    +0.211 HD
ENDBRANCH   4  18
BRANCH   3  20
ATOM     20  C   UNL     1      -3.018   2.028   0.320  0.00  0.00    +0.170 C 
BRANCH  20  21
ATOM     21  O   UNL     1      -3.222   2.970  -0.717  0.00  0.00    -0.379 OA
ATOM     22  H   UNL     1      -3.591   3.786  -0.344  0.00  0.00    +0.211 HD
ENDBRANCH  20  21
ENDBRANCH   3  20
TORSDOF 4
