REMARK  Name = 3998
REMARK  4 active torsions:
REMARK  status: ('A' for Active; 'I' for Inactive)
REMARK    1  A    between atoms: C_1  and  S_7
REMARK    2  A    between atoms: C_2  and  C_13
REMARK    3  A    between atoms: S_7  and  N_10
REMARK    4  A    between atoms: C_13  and  N_14
REMARK                            x       y       z     vdW  Elec       q    Type
REMARK                         _______ _______ _______ _____ _____    ______ ____
ROOT
ATOM      1  C   UNL     1       0.774   0.000  -0.014  0.00  0.00    +0.122 C 
ATOM      2  C   UNL     1      -2.000   0.001   0.282  0.00  0.00    -0.044 C 
ATOM      3  C   UNL     1       0.081   1.208   0.059  0.00  0.00    +0.019 C 
ATOM      4  C   UNL     1       0.081  -1.208   0.060  0.00  0.00    +0.019 C 
ATOM      5  C   UNL     1      -1.306   1.208   0.207  0.00  0.00    -0.005 C 
ATOM      6  C   UNL     1      -1.306  -1.208   0.208  0.00  0.00    -0.005 C 
ENDROOT
BRANCH   1   7
ATOM      7  S   UNL     1       2.510   0.000  -0.200  0.00  0.00    +0.057 S 
ATOM      8  O   UNL     1       2.906  -1.261  -0.812  0.00  0.00    -0.153 OA
ATOM      9  O   UNL     1       2.910   1.259  -0.813  0.00  0.00    -0.153 OA
BRANCH   7  10
ATOM     10  N   UNL     1       3.013   0.001   1.433  0.00  0.00    -0.203 NA
ATOM     11  H   UNL     1       4.032   0.001   1.475  0.00  0.00    +0.144 HD
ATOM     12  H   UNL     1       2.653  -0.832   1.900  0.00  0.00    +0.144 HD
ENDBRANCH   7  10
ENDBRANCH   1   7
BRANCH   2  13
ATOM     13  C   UNL     1      -3.483   0.001   0.439  0.00  0.00    -0.059 C 
BRANCH  13  14
ATOM     14  N   UNL     1      -4.180  -0.001  -0.849  0.00  0.00    +0.383 N 
ATOM     15  H   UNL     1      -5.187  -0.001  -0.690  0.00  0.00    -0.089 HD
ATOM     16  H   UNL     1      -3.919  -0.834  -1.376  0.00  0.00    -0.089 HD
ATOM     17  H   UNL     1      -3.919   0.831  -1.378  0.00  0.00    -0.089 HD
ENDBRANCH  13  14
ENDBRANCH   2  13
TORSDOF 4
