REMARK  Name = 25134265
REMARK  1 active torsions:
REMARK  status: ('A' for Active; 'I' for Inactive)
REMARK    1  A    between atoms: N_3  and  C_15
REMARK                            x       y       z     vdW  Elec       q    Type
REMARK                         _______ _______ _______ _____ _____    ______ ____
ROOT
ATOM      1  O   UNL     1       0.242   2.029   0.385  0.00  0.00    -0.269 OA
ATOM      2  O   UNL     1       0.300  -2.575  -0.344  0.00  0.00    -0.269 OA
ATOM      3  N   UNL     1      -0.241  -0.282   0.039  0.00  0.00    -0.201 N 
ATOM      4  C   UNL     1       1.924   0.442   0.051  0.00  0.00    +0.055 C 
ATOM      5  C   UNL     1       1.943  -0.926  -0.133  0.00  0.00    +0.058 C 
ATOM      6  C   UNL     1       0.532   0.866   0.170  0.00  0.00    +0.259 C 
ATOM      7  C   UNL     1       0.562  -1.401  -0.150  0.00  0.00    +0.259 C 
ATOM      8  C   UNL     1       3.086   1.187   0.108  0.00  0.00    -0.017 C 
ATOM      9  C   UNL     1       3.124  -1.627  -0.276  0.00  0.00    +0.005 C 
ATOM     10  C   UNL     1       4.295   0.500  -0.033  0.00  0.00    -0.004 C 
ATOM     11  C   UNL     1       4.313  -0.895  -0.224  0.00  0.00    -0.000 C 
ATOM     12  C   UNL     1       3.085   2.661   0.311  0.00  0.00    +0.031 C 
ENDROOT
BRANCH   3  15
ATOM     13 CL   UNL     1      -4.778   2.028  -0.761  0.00  0.00    -0.061 Cl
ATOM     14  N   UNL     1      -4.466  -0.361   0.195  0.00  0.00    -0.232 NA
ATOM     15  C   UNL     1      -1.673  -0.308   0.091  0.00  0.00    +0.065 C 
ATOM     16  C   UNL     1      -2.408   0.793  -0.332  0.00  0.00    +0.046 C 
ATOM     17  C   UNL     1      -2.333  -1.437   0.566  0.00  0.00    +0.036 C 
ATOM     18  C   UNL     1      -3.790   0.717  -0.260  0.00  0.00    +0.140 C 
ATOM     19  C   UNL     1      -3.718  -1.413   0.598  0.00  0.00    +0.101 C 
ENDBRANCH   3  15
TORSDOF 1
