REMARK  Name = 10178705
REMARK  5 active torsions:
REMARK  status: ('A' for Active; 'I' for Inactive)
REMARK    1  A    between atoms: N_4  and  C_25
REMARK    2  A    between atoms: C_7  and  N_14
REMARK    3  A    between atoms: C_10  and  C_29
REMARK    4  A    between atoms: C_15  and  N_21
REMARK    5  A    between atoms: C_29  and  O_30
REMARK                            x       y       z     vdW  Elec       q    Type
REMARK                         _______ _______ _______ _____ _____    ______ ____
ROOT
ATOM      1 CL   UNL     1       1.122   1.982   0.583  0.00  0.00    -0.080 Cl
ATOM      2  F   UNL     1       1.775  -2.890  -0.346  0.00  0.00    -0.203 F 
ATOM      3  O   UNL     1      -3.246  -2.587  -0.445  0.00  0.00    -0.286 OA
ATOM      4  N   UNL     1      -1.964   1.204   0.334  0.00  0.00    -0.287 N 
ATOM      5  C   UNL     1      -0.987   0.181   0.166  0.00  0.00    +0.067 C 
ATOM      6  C   UNL     1      -3.306   0.889   0.231  0.00  0.00    +0.075 C 
ATOM      7  C   UNL     1       1.321  -0.600   0.087  0.00  0.00    +0.087 C 
ATOM      8  C   UNL     1      -1.403  -1.140  -0.104  0.00  0.00    +0.056 C 
ATOM      9  C   UNL     1       0.392   0.430   0.258  0.00  0.00    +0.087 C 
ATOM     10  C   UNL     1      -3.805  -0.327  -0.022  0.00  0.00    +0.129 C 
ATOM     11  C   UNL     1      -2.853  -1.451  -0.211  0.00  0.00    +0.204 C 
ATOM     12  C   UNL     1       0.890  -1.897  -0.179  0.00  0.00    +0.154 C 
ATOM     13  C   UNL     1      -0.471  -2.171  -0.276  0.00  0.00    +0.035 C 
ENDROOT
BRANCH   7  14
ATOM     14  N   UNL     1       2.706  -0.385   0.173  0.00  0.00    -0.307 N 
ATOM     15  C   UNL     1       4.623   0.818  -0.923  0.00  0.00    -0.046 C 
ATOM     16  C   UNL     1       3.361  -0.043  -1.097  0.00  0.00    +0.069 C 
ATOM     17  C   UNL     1       3.460  -1.118   1.194  0.00  0.00    +0.091 C 
ATOM     18  C   UNL     1       5.801   0.019  -0.349  0.00  0.00    -0.020 C 
ATOM     19  C   UNL     1       4.467  -0.199   1.876  0.00  0.00    +0.021 C 
ATOM     20  C   UNL     1       5.816  -0.104   1.173  0.00  0.00    -0.000 C 
BRANCH  15  21
ATOM     21  N   UNL     1       4.997   1.310  -2.258  0.00  0.00    +0.383 N 
ATOM     22  H   UNL     1       4.222   1.844  -2.652  0.00  0.00    -0.089 HD
ATOM     23  H   UNL     1       5.208   0.518  -2.865  0.00  0.00    -0.089 HD
ATOM     24  H   UNL     1       5.819   1.909  -2.181  0.00  0.00    -0.089 HD
ENDBRANCH  15  21
ENDBRANCH   7  14
BRANCH   4  25
ATOM     25  C   UNL     1      -1.702   2.634   0.621  0.00  0.00    +0.077 C 
ATOM     26  C   UNL     1      -2.701   3.680   0.258  0.00  0.00    +0.022 C 
ATOM     27  C   UNL     1      -1.401   3.589  -0.485  0.00  0.00    +0.022 C 
ENDBRANCH   4  25
BRANCH  10  29
ATOM     28  O   UNL     1      -6.029   0.389  -0.462  0.00  0.00    -0.245 OA
ATOM     29  C   UNL     1      -5.259  -0.482  -0.097  0.00  0.00    +0.342 C 
BRANCH  29  30
ATOM     30  O   UNL     1      -5.604  -1.726   0.299  0.00  0.00    -0.477 OA
ATOM     31  H   UNL     1      -4.941  -2.333   0.564  0.00  0.00    +0.295 HD
ENDBRANCH  29  30
ENDBRANCH  10  29
TORSDOF 5
