REMARK  Name = 71351
REMARK  4 active torsions:
REMARK  status: ('A' for Active; 'I' for Inactive)
REMARK    1  A    between atoms: N_1  and  C_18
REMARK    2  A    between atoms: C_2  and  C_11
REMARK    3  A    between atoms: C_18  and  C_19
REMARK    4  A    between atoms: C_19  and  C_23
REMARK                            x       y       z     vdW  Elec       q    Type
REMARK                         _______ _______ _______ _____ _____    ______ ____
ROOT
ATOM      1  N   UNL     1       0.219   0.988   0.297  0.00  0.00    +0.387 N 
ATOM      2  C   UNL     1       3.065   0.281   0.216  0.00  0.00    +0.039 C 
ATOM      3  C   UNL     1       2.492   1.283   1.232  0.00  0.00    -0.017 C 
ATOM      4  C   UNL     1       2.166   0.229  -1.030  0.00  0.00    -0.017 C 
ATOM      5  C   UNL     1       1.019   0.991   1.529  0.00  0.00    -0.077 C 
ATOM      6  C   UNL     1       0.705  -0.025  -0.649  0.00  0.00    -0.077 C 
ATOM      7  H   UNL     1       0.317   1.903  -0.144  0.00  0.00    -0.080 HD
ENDROOT
BRANCH   2  11
ATOM      8  F   UNL     1       9.488  -1.712   0.214  0.00  0.00    -0.204 F 
ATOM      9  O   UNL     1       6.218   1.642  -0.876  0.00  0.00    -0.354 OA
ATOM     10  N   UNL     1       4.840   1.705  -0.706  0.00  0.00    -0.081 NA
ATOM     11  C   UNL     1       4.513   0.555  -0.121  0.00  0.00    +0.100 A 
ATOM     12  C   UNL     1       5.618  -0.279   0.108  0.00  0.00    +0.054 A 
ATOM     13  C   UNL     1       6.679   0.457  -0.390  0.00  0.00    +0.179 A 
ATOM     14  C   UNL     1       5.866  -1.543   0.663  0.00  0.00    +0.007 C 
ATOM     15  C   UNL     1       8.003   0.029  -0.382  0.00  0.00    +0.070 C 
ATOM     16  C   UNL     1       7.189  -2.007   0.687  0.00  0.00    +0.030 C 
ATOM     17  C   UNL     1       8.236  -1.234   0.173  0.00  0.00    +0.143 C 
ENDBRANCH   2  11
BRANCH   1  18
ATOM     18  C   UNL     1      -1.194   0.765   0.605  0.00  0.00    -0.076 C 
BRANCH  18  19
ATOM     19  C   UNL     1      -2.017   0.819  -0.674  0.00  0.00    -0.007 C 
BRANCH  19  23
ATOM     20  O   UNL     1      -3.116  -1.728  -0.701  0.00  0.00    -0.274 OA
ATOM     21  N   UNL     1      -5.296  -1.030  -0.229  0.00  0.00    -0.211 N 
ATOM     22  N   UNL     1      -5.717   1.280   0.127  0.00  0.00    -0.395 NA
ATOM     23  C   UNL     1      -3.471   0.587  -0.384  0.00  0.00    +0.123 C 
ATOM     24  C   UNL     1      -4.386   1.532  -0.093  0.00  0.00    +0.097 C 
ATOM     25  C   UNL     1      -3.930  -0.837  -0.457  0.00  0.00    +0.241 C 
ATOM     26  C   UNL     1      -6.136   0.053   0.056  0.00  0.00    +0.188 C 
ATOM     27  C   UNL     1      -4.037   2.991   0.047  0.00  0.00    +0.062 C 
ATOM     28  C   UNL     1      -7.593  -0.249   0.291  0.00  0.00    +0.023 C 
ATOM     29  C   UNL     1      -5.804  -2.323  -0.288  0.00  0.00    +0.074 C 
ATOM     30  C   UNL     1      -8.008  -1.522   0.217  0.00  0.00    +0.001 C 
ATOM     31  C   UNL     1      -7.096  -2.589  -0.079  0.00  0.00    +0.016 C 
ATOM     32  C   UNL     1      -8.515   0.891   0.597  0.00  0.00    +0.035 C 
ENDBRANCH  19  23
ENDBRANCH  18  19
ENDBRANCH   1  18
TORSDOF 4
