REMARK  Name = 23653507
REMARK  15 active torsions:
REMARK  status: ('A' for Active; 'I' for Inactive)
REMARK    1  A    between atoms: P_1  and  O_3
REMARK    2  A    between atoms: P_1  and  C_5
REMARK    3  A    between atoms: P_1  and  C_22
REMARK    4  A    between atoms: C_5  and  C_6
REMARK    5  A    between atoms: C_5  and  N_9
REMARK    6  A    between atoms: N_9  and  S_11
REMARK    7  A    between atoms: S_11  and  C_14
REMARK    8  A    between atoms: C_14  and  C_15
REMARK    9  A    between atoms: C_15  and  C_16
REMARK   10  A    between atoms: C_22  and  C_23
REMARK   11  A    between atoms: C_23  and  C_24
REMARK   12  A    between atoms: C_23  and  C_36
REMARK   13  A    between atoms: C_27  and  C_30
REMARK   14  A    between atoms: C_30  and  N_31
REMARK   15  A    between atoms: C_36  and  O_37
REMARK                            x       y       z     vdW  Elec       q    Type
REMARK                         _______ _______ _______ _____ _____    ______ ____
ROOT
ATOM      1  P   UNL     1      -1.233  -1.287  -1.258  0.00  0.00    +0.236 P 
ATOM      2  O   UNL     1      -2.613  -1.531  -0.722  0.00  0.00    -0.288 OA
ENDROOT
BRANCH   1   3
ATOM      3  O   UNL     1      -1.136  -1.352  -2.871  0.00  0.00    -0.342 OA
ATOM      4  H   UNL     1      -1.441  -2.220  -3.178  0.00  0.00    +0.218 HD
ENDBRANCH   1   3
BRANCH   1   5
ATOM      5  C   UNL     1       0.023  -2.435  -0.696  0.00  0.00    +0.152 C 
BRANCH   5   6
ATOM      6  C   UNL     1      -0.273  -3.945  -0.810  0.00  0.00    +0.025 C 
ATOM      7  C   UNL     1      -1.464  -4.404   0.033  0.00  0.00    +0.002 C 
ATOM      8  C   UNL     1      -0.471  -4.378  -2.264  0.00  0.00    +0.002 C 
ENDBRANCH   5   6
BRANCH   5   9
ATOM      9  N   UNL     1       0.252  -2.105   0.733  0.00  0.00    -0.175 NA
ATOM     10  H   UNL     1      -0.047  -1.138   0.857  0.00  0.00    +0.149 HD
BRANCH   9  11
ATOM     11  S   UNL     1       1.792  -2.224   1.436  0.00  0.00    +0.042 S 
ATOM     12  O   UNL     1       2.477  -3.401   0.938  0.00  0.00    -0.157 OA
ATOM     13  O   UNL     1       1.667  -1.985   2.861  0.00  0.00    -0.157 OA
BRANCH  11  14
ATOM     14  C   UNL     1       2.589  -0.797   0.738  0.00  0.00    +0.173 C 
BRANCH  14  15
ATOM     15  C   UNL     1       4.031  -0.640   1.206  0.00  0.00    +0.053 C 
BRANCH  15  16
ATOM     16  C   UNL     1       4.741   0.538   0.586  0.00  0.00    -0.020 C 
ATOM     17  C   UNL     1       5.431   0.368  -0.604  0.00  0.00    -0.004 C 
ATOM     18  C   UNL     1       4.689   1.772   1.217  0.00  0.00    -0.004 C 
ATOM     19  C   UNL     1       6.087   1.458  -1.177  0.00  0.00    -0.000 C 
ATOM     20  C   UNL     1       5.345   2.862   0.644  0.00  0.00    -0.000 C 
ATOM     21  C   UNL     1       6.044   2.704  -0.553  0.00  0.00    -0.000 C 
ENDBRANCH  15  16
ENDBRANCH  14  15
ENDBRANCH  11  14
ENDBRANCH   9  11
ENDBRANCH   5   9
ENDBRANCH   1   5
BRANCH   1  22
ATOM     22  C   UNL     1      -0.636   0.360  -0.920  0.00  0.00    +0.104 C 
BRANCH  22  23
ATOM     23  C   UNL     1      -1.617   1.456  -1.353  0.00  0.00    +0.131 C 
BRANCH  23  24
ATOM     24  C   UNL     1      -2.959   1.362  -0.644  0.00  0.00    -0.012 C 
ATOM     25  C   UNL     1      -3.000   1.491   0.730  0.00  0.00    -0.010 C 
ATOM     26  C   UNL     1      -4.098   1.150  -1.395  0.00  0.00    -0.004 C 
ATOM     27  C   UNL     1      -4.231   1.404   1.380  0.00  0.00    -0.045 C 
ATOM     28  C   UNL     1      -5.329   1.063  -0.745  0.00  0.00    -0.001 C 
ATOM     29  C   UNL     1      -5.396   1.190   0.642  0.00  0.00    -0.006 C 
BRANCH  27  30
ATOM     30  C   UNL     1      -4.303   1.538   2.864  0.00  0.00    -0.059 C 
BRANCH  30  31
ATOM     31  N   UNL     1      -4.165   0.252   3.548  0.00  0.00    +0.383 N 
ATOM     32  H   UNL     1      -4.221   0.395   4.556  0.00  0.00    -0.089 HD
ATOM     33  H   UNL     1      -3.264  -0.164   3.312  0.00  0.00    -0.089 HD
ATOM     34  H   UNL     1      -4.916  -0.373   3.251  0.00  0.00    -0.089 HD
ENDBRANCH  30  31
ENDBRANCH  27  30
ENDBRANCH  23  24
BRANCH  23  36
ATOM     35  O   UNL     1      -1.446   3.742  -0.504  0.00  0.00    -0.250 OA
ATOM     36  C   UNL     1      -0.984   2.829  -1.176  0.00  0.00    +0.318 C 
BRANCH  36  37
ATOM     37  O   UNL     1       0.185   2.946  -1.861  0.00  0.00    -0.480 OA
ATOM     38  H   UNL     1       0.506   2.225  -2.365  0.00  0.00    +0.295 HD
ENDBRANCH  36  37
ENDBRANCH  23  36
ENDBRANCH  22  23
ENDBRANCH   1  22
TORSDOF 15
