REMARK  Name = 9549180
REMARK  2 active torsions:
REMARK  status: ('A' for Active; 'I' for Inactive)
REMARK    1  A    between atoms: C_3  and  O_20
REMARK    2  A    between atoms: C_19  and  O_22
REMARK                            x       y       z     vdW  Elec       q    Type
REMARK                         _______ _______ _______ _____ _____    ______ ____
ROOT
ATOM      1  C   UNL     1       2.425  -0.516  -0.247  0.00  0.00    +0.027 C 
ATOM      2  C   UNL     1       1.780   0.746   0.372  0.00  0.00    +0.024 C 
ATOM      3  C   UNL     1       3.923  -0.236   0.067  0.00  0.00    +0.089 C 
ATOM      4  C   UNL     1       2.664   1.881  -0.152  0.00  0.00    +0.007 C 
ATOM      5  C   UNL     1       4.078   1.272  -0.247  0.00  0.00    +0.027 C 
ATOM      6  C   UNL     1       1.795  -1.714   0.477  0.00  0.00    +0.007 C 
ATOM      7  C   UNL     1       0.284   0.788   0.206  0.00  0.00    -0.026 C 
ATOM      8  C   UNL     1       2.197  -0.638  -1.778  0.00  0.00    +0.003 C 
ATOM      9  C   UNL     1       0.270  -1.764   0.274  0.00  0.00    +0.026 C 
ATOM     10  C   UNL     1      -0.456  -0.421   0.217  0.00  0.00    -0.026 C 
ATOM     11  C   UNL     1       4.933  -1.103  -0.678  0.00  0.00    +0.029 C 
ATOM     12  C   UNL     1      -0.388   2.010   0.131  0.00  0.00    -0.005 C 
ATOM     13  C   UNL     1      -1.880  -0.386   0.114  0.00  0.00    -0.004 C 
ATOM     14  C   UNL     1      -2.531   0.871   0.025  0.00  0.00    +0.003 C 
ATOM     15  C   UNL     1      -1.777   2.050   0.037  0.00  0.00    -0.000 C 
ATOM     16  C   UNL     1      -2.696  -1.541   0.088  0.00  0.00    +0.003 C 
ATOM     17  C   UNL     1      -3.931   0.938  -0.075  0.00  0.00    +0.037 C 
ATOM     18  C   UNL     1      -4.087  -1.460  -0.013  0.00  0.00    +0.037 C 
ATOM     19  C   UNL     1      -4.704  -0.220  -0.094  0.00  0.00    +0.134 C 
ENDROOT
BRANCH   3  20
ATOM     20  O   UNL     1       4.162  -0.421   1.470  0.00  0.00    -0.387 OA
ATOM     21  H   UNL     1       3.535   0.117   1.978  0.00  0.00    +0.210 HD
ENDBRANCH   3  20
BRANCH  19  22
ATOM     22  O   UNL     1      -6.058  -0.135  -0.193  0.00  0.00    -0.506 OA
ATOM     23  H   UNL     1      -6.473   0.703  -0.248  0.00  0.00    +0.292 HD
ENDBRANCH  19  22
TORSDOF 2
