REMARK  Name = 11167118
REMARK  6 active torsions:
REMARK  status: ('A' for Active; 'I' for Inactive)
REMARK    1  A    between atoms: N_2  and  C_6
REMARK    2  A    between atoms: N_2  and  C_15
REMARK    3  A    between atoms: C_8  and  O_25
REMARK    4  A    between atoms: C_17  and  C_24
REMARK    5  A    between atoms: O_25  and  C_27
REMARK    6  A    between atoms: C_30  and  C_34
REMARK                            x       y       z     vdW  Elec       q    Type
REMARK                         _______ _______ _______ _____ _____    ______ ____
ROOT
ATOM      1  N   UNL     1       0.139  -0.277  -0.954  0.00  0.00    -0.302 N 
ATOM      2  N   UNL     1       1.072  -1.430   0.701  0.00  0.00    -0.302 N 
ATOM      3  C   UNL     1      -0.858  -1.077  -0.458  0.00  0.00    +0.063 C 
ATOM      4  C   UNL     1      -0.250  -1.787   0.574  0.00  0.00    +0.060 C 
ATOM      5  C   UNL     1       1.272  -0.523  -0.230  0.00  0.00    +0.225 C 
ATOM      6  C   UNL     1      -2.199  -1.237  -0.812  0.00  0.00    +0.053 C 
ATOM      7  C   UNL     1      -2.939  -2.164  -0.072  0.00  0.00    +0.147 C 
ATOM      8  C   UNL     1      -1.009  -2.715   1.307  0.00  0.00    +0.019 C 
ATOM      9  C   UNL     1      -2.357  -2.891   0.969  0.00  0.00    +0.039 C 
ATOM     10  H   UNL     1       0.053   0.361  -1.699  0.00  0.00    +0.150 HD
ATOM     11  H   UNL     1       1.728  -1.777   1.348  0.00  0.00    +0.150 HD
ENDROOT
BRANCH   5  12
ATOM     12  N   UNL     1       2.394   0.160  -0.545  0.00  0.00    -0.303 N 
ATOM     13  H   UNL     1       2.272   0.869  -1.217  0.00  0.00    +0.150 HD
BRANCH  12  15
ATOM     14 CL   UNL     1       7.920  -0.458   1.504  0.00  0.00    -0.082 Cl
ATOM     15  C   UNL     1       3.725   0.018  -0.060  0.00  0.00    +0.047 C 
ATOM     16  C   UNL     1       4.747   0.757  -0.639  0.00  0.00    +0.019 C 
ATOM     17  C   UNL     1       6.051   0.618  -0.163  0.00  0.00    +0.083 C 
ATOM     18  C   UNL     1       3.981  -0.858   0.986  0.00  0.00    +0.015 C 
ATOM     19  C   UNL     1       6.320  -0.260   0.888  0.00  0.00    +0.062 C 
ATOM     20  C   UNL     1       5.285  -0.998   1.462  0.00  0.00    +0.013 C 
BRANCH  17  24
ATOM     21  F   UNL     1       6.656   2.212  -1.802  0.00  0.00    -0.166 F 
ATOM     22  F   UNL     1       7.752   2.249   0.075  0.00  0.00    -0.166 F 
ATOM     23  F   UNL     1       8.083   0.628  -1.344  0.00  0.00    -0.166 F 
ATOM     24  C   UNL     1       7.131   1.427  -0.805  0.00  0.00    +0.419 C 
ENDBRANCH  17  24
ENDBRANCH  12  15
ENDBRANCH   5  12
BRANCH   7  25
ATOM     25  O   UNL     1      -4.254  -2.362  -0.374  0.00  0.00    -0.453 OA
BRANCH  25  27
ATOM     26  N   UNL     1      -6.609   1.000  -1.022  0.00  0.00    -0.239 NA
ATOM     27  C   UNL     1      -5.038  -1.243  -0.590  0.00  0.00    +0.149 C 
ATOM     28  C   UNL     1      -4.941  -0.174   0.276  0.00  0.00    +0.061 C 
ATOM     29  C   UNL     1      -5.899  -1.219  -1.666  0.00  0.00    +0.058 C 
ATOM     30  C   UNL     1      -5.747   0.923   0.017  0.00  0.00    +0.137 C 
ATOM     31  C   UNL     1      -6.663  -0.076  -1.839  0.00  0.00    +0.102 C 
BRANCH  30  34
ATOM     32  O   UNL     1      -4.925   2.121   1.857  0.00  0.00    -0.268 OA
ATOM     33  N   UNL     1      -6.543   3.157   0.560  0.00  0.00    -0.298 N 
ATOM     34  C   UNL     1      -5.701   2.087   0.885  0.00  0.00    +0.264 C 
ATOM     35  C   UNL     1      -6.596   4.391   1.312  0.00  0.00    +0.111 C 
ATOM     36  H   UNL     1      -7.133   3.064  -0.223  0.00  0.00    +0.150 HD
ENDBRANCH  30  34
ENDBRANCH  25  27
ENDBRANCH   7  25
TORSDOF 6
