REMARK  Name = 9968957
REMARK  5 active torsions:
REMARK  status: ('A' for Active; 'I' for Inactive)
REMARK    1  A    between atoms: C_3  and  C_13
REMARK    2  A    between atoms: C_6  and  C_23
REMARK    3  A    between atoms: N_22  and  C_25
REMARK    4  A    between atoms: C_25  and  C_28
REMARK    5  A    between atoms: C_28  and  O_29
REMARK                            x       y       z     vdW  Elec       q    Type
REMARK                         _______ _______ _______ _____ _____    ______ ____
ROOT
ATOM      1  N   UNL     1       0.703   3.851  -0.114  0.00  0.00    -0.284 N 
ATOM      2  C   UNL     1       0.000   1.736  -0.007  0.00  0.00    +0.016 C 
ATOM      3  C   UNL     1       1.423   1.752  -0.043  0.00  0.00    +0.029 C 
ATOM      4  C   UNL     1      -0.426   3.065  -0.053  0.00  0.00    +0.052 C 
ATOM      5  C   UNL     1       1.825   3.066  -0.108  0.00  0.00    +0.067 C 
ATOM      6  C   UNL     1      -2.304   1.083   0.077  0.00  0.00    +0.053 C 
ATOM      7  C   UNL     1      -0.969   0.715   0.059  0.00  0.00    +0.006 C 
ATOM      8  C   UNL     1      -1.778   3.425  -0.035  0.00  0.00    +0.015 C 
ATOM      9  C   UNL     1      -2.721   2.396   0.032  0.00  0.00    +0.006 C 
ATOM     10  C   UNL     1       0.719   5.296  -0.175  0.00  0.00    +0.117 C 
ENDROOT
BRANCH   3  13
ATOM     11  N   UNL     1       2.068  -0.640  -0.515  0.00  0.00    -0.298 N 
ATOM     12  N   UNL     1       3.207  -2.755  -0.693  0.00  0.00    -0.229 NA
ATOM     13  C   UNL     1       2.344   0.606  -0.015  0.00  0.00    +0.051 C 
ATOM     14  C   UNL     1       3.619   0.584   0.509  0.00  0.00    +0.017 C 
ATOM     15  C   UNL     1       4.137  -0.725   0.321  0.00  0.00    +0.033 C 
ATOM     16  C   UNL     1       3.146  -1.463  -0.320  0.00  0.00    +0.132 C 
ATOM     17  C   UNL     1       5.341  -1.383   0.620  0.00  0.00    +0.004 C 
ATOM     18  C   UNL     1       5.458  -2.723   0.255  0.00  0.00    +0.021 C 
ATOM     19  C   UNL     1       4.388  -3.338  -0.381  0.00  0.00    +0.100 C 
ATOM     20  H   UNL     1       1.224  -0.904  -0.949  0.00  0.00    +0.154 HD
ENDBRANCH   3  13
BRANCH   6  23
ATOM     21  O   UNL     1      -4.430   0.267   0.634  0.00  0.00    -0.270 OA
ATOM     22  N   UNL     1      -2.956  -1.210  -0.376  0.00  0.00    -0.302 N 
ATOM     23  C   UNL     1      -3.331   0.012   0.148  0.00  0.00    +0.246 C 
ATOM     24  H   UNL     1      -2.048  -1.312  -0.743  0.00  0.00    +0.150 HD
BRANCH  22  25
ATOM     25  C   UNL     1      -3.858  -2.349  -0.403  0.00  0.00    +0.084 C 
ATOM     26  C   UNL     1      -3.134  -3.539  -1.046  0.00  0.00    +0.022 C 
ATOM     27  C   UNL     1      -5.093  -1.991  -1.242  0.00  0.00    +0.022 C 
BRANCH  25  28
ATOM     28  C   UNL     1      -4.257  -2.716   1.037  0.00  0.00    +0.155 C 
BRANCH  28  29
ATOM     29  O   UNL     1      -3.118  -3.022   1.833  0.00  0.00    -0.380 OA
ATOM     30  H   UNL     1      -3.404  -3.249   2.733  0.00  0.00    +0.211 HD
ENDBRANCH  28  29
ENDBRANCH  25  28
ENDBRANCH  22  25
ENDBRANCH   6  23
TORSDOF 5
