REMARK  Name = 448123
REMARK  11 active torsions:
REMARK  status: ('A' for Active; 'I' for Inactive)
REMARK    1  A    between atoms: C_1  and  C_20
REMARK    2  A    between atoms: C_2  and  O_18
REMARK    3  A    between atoms: C_8  and  C_10
REMARK    4  A    between atoms: C_15  and  O_16
REMARK    5  A    between atoms: C_20  and  C_22
REMARK    6  A    between atoms: C_20  and  C_25
REMARK    7  A    between atoms: C_22  and  O_23
REMARK    8  A    between atoms: C_25  and  C_26
REMARK    9  A    between atoms: C_26  and  C_27
REMARK   10  A    between atoms: C_27  and  C_28
REMARK   11  A    between atoms: C_28  and  C_31
REMARK                            x       y       z     vdW  Elec       q    Type
REMARK                         _______ _______ _______ _____ _____    ______ ____
ROOT
ATOM      1  C   UNL     1      -0.625  -1.075  -0.999  0.00  0.00    +0.060 C 
ATOM      2  C   UNL     1      -1.017  -2.571  -1.046  0.00  0.00    +0.119 C 
ATOM      3  C   UNL     1       0.797  -1.166  -0.514  0.00  0.00    -0.023 C 
ATOM      4  C   UNL     1      -0.141  -3.308  -0.018  0.00  0.00    +0.056 C 
ATOM      5  C   UNL     1       1.069  -2.426   0.029  0.00  0.00    -0.024 C 
ATOM      6  C   UNL     1       1.771  -0.179  -0.545  0.00  0.00    -0.004 C 
ATOM      7  C   UNL     1       2.313  -2.722   0.563  0.00  0.00    -0.004 C 
ATOM      8  C   UNL     1       3.031  -0.472  -0.019  0.00  0.00    -0.000 C 
ATOM      9  C   UNL     1       3.299  -1.735   0.532  0.00  0.00    -0.000 C 
ENDROOT
BRANCH   8  10
ATOM     10  C   UNL     1       4.069   0.536  -0.040  0.00  0.00    +0.000 C 
ATOM     11  C   UNL     1       5.045   0.551   0.956  0.00  0.00    +0.003 C 
ATOM     12  C   UNL     1       4.092   1.492  -1.054  0.00  0.00    +0.003 C 
ATOM     13  C   UNL     1       6.045   1.524   0.938  0.00  0.00    +0.037 C 
ATOM     14  C   UNL     1       5.092   2.465  -1.073  0.00  0.00    +0.037 C 
ATOM     15  C   UNL     1       6.068   2.480  -0.077  0.00  0.00    +0.134 C 
BRANCH  15  16
ATOM     16  O   UNL     1       7.043   3.430  -0.095  0.00  0.00    -0.506 OA
ATOM     17  H   UNL     1       7.699   3.441   0.574  0.00  0.00    +0.292 HD
ENDBRANCH  15  16
ENDBRANCH   8  10
BRANCH   2  18
ATOM     18  O   UNL     1      -0.722  -3.098  -2.343  0.00  0.00    -0.384 OA
ATOM     19  H   UNL     1      -1.264  -2.646  -3.007  0.00  0.00    +0.210 HD
ENDBRANCH   2  18
BRANCH   1  20
ATOM     20  C   UNL     1      -1.491  -0.283  -0.026  0.00  0.00    +0.105 C 
BRANCH  20  22
ATOM     21  O   UNL     1      -2.225  -1.692   1.822  0.00  0.00    -0.250 OA
ATOM     22  C   UNL     1      -1.427  -0.883   1.370  0.00  0.00    +0.314 C 
BRANCH  22  23
ATOM     23  O   UNL     1      -0.365  -0.421   2.079  0.00  0.00    -0.480 OA
ATOM     24  H   UNL     1       0.223   0.199   1.694  0.00  0.00    +0.295 HD
ENDBRANCH  22  23
ENDBRANCH  20  22
BRANCH  20  25
ATOM     25  C   UNL     1      -2.945  -0.141  -0.505  0.00  0.00    +0.012 C 
BRANCH  25  26
ATOM     26  C   UNL     1      -3.811   0.799   0.343  0.00  0.00    +0.001 C 
BRANCH  26  27
ATOM     27  C   UNL     1      -5.221   0.927  -0.242  0.00  0.00    +0.008 C 
BRANCH  27  28
ATOM     28  C   UNL     1      -6.107   1.883   0.557  0.00  0.00    +0.060 C 
BRANCH  28  31
ATOM     29  N   UNL     1      -7.712   2.900  -1.022  0.00  0.00    -0.346 N 
ATOM     30  N   UNL     1      -8.421   1.200   0.453  0.00  0.00    -0.289 NA
ATOM     31  C   UNL     1      -7.505   1.986  -0.023  0.00  0.00    +0.093 C 
ATOM     32  H   UNL     1      -8.605   2.996  -1.424  0.00  0.00    +0.143 HD
ATOM     33  H   UNL     1      -6.967   3.461  -1.339  0.00  0.00    +0.143 HD
ATOM     34  H   UNL     1      -9.338   1.242   0.099  0.00  0.00    +0.188 HD
ENDBRANCH  28  31
ENDBRANCH  27  28
ENDBRANCH  26  27
ENDBRANCH  25  26
ENDBRANCH  20  25
ENDBRANCH   1  20
TORSDOF 11
