REMARK  Name = 2366
REMARK  3 active torsions:
REMARK  status: ('A' for Active; 'I' for Inactive)
REMARK    1  A    between atoms: C_1  and  C_3
REMARK    2  A    between atoms: C_1  and  C_8
REMARK    3  A    between atoms: C_8  and  N_9
REMARK                            x       y       z     vdW  Elec       q    Type
REMARK                         _______ _______ _______ _____ _____    ______ ____
ROOT
ATOM      1  C   UNL     1       0.923   0.028   0.929  0.00  0.00    +0.023 C 
ENDROOT
BRANCH   1   3
ATOM      2  N   UNL     1      -1.042  -1.198   0.222  0.00  0.00    -0.248 NA
ATOM      3  C   UNL     1      -0.481   0.016   0.423  0.00  0.00    +0.057 C 
ATOM      4  C   UNL     1      -1.129   1.218   0.190  0.00  0.00    +0.015 C 
ATOM      5  C   UNL     1      -2.437   1.172  -0.280  0.00  0.00    +0.003 C 
ATOM      6  C   UNL     1      -2.314  -1.202  -0.236  0.00  0.00    +0.098 C 
ATOM      7  C   UNL     1      -3.048  -0.057  -0.500  0.00  0.00    +0.021 C 
ENDBRANCH   1   3
BRANCH   1   8
ATOM      8  C   UNL     1       1.945   0.032  -0.218  0.00  0.00    -0.075 C 
BRANCH   8   9
ATOM      9  N   UNL     1       3.315   0.017   0.284  0.00  0.00    +0.383 N 
ATOM     10  C   UNL     1       4.269  -0.025  -0.815  0.00  0.00    -0.106 C 
ATOM     11  H   UNL     1       3.447  -0.807   0.872  0.00  0.00    -0.085 HD
ATOM     12  H   UNL     1       3.475   0.868   0.823  0.00  0.00    -0.085 HD
ENDBRANCH   8   9
ENDBRANCH   1   8
TORSDOF 3
