REMARK  Name = 6857686
REMARK  3 active torsions:
REMARK  status: ('A' for Active; 'I' for Inactive)
REMARK    1  A    between atoms: C_2  and  C_21
REMARK    2  A    between atoms: C_4  and  O_19
REMARK    3  A    between atoms: C_4  and  C_23
REMARK                            x       y       z     vdW  Elec       q    Type
REMARK                         _______ _______ _______ _____ _____    ______ ____
ROOT
ATOM      1  O   UNL     1      -6.340  -0.257   0.384  0.00  0.00    -0.291 OA
ATOM      2  C   UNL     1       2.105  -0.382  -0.351  0.00  0.00    +0.041 C 
ATOM      3  C   UNL     1       1.330   0.903   0.021  0.00  0.00    +0.010 C 
ATOM      4  C   UNL     1       3.500  -0.045   0.255  0.00  0.00    +0.092 C 
ATOM      5  C   UNL     1      -0.106   0.891  -0.516  0.00  0.00    +0.023 C 
ATOM      6  C   UNL     1       2.276   2.022  -0.394  0.00  0.00    +0.003 C 
ATOM      7  C   UNL     1       3.679   1.460  -0.089  0.00  0.00    +0.027 C 
ATOM      8  C   UNL     1       1.330  -1.543   0.212  0.00  0.00    -0.025 C 
ATOM      9  C   UNL     1      -0.852  -0.351   0.012  0.00  0.00    -0.027 C 
ATOM     10  C   UNL     1      -0.842   2.175  -0.118  0.00  0.00    +0.009 C 
ATOM     11  C   UNL     1      -0.006  -1.503   0.366  0.00  0.00    -0.009 C 
ATOM     12  C   UNL     1      -2.200  -0.330   0.186  0.00  0.00    -0.030 C 
ATOM     13  C   UNL     1      -2.284   2.114  -0.599  0.00  0.00    +0.026 C 
ATOM     14  C   UNL     1      -3.001   0.864  -0.149  0.00  0.00    -0.024 C 
ATOM     15  C   UNL     1      -2.998  -1.472   0.795  0.00  0.00    +0.034 C 
ATOM     16  C   UNL     1      -4.343   0.895  -0.082  0.00  0.00    +0.033 C 
ATOM     17  C   UNL     1      -4.388  -1.635   0.196  0.00  0.00    +0.074 C 
ATOM     18  C   UNL     1      -5.126  -0.325   0.215  0.00  0.00    +0.173 C 
ENDROOT
BRANCH   4  19
ATOM     19  O   UNL     1       4.530  -0.805  -0.372  0.00  0.00    -0.386 OA
ATOM     20  H   UNL     1       4.484  -0.681  -1.333  0.00  0.00    +0.210 HD
ENDBRANCH   4  19
BRANCH   2  21
ATOM     21  C   UNL     1       2.224  -0.633  -1.878  0.00  0.00    +0.006 C 
ATOM     22  C   UNL     1       2.916  -1.944  -2.144  0.00  0.00    +0.000 C 
ENDBRANCH   2  21
BRANCH   4  23
ATOM     23  C   UNL     1       3.625  -0.282   1.767  0.00  0.00    +0.027 C 
ATOM     24  C   UNL     1       4.971   0.182   2.282  0.00  0.00    +0.002 C 
ENDBRANCH   4  23
TORSDOF 3
