REMARK  Name = 3699
REMARK  8 active torsions:
REMARK  status: ('A' for Active; 'I' for Inactive)
REMARK    1  A    between atoms: C_1  and  N_2
REMARK    2  A    between atoms: C_1  and  P_12
REMARK    3  A    between atoms: C_1  and  P_18
REMARK    4  A    between atoms: N_2  and  C_5
REMARK    5  A    between atoms: P_12  and  O_14
REMARK    6  A    between atoms: P_12  and  O_16
REMARK    7  A    between atoms: P_18  and  O_20
REMARK    8  A    between atoms: P_18  and  O_22
REMARK                            x       y       z     vdW  Elec       q    Type
REMARK                         _______ _______ _______ _____ _____    ______ ____
ROOT
ATOM      1  C   UNL     1      -0.997   0.077  -0.334  0.00  0.00    +0.152 C 
ENDROOT
BRANCH   1   2
ATOM      2  N   UNL     1       0.088   0.099   0.627  0.00  0.00    +0.402 N 
ATOM      3  H   UNL     1       0.601   0.973   0.511  0.00  0.00    -0.083 HD
ATOM      4  H   UNL     1      -0.335   0.012   1.551  0.00  0.00    -0.083 HD
BRANCH   2   5
ATOM      5  C   UNL     1       1.030  -1.009   0.488  0.00  0.00    -0.060 C 
ATOM      6  C   UNL     1       2.254  -0.879   1.403  0.00  0.00    -0.021 C 
ATOM      7  C   UNL     1       1.401  -1.277  -0.977  0.00  0.00    -0.021 C 
ATOM      8  C   UNL     1       2.988   0.460   1.436  0.00  0.00    -0.002 C 
ATOM      9  C   UNL     1       2.137  -0.171  -1.726  0.00  0.00    -0.002 C 
ATOM     10  C   UNL     1       3.276   1.163   0.113  0.00  0.00    -0.000 C 
ATOM     11  C   UNL     1       3.461   0.260  -1.099  0.00  0.00    -0.000 C 
ENDBRANCH   2   5
ENDBRANCH   1   2
BRANCH   1  12
ATOM     12  P   UNL     1      -1.825  -1.489  -0.053  0.00  0.00    +0.329 P 
ATOM     13  O   UNL     1      -0.979  -2.714  -0.243  0.00  0.00    -0.260 OA
BRANCH  12  14
ATOM     14  O   UNL     1      -3.159  -1.418  -0.965  0.00  0.00    -0.325 OA
ATOM     15  H   UNL     1      -3.664  -2.239  -0.864  0.00  0.00    +0.220 HD
ENDBRANCH  12  14
BRANCH  12  16
ATOM     16  O   UNL     1      -2.417  -1.311   1.442  0.00  0.00    -0.325 OA
ATOM     17  H   UNL     1      -2.894  -2.116   1.699  0.00  0.00    +0.220 HD
ENDBRANCH  12  16
ENDBRANCH   1  12
BRANCH   1  18
ATOM     18  P   UNL     1      -1.708   1.701   0.022  0.00  0.00    +0.329 P 
ATOM     19  O   UNL     1      -2.192   1.895   1.429  0.00  0.00    -0.260 OA
BRANCH  18  20
ATOM     20  O   UNL     1      -0.532   2.713  -0.433  0.00  0.00    -0.325 OA
ATOM     21  H   UNL     1      -0.816   3.628  -0.281  0.00  0.00    +0.220 HD
ENDBRANCH  18  20
BRANCH  18  22
ATOM     22  O   UNL     1      -2.825   1.899  -1.130  0.00  0.00    -0.325 OA
ATOM     23  H   UNL     1      -3.262   2.757  -1.013  0.00  0.00    +0.220 HD
ENDBRANCH  18  22
ENDBRANCH   1  18
TORSDOF 8
