REMARK  Name = 447400
REMARK  8 active torsions:
REMARK  status: ('A' for Active; 'I' for Inactive)
REMARK    1  A    between atoms: C_1  and  S_7
REMARK    2  A    between atoms: C_4  and  C_19
REMARK    3  A    between atoms: C_5  and  O_16
REMARK    4  A    between atoms: S_7  and  N_10
REMARK    5  A    between atoms: N_10  and  C_12
REMARK    6  A    between atoms: C_12  and  C_13
REMARK    7  A    between atoms: C_13  and  S_14
REMARK    8  A    between atoms: C_19  and  O_20
REMARK                            x       y       z     vdW  Elec       q    Type
REMARK                         _______ _______ _______ _____ _____    ______ ____
ROOT
ATOM      1  C   UNL     1       0.110   0.954  -0.243  0.00  0.00    +0.122 C 
ATOM      2  C   UNL     1      -0.627  -0.188  -0.555  0.00  0.00    +0.029 C 
ATOM      3  C   UNL     1      -0.468   1.971   0.517  0.00  0.00    +0.023 C 
ATOM      4  C   UNL     1      -1.943  -0.313  -0.108  0.00  0.00    +0.110 C 
ATOM      5  C   UNL     1      -2.521   0.704   0.652  0.00  0.00    +0.140 C 
ATOM      6  C   UNL     1      -1.784   1.846   0.965  0.00  0.00    +0.038 C 
ENDROOT
BRANCH   1   7
ATOM      7  S   UNL     1       1.757   1.112  -0.802  0.00  0.00    +0.060 S 
ATOM      8  O   UNL     1       1.927   0.291  -1.994  0.00  0.00    -0.153 OA
ATOM      9  O   UNL     1       2.071   2.533  -0.864  0.00  0.00    -0.153 OA
BRANCH   7  10
ATOM     10  N   UNL     1       2.648   0.411   0.476  0.00  0.00    -0.179 NA
ATOM     11  H   UNL     1       2.461   0.972   1.308  0.00  0.00    +0.149 HD
BRANCH  10  12
ATOM     12  C   UNL     1       2.416  -0.992   0.848  0.00  0.00    +0.103 C 
BRANCH  12  13
ATOM     13  C   UNL     1       3.681  -1.615   1.420  0.00  0.00    +0.072 C 
BRANCH  13  14
ATOM     14  S   UNL     1       5.046  -1.630   0.218  0.00  0.00    -0.166 S 
ATOM     15  H   UNL     1       6.144  -2.197   0.786  0.00  0.00    +0.102 HD
ENDBRANCH  13  14
ENDBRANCH  12  13
ENDBRANCH  10  12
ENDBRANCH   7  10
ENDBRANCH   1   7
BRANCH   5  16
ATOM     16  O   UNL     1      -3.804   0.601   1.098  0.00  0.00    -0.505 OA
ATOM     17  H   UNL     1      -4.311  -0.161   0.895  0.00  0.00    +0.292 HD
ENDBRANCH   5  16
BRANCH   4  19
ATOM     18  O   UNL     1      -3.918  -1.569  -0.600  0.00  0.00    -0.245 OA
ATOM     19  C   UNL     1      -2.695  -1.513  -0.446  0.00  0.00    +0.341 C 
BRANCH  19  20
ATOM     20  O   UNL     1      -1.895  -2.605  -0.581  0.00  0.00    -0.477 OA
ATOM     21  H   UNL     1      -0.970  -2.527  -0.457  0.00  0.00    +0.295 HD
ENDBRANCH  19  20
ENDBRANCH   4  19
TORSDOF 8
