REMARK  Name = 244
REMARK  2 active torsions:
REMARK  status: ('A' for Active; 'I' for Inactive)
REMARK    1  A    between atoms: C_1  and  C_7
REMARK    2  A    between atoms: C_7  and  O_8
REMARK                            x       y       z     vdW  Elec       q    Type
REMARK                         _______ _______ _______ _____ _____    ______ ____
ROOT
ATOM      1  C   UNL     1       0.576   0.000   0.272  0.00  0.00    +0.007 C 
ATOM      2  C   UNL     1      -0.111   1.208   0.151  0.00  0.00    -0.002 C 
ATOM      3  C   UNL     1      -0.111  -1.208   0.151  0.00  0.00    -0.002 C 
ATOM      4  C   UNL     1      -1.485   1.208  -0.091  0.00  0.00    -0.000 C 
ATOM      5  C   UNL     1      -1.485  -1.208  -0.092  0.00  0.00    -0.000 C 
ATOM      6  C   UNL     1      -2.171   0.000  -0.213  0.00  0.00    -0.000 C 
ENDROOT
BRANCH   1   7
ATOM      7  C   UNL     1       2.045   0.000   0.531  0.00  0.00    +0.164 C 
BRANCH   7   8
ATOM      8  O   UNL     1       2.743   0.000  -0.708  0.00  0.00    -0.377 OA
ATOM      9  H   UNL     1       3.698   0.000  -0.541  0.00  0.00    +0.211 HD
ENDBRANCH   7   8
ENDBRANCH   1   7
TORSDOF 2
