REMARK  Name = 6433083
REMARK  11 active torsions:
REMARK  status: ('A' for Active; 'I' for Inactive)
REMARK    1  A    between atoms: C_1  and  C_3
REMARK    2  A    between atoms: C_1  and  C_11
REMARK    3  A    between atoms: C_3  and  O_4
REMARK    4  A    between atoms: O_4  and  C_5
REMARK    5  A    between atoms: C_5  and  C_6
REMARK    6  A    between atoms: C_6  and  C_7
REMARK    7  A    between atoms: C_7  and  C_8
REMARK    8  A    between atoms: C_8  and  C_9
REMARK    9  A    between atoms: C_11  and  C_13
REMARK   10  A    between atoms: C_13  and  C_14
REMARK   11  A    between atoms: C_14  and  N_15
REMARK                            x       y       z     vdW  Elec       q    Type
REMARK                         _______ _______ _______ _____ _____    ______ ____
ROOT
ATOM      1  C   UNL     1      -1.974   0.223   0.031  0.00  0.00    +0.117 C 
ENDROOT
BRANCH   1   3
ATOM      2  O   UNL     1      -0.806  -1.913   0.015  0.00  0.00    -0.250 OA
ATOM      3  C   UNL     1      -0.767  -0.690   0.015  0.00  0.00    +0.317 C 
BRANCH   3   4
ATOM      4  O   UNL     1       0.365   0.075   0.008  0.00  0.00    -0.448 OA
BRANCH   4   5
ATOM      5  C   UNL     1       1.599  -0.651   0.001  0.00  0.00    +0.208 C 
BRANCH   5   6
ATOM      6  C   UNL     1       2.754   0.342  -0.006  0.00  0.00    +0.047 C 
BRANCH   6   7
ATOM      7  C   UNL     1       4.105  -0.371  -0.030  0.00  0.00    +0.004 C 
BRANCH   7   8
ATOM      8  C   UNL     1       5.300   0.587  -0.005  0.00  0.00    +0.000 C 
BRANCH   8   9
ATOM      9  C   UNL     1       6.652  -0.126  -0.053  0.00  0.00    +0.000 C 
ATOM     10  C   UNL     1       7.803   0.863   0.047  0.00  0.00    +0.000 C 
ENDBRANCH   8   9
ENDBRANCH   7   8
ENDBRANCH   6   7
ENDBRANCH   5   6
ENDBRANCH   4   5
ENDBRANCH   3   4
ENDBRANCH   1   3
BRANCH   1  11
ATOM     11  C   UNL     1      -3.294  -0.543   0.025  0.00  0.00    +0.074 C 
BRANCH  11  13
ATOM     12  O   UNL     1      -4.428   1.588   0.003  0.00  0.00    -0.298 OA
ATOM     13  C   UNL     1      -4.520   0.362  -0.001  0.00  0.00    +0.129 C 
BRANCH  13  14
ATOM     14  C   UNL     1      -5.855  -0.361  -0.020  0.00  0.00    -0.020 C 
BRANCH  14  15
ATOM     15  N   UNL     1      -6.934   0.616  -0.029  0.00  0.00    +0.385 N 
ATOM     16  H   UNL     1      -7.831   0.131  -0.042  0.00  0.00    -0.089 HD
ATOM     17  H   UNL     1      -6.853   1.204  -0.859  0.00  0.00    -0.089 HD
ATOM     18  H   UNL     1      -6.874   1.197   0.806  0.00  0.00    -0.089 HD
ENDBRANCH  14  15
ENDBRANCH  13  14
ENDBRANCH  11  13
ENDBRANCH   1  11
TORSDOF 11
