REMARK  Name = 10631973
REMARK  7 active torsions:
REMARK  status: ('A' for Active; 'I' for Inactive)
REMARK    1  A    between atoms: CA_1  and  N_3
REMARK    2  A    between atoms: CA_1  and  C_10
REMARK    3  A    between atoms: CA_1  and  CB_13
REMARK    4  A    between atoms: C_4  and  O_6
REMARK    5  A    between atoms: O_6  and  C_7
REMARK    6  A    between atoms: C_10  and  O_11
REMARK    7  A    between atoms: CB_13  and  CG_14
REMARK                            x       y       z     vdW  Elec       q    Type
REMARK                         _______ _______ _______ _____ _____    ______ ____
ROOT
ATOM      1  CA  UNL     1      -1.241   0.385  -0.088  0.00  0.00    +0.174 C 
ENDROOT
BRANCH   1   3
ATOM      2  O   UNL     1       1.262   0.784  -1.506  0.00  0.00    -0.226 OA
ATOM      3  N   UNL     1       0.089   0.065   0.362  0.00  0.00    -0.262 N 
ATOM      4  C   ACE A   0       1.230   0.291  -0.383  0.00  0.00    +0.402 C 
ATOM      5  H   UNL     1       0.191  -0.338   1.255  0.00  0.00    +0.153 HD
BRANCH   4   6
ATOM      6  O   UNL     1       2.330  -0.117   0.317  0.00  0.00    -0.435 OA
BRANCH   6   7
ATOM      7  C   UNL     1       3.590   0.059  -0.341  0.00  0.00    +0.210 C 
ATOM      8  C   UNL     1       4.694  -0.441   0.566  0.00  0.00    +0.051 C 
ENDBRANCH   6   7
ENDBRANCH   4   6
ENDBRANCH   1   3
BRANCH   1  10
ATOM      9  OXT UNL     1      -2.663   2.335  -0.261  0.00  0.00    -0.248 OA
ATOM     10  C   UNL     1      -1.624   1.835   0.157  0.00  0.00    +0.332 C 
BRANCH  10  11
ATOM     11  O   UNL     1      -0.696   2.555   0.832  0.00  0.00    -0.479 OA
ATOM     12  H   UNL     1       0.087   2.141   1.137  0.00  0.00    +0.295 HD
ENDBRANCH  10  11
ENDBRANCH   1  10
BRANCH   1  13
ATOM     13  CB  UNL     1      -2.288  -0.609   0.438  0.00  0.00    +0.031 C 
BRANCH  13  14
ATOM     14  CG  UNL     1      -2.019  -2.116   0.226  0.00  0.00    +0.002 C 
ATOM     15  CD1 UNL     1      -1.883  -2.398  -1.275  0.00  0.00    +0.000 C 
ATOM     16  CD2 UNL     1      -0.779  -2.629   0.954  0.00  0.00    +0.000 C 
ENDBRANCH  13  14
ENDBRANCH   1  13
TORSDOF 7
