REMARK  Name = 131704303
REMARK  8 active torsions:
REMARK  status: ('A' for Active; 'I' for Inactive)
REMARK    1  A    between atoms: C_1  and  N_15
REMARK    2  A    between atoms: C_2  and  C_10
REMARK    3  A    between atoms: C_3  and  C_14
REMARK    4  A    between atoms: N_15  and  C_17
REMARK    5  A    between atoms: C_17  and  S_18
REMARK    6  A    between atoms: C_17  and  C_20
REMARK    7  A    between atoms: C_20  and  C_23
REMARK    8  A    between atoms: C_20  and  C_27
REMARK                            x       y       z     vdW  Elec       q    Type
REMARK                         _______ _______ _______ _____ _____    ______ ____
ROOT
ATOM      1  C   UNL     1      -0.110   0.604   0.553  0.00  0.00    +0.045 C 
ATOM      2  C   UNL     1      -1.473  -1.331   0.070  0.00  0.00    +0.073 C 
ATOM      3  C   UNL     1      -2.454   0.877   0.039  0.00  0.00    +0.073 C 
ATOM      4  C   UNL     1      -1.218   1.431   0.372  0.00  0.00    +0.018 C 
ATOM      5  C   UNL     1      -0.237  -0.777   0.403  0.00  0.00    +0.018 C 
ATOM      6  C   UNL     1      -2.582  -0.504  -0.112  0.00  0.00    +0.008 C 
ENDROOT
BRANCH   2  10
ATOM      7  F   UNL     1      -2.881  -3.184  -0.417  0.00  0.00    -0.166 F 
ATOM      8  F   UNL     1      -0.812  -3.327  -1.071  0.00  0.00    -0.166 F 
ATOM      9  F   UNL     1      -1.296  -3.512   1.035  0.00  0.00    -0.166 F 
ATOM     10  C   UNL     1      -1.610  -2.807  -0.092  0.00  0.00    +0.419 C 
ENDBRANCH   2  10
BRANCH   3  14
ATOM     11  F   UNL     1      -4.768   1.063  -0.476  0.00  0.00    -0.166 F 
ATOM     12  F   UNL     1      -3.964   2.493   0.951  0.00  0.00    -0.166 F 
ATOM     13  F   UNL     1      -3.480   2.678  -1.155  0.00  0.00    -0.166 F 
ATOM     14  C   UNL     1      -3.639   1.761  -0.155  0.00  0.00    +0.419 C 
ENDBRANCH   3  14
BRANCH   1  15
ATOM     15  N   UNL     1       1.118   1.154   0.884  0.00  0.00    -0.325 N 
ATOM     16  H   UNL     1       1.144   2.123   1.058  0.00  0.00    +0.148 HD
BRANCH  15  17
ATOM     17  C   UNL     1       2.373   0.425   0.996  0.00  0.00    +0.138 C 
BRANCH  17  18
ATOM     18  S   UNL     1       3.456   1.331   2.176  0.00  0.00    -0.148 S 
ATOM     19  H   UNL     1       2.819   1.457   3.371  0.00  0.00    +0.104 HD
ENDBRANCH  17  18
BRANCH  17  20
ATOM     20  C   UNL     1       3.027   0.240  -0.394  0.00  0.00    +0.195 C 
BRANCH  20  23
ATOM     21  O   UNL     1       5.424  -0.113  -0.159  0.00  0.00    -0.274 OA
ATOM     22  N   UNL     1       4.071  -1.950  -0.407  0.00  0.00    -0.328 N 
ATOM     23  C   UNL     1       4.303  -0.595  -0.306  0.00  0.00    +0.236 C 
ATOM     24  H   UNL     1       4.824  -2.583  -0.363  0.00  0.00    +0.145 HD
ATOM     25  H   UNL     1       3.152  -2.285  -0.524  0.00  0.00    +0.145 HD
ENDBRANCH  20  23
BRANCH  20  27
ATOM     26  N   UNL     1       3.472   2.522  -1.642  0.00  0.00    -0.195 NA
ATOM     27  C   UNL     1       3.279   1.519  -1.092  0.00  0.00    +0.084 C 
ENDBRANCH  20  27
ENDBRANCH  17  20
ENDBRANCH  15  17
ENDBRANCH   1  15
TORSDOF 8
