REMARK  Name = 5335
REMARK  5 active torsions:
REMARK  status: ('A' for Active; 'I' for Inactive)
REMARK    1  A    between atoms: N_1  and  C_5
REMARK    2  A    between atoms: N_1  and  S_14
REMARK    3  A    between atoms: N_3  and  C_8
REMARK    4  A    between atoms: S_14  and  C_17
REMARK    5  A    between atoms: C_22  and  N_23
REMARK                            x       y       z     vdW  Elec       q    Type
REMARK                         _______ _______ _______ _____ _____    ______ ____
ROOT
ATOM      1  N   UNL     1       0.724  -1.572  -0.844  0.00  0.00    -0.201 N 
ATOM      2  H   UNL     1       0.403  -1.477  -1.770  0.00  0.00    +0.175 HD
ENDROOT
BRANCH   1   5
ATOM      3  N   UNL     1       2.540   0.056  -0.178  0.00  0.00    -0.175 N 
ATOM      4  N   UNL     1       3.857   0.076   0.116  0.00  0.00    -0.171 NA
ATOM      5  C   UNL     1       2.078  -1.198  -0.483  0.00  0.00    +0.141 C 
ATOM      6  C   UNL     1       3.158  -2.041  -0.381  0.00  0.00    +0.055 C 
ATOM      7  C   UNL     1       4.225  -1.202  -0.009  0.00  0.00    +0.121 C 
BRANCH   3   8
ATOM      8  C   UNL     1       1.798   1.223  -0.154  0.00  0.00    +0.075 C 
ATOM      9  C   UNL     1       0.699   1.367  -1.001  0.00  0.00    +0.017 C 
ATOM     10  C   UNL     1       2.150   2.255   0.715  0.00  0.00    +0.017 C 
ATOM     11  C   UNL     1      -0.049   2.545  -0.977  0.00  0.00    +0.001 C 
ATOM     12  C   UNL     1       1.402   3.432   0.739  0.00  0.00    +0.001 C 
ATOM     13  C   UNL     1       0.302   3.577  -0.107  0.00  0.00    +0.000 C 
ENDBRANCH   3   8
ENDBRANCH   1   5
BRANCH   1  14
ATOM     14  S   UNL     1      -0.299  -2.185   0.384  0.00  0.00    +0.075 S 
ATOM     15  O   UNL     1      -0.704  -3.528   0.013  0.00  0.00    -0.150 OA
ATOM     16  O   UNL     1       0.279  -1.942   1.692  0.00  0.00    -0.150 OA
BRANCH  14  17
ATOM     17  C   UNL     1      -1.731  -1.156   0.227  0.00  0.00    +0.125 C 
ATOM     18  C   UNL     1      -2.752  -1.548  -0.621  0.00  0.00    +0.021 C 
ATOM     19  C   UNL     1      -1.799   0.019   0.953  0.00  0.00    +0.021 C 
ATOM     20  C   UNL     1      -3.879  -0.736  -0.746  0.00  0.00    +0.015 C 
ATOM     21  C   UNL     1      -2.927   0.830   0.828  0.00  0.00    +0.015 C 
ATOM     22  C   UNL     1      -3.967   0.453  -0.021  0.00  0.00    +0.042 C 
BRANCH  22  23
ATOM     23  N   UNL     1      -5.107   1.273  -0.146  0.00  0.00    -0.357 N 
ATOM     24  H   UNL     1      -5.842   1.007  -0.745  0.00  0.00    +0.142 HD
ATOM     25  H   UNL     1      -5.169   2.111   0.367  0.00  0.00    +0.142 HD
ENDBRANCH  22  23
ENDBRANCH  14  17
ENDBRANCH   1  14
TORSDOF 5
