REMARK  Name = 7023019
REMARK  2 active torsions:
REMARK  status: ('A' for Active; 'I' for Inactive)
REMARK    1  A    between atoms: C_2  and  C_4
REMARK    2  A    between atoms: C_2  and  C_11
REMARK                            x       y       z     vdW  Elec       q    Type
REMARK                         _______ _______ _______ _____ _____    ______ ____
ROOT
ATOM      1  O   UNL     1      -0.487  -2.412   0.000  0.00  0.00    -0.287 OA
ATOM      2  C   UNL     1      -0.387  -1.175   0.000  0.00  0.00    +0.196 C 
ENDROOT
BRANCH   2   4
ATOM      3  F   UNL     1       4.646   1.242   0.001  0.00  0.00    -0.204 F 
ATOM      4  C   UNL     1       0.924  -0.546  -0.001  0.00  0.00    +0.039 C 
ATOM      5  C   UNL     1       1.029   0.845  -0.001  0.00  0.00    +0.005 C 
ATOM      6  C   UNL     1       2.076  -1.333   0.000  0.00  0.00    +0.005 C 
ATOM      7  C   UNL     1       2.286   1.449  -0.001  0.00  0.00    +0.030 C 
ATOM      8  C   UNL     1       3.333  -0.728   0.001  0.00  0.00    +0.030 C 
ATOM      9  C   UNL     1       3.438   0.662   0.001  0.00  0.00    +0.140 C 
ENDBRANCH   2   4
BRANCH   2  11
ATOM     10  N   UNL     1      -3.995   1.069   0.001  0.00  0.00    -0.242 NA
ATOM     11  C   UNL     1      -1.655  -0.385   0.000  0.00  0.00    +0.042 C 
ATOM     12  C   UNL     1      -2.214  -0.038  -1.202  0.00  0.00    +0.024 C 
ATOM     13  C   UNL     1      -2.214  -0.038   1.203  0.00  0.00    +0.024 C 
ATOM     14  C   UNL     1      -3.390   0.693  -1.148  0.00  0.00    +0.099 C 
ATOM     15  C   UNL     1      -3.389   0.693   1.149  0.00  0.00    +0.099 C 
ENDBRANCH   2  11
TORSDOF 2
