REMARK  Name = 6918388
REMARK  5 active torsions:
REMARK  status: ('A' for Active; 'I' for Inactive)
REMARK    1  A    between atoms: N_1  and  C_4
REMARK    2  A    between atoms: N_1  and  C_15
REMARK    3  A    between atoms: C_4  and  C_6
REMARK    4  A    between atoms: C_15  and  C_17
REMARK    5  A    between atoms: C_19  and  C_23
REMARK                            x       y       z     vdW  Elec       q    Type
REMARK                         _______ _______ _______ _____ _____    ______ ____
ROOT
ATOM      1  N   UNL     1       0.853   1.284  -0.210  0.00  0.00    +0.389 N 
ATOM      2  H   UNL     1       0.959   1.794   0.666  0.00  0.00    -0.084 HD
ATOM      3  H   UNL     1       0.576   0.319  -0.030  0.00  0.00    -0.084 HD
ENDROOT
BRANCH   1   4
ATOM      4  C   UNL     1       2.127   1.277  -0.915  0.00  0.00    -0.037 C 
BRANCH   4   6
ATOM      5  O   UNL     1       4.436   0.695  -0.819  0.00  0.00    -0.482 OA
ATOM      6  C   UNL     1       3.208   0.600  -0.082  0.00  0.00    +0.145 C 
ATOM      7  C   UNL     1       2.843  -0.856   0.203  0.00  0.00    +0.046 C 
ATOM      8  C   UNL     1       3.921  -1.479   1.081  0.00  0.00    +0.033 C 
ATOM      9  C   UNL     1       5.287  -1.128   0.564  0.00  0.00    +0.012 C 
ATOM     10  C   UNL     1       5.466  -0.069  -0.335  0.00  0.00    +0.134 C 
ATOM     11  C   UNL     1       6.406  -1.848   1.003  0.00  0.00    -0.001 C 
ATOM     12  C   UNL     1       6.741   0.237  -0.818  0.00  0.00    +0.037 C 
ATOM     13  C   UNL     1       7.680  -1.532   0.530  0.00  0.00    -0.000 C 
ATOM     14  C   UNL     1       7.846  -0.493  -0.383  0.00  0.00    +0.003 C 
ENDBRANCH   4   6
ENDBRANCH   1   4
BRANCH   1  15
ATOM     15  C   UNL     1      -0.183   1.922  -1.011  0.00  0.00    -0.053 C 
BRANCH  15  17
ATOM     16  N   UNL     1      -3.039   3.050   1.172  0.00  0.00    -0.243 NA
ATOM     17  C   UNL     1      -1.513   1.930  -0.306  0.00  0.00    -0.025 C 
ATOM     18  C   UNL     1      -2.397   0.882  -0.471  0.00  0.00    -0.003 C 
ATOM     19  C   UNL     1      -3.618   0.917   0.192  0.00  0.00    +0.019 C 
ATOM     20  C   UNL     1      -1.862   2.981   0.511  0.00  0.00    +0.092 C 
ATOM     21  C   UNL     1      -3.889   2.014   0.995  0.00  0.00    +0.099 C 
BRANCH  19  23
ATOM     22  F   UNL     1      -7.311  -3.224  -0.362  0.00  0.00    -0.204 F 
ATOM     23  C   UNL     1      -4.575  -0.155   0.050  0.00  0.00    +0.002 C 
ATOM     24  C   UNL     1      -4.135  -1.458  -0.193  0.00  0.00    +0.002 C 
ATOM     25  C   UNL     1      -5.942   0.107   0.152  0.00  0.00    +0.002 C 
ATOM     26  C   UNL     1      -5.059  -2.494  -0.332  0.00  0.00    +0.030 C 
ATOM     27  C   UNL     1      -6.866  -0.929   0.013  0.00  0.00    +0.030 C 
ATOM     28  C   UNL     1      -6.424  -2.229  -0.229  0.00  0.00    +0.140 C 
ENDBRANCH  19  23
ENDBRANCH  15  17
ENDBRANCH   1  15
TORSDOF 5
