REMARK  Name = 10400412
REMARK  8 active torsions:
REMARK  status: ('A' for Active; 'I' for Inactive)
REMARK    1  A    between atoms: C_1  and  C_10
REMARK    2  A    between atoms: C_2  and  C_12
REMARK    3  A    between atoms: N_11  and  C_12
REMARK    4  A    between atoms: N_11  and  O_13
REMARK    5  A    between atoms: O_13  and  C_14
REMARK    6  A    between atoms: C_14  and  C_15
REMARK    7  A    between atoms: C_15  and  C_17
REMARK    8  A    between atoms: C_17  and  O_18
REMARK                            x       y       z     vdW  Elec       q    Type
REMARK                         _______ _______ _______ _____ _____    ______ ____
ROOT
ATOM      1  C   UNL     1      -2.490   0.274   0.034  0.00  0.00    +0.069 C 
ATOM      2  C   UNL     1      -1.464  -0.669  -0.037  0.00  0.00    +0.002 C 
ATOM      3  C   UNL     1      -3.808  -0.143   0.219  0.00  0.00    +0.004 C 
ATOM      4  C   UNL     1      -1.757  -2.028   0.077  0.00  0.00    -0.003 C 
ATOM      5  C   UNL     1      -4.101  -1.502   0.333  0.00  0.00    -0.000 C 
ATOM      6  C   UNL     1      -3.076  -2.444   0.262  0.00  0.00    -0.000 C 
ENDROOT
BRANCH   1  10
ATOM      7  F   UNL     1      -3.319   2.518   0.009  0.00  0.00    -0.166 F 
ATOM      8  F   UNL     1      -1.358   2.204   0.880  0.00  0.00    -0.166 F 
ATOM      9  F   UNL     1      -1.624   2.061  -1.274  0.00  0.00    -0.166 F 
ATOM     10  C   UNL     1      -2.204   1.736  -0.083  0.00  0.00    +0.418 C 
ENDBRANCH   1  10
BRANCH   2  11
ATOM     11  C   UNL     1      -0.079  -0.262  -0.229  0.00  0.00    +0.148 C 
BRANCH  11  12
ATOM     12  N   UNL     1       0.903  -1.113  -0.300  0.00  0.00    -0.079 NA
BRANCH  12  13
ATOM     13  O   UNL     1       2.105  -0.417  -0.486  0.00  0.00    -0.265 OA
BRANCH  13  14
ATOM     14  C   UNL     1       3.158  -1.367  -0.560  0.00  0.00    +0.180 C 
BRANCH  14  15
ATOM     15  C   UNL     1       4.476  -0.640  -0.761  0.00  0.00    +0.144 C 
BRANCH  15  17
ATOM     16  O   UNL     1       4.422   0.094   1.540  0.00  0.00    -0.250 OA
ATOM     17  C   UNL     1       4.763   0.300   0.383  0.00  0.00    +0.316 C 
BRANCH  17  18
ATOM     18  O   UNL     1       5.455   1.400  -0.007  0.00  0.00    -0.480 OA
ATOM     19  H   UNL     1       5.692   1.510  -0.907  0.00  0.00    +0.295 HD
ENDBRANCH  17  18
ENDBRANCH  15  17
ENDBRANCH  14  15
ENDBRANCH  13  14
ENDBRANCH  12  13
ENDBRANCH  11  12
ENDBRANCH   2  11
TORSDOF 8
