REMARK  Name = 19371515
REMARK  1 active torsions:
REMARK  status: ('A' for Active; 'I' for Inactive)
REMARK    1  A    between atoms: C_16  and  C_24
REMARK                            x       y       z     vdW  Elec       q    Type
REMARK                         _______ _______ _______ _____ _____    ______ ____
ROOT
ATOM      1  N   UNL     1      -3.434   2.426   0.348  0.00  0.00    +0.386 N 
ATOM      2  N   UNL     1       1.909   0.376   0.308  0.00  0.00    -0.268 N 
ATOM      3  N   UNL     1       1.415   1.295  -1.644  0.00  0.00    -0.227 NA
ATOM      4  C   UNL     1      -1.362   0.645  -0.586  0.00  0.00    -0.046 C 
ATOM      5  C   UNL     1      -1.270   2.126  -0.834  0.00  0.00    -0.001 C 
ATOM      6  C   UNL     1      -2.765   0.145  -0.372  0.00  0.00    -0.001 C 
ATOM      7  C   UNL     1      -0.287  -0.153  -0.528  0.00  0.00    +0.024 C 
ATOM      8  C   UNL     1      -2.043   2.898   0.241  0.00  0.00    -0.073 C 
ATOM      9  C   UNL     1      -3.480   0.993   0.686  0.00  0.00    -0.073 C 
ATOM     10  C   UNL     1      -0.459  -1.615  -0.278  0.00  0.00    -0.002 C 
ATOM     11  C   UNL     1       0.968   0.503  -0.685  0.00  0.00    +0.135 C 
ATOM     12  C   UNL     1       1.737  -0.369   1.536  0.00  0.00    +0.102 C 
ATOM     13  C   UNL     1       1.630  -1.866   1.277  0.00  0.00    +0.048 C 
ATOM     14  C   UNL     1       0.404  -2.379   0.542  0.00  0.00    -0.020 C 
ATOM     15  C   UNL     1      -4.165   3.210   1.343  0.00  0.00    -0.101 C 
ATOM     16  C   UNL     1       3.013   1.094  -0.052  0.00  0.00    +0.115 C 
ATOM     17  C   UNL     1      -1.510  -2.286  -0.947  0.00  0.00    -0.000 C 
ATOM     18  C   UNL     1       0.168  -3.767   0.673  0.00  0.00    -0.004 C 
ATOM     19  C   UNL     1       2.684   1.653  -1.263  0.00  0.00    +0.118 C 
ATOM     20  C   UNL     1      -1.727  -3.655  -0.793  0.00  0.00    -0.000 C 
ATOM     21  C   UNL     1      -0.888  -4.397   0.022  0.00  0.00    -0.000 C 
ATOM     22  H   UNL     1      -3.881   2.551  -0.560  0.00  0.00    -0.080 HD
ENDROOT
BRANCH  16  24
ATOM     23  O   UNL     1       5.229   1.891   0.332  0.00  0.00    -0.282 OA
ATOM     24  C   UNL     1       4.232   1.233   0.674  0.00  0.00    +0.251 C 
ENDBRANCH  16  24
TORSDOF 1
