REMARK  Name = 448677
REMARK  10 active torsions:
REMARK  status: ('A' for Active; 'I' for Inactive)
REMARK    1  A    between atoms: N_2  and  C_23
REMARK    2  A    between atoms: C_3  and  C_7
REMARK    3  A    between atoms: C_8  and  C_12
REMARK    4  A    between atoms: C_12  and  C_13
REMARK    5  A    between atoms: C_12  and  N_19
REMARK    6  A    between atoms: C_23  and  C_25
REMARK    7  A    between atoms: C_26  and  O_31
REMARK    8  A    between atoms: O_31  and  C_32
REMARK    9  A    between atoms: C_32  and  C_35
REMARK   10  A    between atoms: N_34  and  C_37
REMARK                            x       y       z     vdW  Elec       q    Type
REMARK                         _______ _______ _______ _____ _____    ______ ____
ROOT
ATOM      1  O   UNL     1      -0.355   0.465  -1.104  0.00  0.00    -0.273 OA
ATOM      2  N   UNL     1      -1.218  -1.575  -0.388  0.00  0.00    -0.299 N 
ATOM      3  C   UNL     1      -0.332  -0.511  -0.359  0.00  0.00    +0.241 C 
ATOM      4  H   UNL     1      -1.097  -2.303   0.263  0.00  0.00    +0.150 HD
ENDROOT
BRANCH   3   7
ATOM      5  O   UNL     1       2.587  -1.583  -1.218  0.00  0.00    -0.277 OA
ATOM      6  N   UNL     1       1.892   0.038   0.281  0.00  0.00    -0.275 N 
ATOM      7  C   UNL     1       0.690  -0.653   0.728  0.00  0.00    +0.152 C 
ATOM      8  C   UNL     1       2.787  -0.527  -0.614  0.00  0.00    +0.205 C 
ATOM      9  C   UNL     1       2.088   1.285   1.017  0.00  0.00    +0.094 C 
ATOM     10  C   UNL     1       0.271   0.080   1.997  0.00  0.00    +0.031 C 
ATOM     11  C   UNL     1       0.786   1.500   1.773  0.00  0.00    +0.024 C 
BRANCH   8  12
ATOM     12  C   UNL     1       4.063   0.246  -0.833  0.00  0.00    +0.013 C 
BRANCH  12  13
ATOM     13  C   UNL     1       5.267  -0.622  -0.473  0.00  0.00    -0.011 C 
ATOM     14  C   UNL     1       5.182  -1.089   0.986  0.00  0.00    -0.002 C 
ATOM     15  C   UNL     1       6.577   0.135  -0.729  0.00  0.00    -0.002 C 
ATOM     16  C   UNL     1       6.402  -1.915   1.386  0.00  0.00    -0.000 C 
ATOM     17  C   UNL     1       7.795  -0.693  -0.327  0.00  0.00    -0.000 C 
ATOM     18  C   UNL     1       7.703  -1.162   1.122  0.00  0.00    -0.000 C 
ENDBRANCH  12  13
BRANCH  12  19
ATOM     19  N   UNL     1       4.089   0.625  -2.236  0.00  0.00    +0.387 N 
ATOM     20  H   UNL     1       4.940   1.153  -2.429  0.00  0.00    -0.089 HD
ATOM     21  H   UNL     1       3.275   1.202  -2.447  0.00  0.00    -0.089 HD
ATOM     22  H   UNL     1       4.070  -0.214  -2.815  0.00  0.00    -0.089 HD
ENDBRANCH  12  19
ENDBRANCH   8  12
ENDBRANCH   3   7
BRANCH   2  23
ATOM     23  C   UNL     1      -2.312  -1.667  -1.328  0.00  0.00    +0.119 C 
BRANCH  23  25
ATOM     24 CL   UNL     1      -6.127  -4.454   0.841  0.00  0.00    -0.082 Cl
ATOM     25  C   UNL     1      -3.645  -1.687  -0.638  0.00  0.00    +0.032 C 
ATOM     26  C   UNL     1      -4.327  -0.500  -0.373  0.00  0.00    +0.137 C 
ATOM     27  C   UNL     1      -4.202  -2.910  -0.263  0.00  0.00    +0.012 C 
ATOM     28  C   UNL     1      -5.566  -0.535   0.268  0.00  0.00    +0.038 C 
ATOM     29  C   UNL     1      -5.440  -2.945   0.377  0.00  0.00    +0.058 C 
ATOM     30  C   UNL     1      -6.122  -1.758   0.643  0.00  0.00    +0.014 C 
BRANCH  26  31
ATOM     31  O   UNL     1      -3.797   0.703  -0.733  0.00  0.00    -0.466 OA
BRANCH  31  32
ATOM     32  C   UNL     1      -3.550   1.641   0.313  0.00  0.00    +0.289 C 
BRANCH  32  35
ATOM     33  O   UNL     1      -2.752   3.087  -1.442  0.00  0.00    -0.271 OA
ATOM     34  N   UNL     1      -2.701   3.842   0.757  0.00  0.00    -0.301 N 
ATOM     35  C   UNL     1      -2.962   2.919  -0.244  0.00  0.00    +0.267 C 
ATOM     36  H   UNL     1      -2.911   3.596   1.688  0.00  0.00    +0.150 HD
BRANCH  34  37
ATOM     37  C   UNL     1      -2.136   5.146   0.500  0.00  0.00    +0.090 C 
ATOM     38  C   UNL     1      -0.634   5.073   0.313  0.00  0.00    +0.023 C 
ENDBRANCH  34  37
ENDBRANCH  32  35
ENDBRANCH  31  32
ENDBRANCH  26  31
ENDBRANCH  23  25
ENDBRANCH   2  23
TORSDOF 10
