REMARK  Name = 11217901
REMARK  2 active torsions:
REMARK  status: ('A' for Active; 'I' for Inactive)
REMARK    1  A    between atoms: N_2  and  C_9
REMARK    2  A    between atoms: C_14  and  O_15
REMARK                            x       y       z     vdW  Elec       q    Type
REMARK                         _______ _______ _______ _____ _____    ______ ____
ROOT
ATOM      1  O   UNL     1       0.747   2.428  -0.375  0.00  0.00    -0.269 OA
ATOM      2  N   UNL     1       0.737   0.087  -0.005  0.00  0.00    -0.233 N 
ATOM      3  C   UNL     1       1.548  -1.044   0.115  0.00  0.00    +0.068 C 
ATOM      4  C   UNL     1       2.889  -0.989   0.120  0.00  0.00    -0.006 C 
ATOM      5  C   UNL     1       1.331   1.365  -0.163  0.00  0.00    +0.257 C 
ATOM      6  C   UNL     1       3.537   0.291   0.003  0.00  0.00    +0.002 C 
ATOM      7  C   UNL     1       2.823   1.412  -0.120  0.00  0.00    +0.058 C 
ATOM      8  C   UNL     1       3.761  -2.196   0.264  0.00  0.00    +0.032 C 
ENDROOT
BRANCH   2   9
ATOM      9  C   UNL     1      -0.707  -0.039   0.008  0.00  0.00    +0.059 C 
ATOM     10  C   UNL     1      -1.302  -1.199  -0.477  0.00  0.00    +0.018 C 
ATOM     11  C   UNL     1      -1.485   1.001   0.505  0.00  0.00    +0.018 C 
ATOM     12  C   UNL     1      -2.692  -1.319  -0.466  0.00  0.00    +0.038 C 
ATOM     13  C   UNL     1      -2.874   0.880   0.517  0.00  0.00    +0.038 C 
ATOM     14  C   UNL     1      -3.478  -0.280   0.032  0.00  0.00    +0.134 C 
BRANCH  14  15
ATOM     15  O   UNL     1      -4.834  -0.399   0.044  0.00  0.00    -0.506 OA
ATOM     16  H   UNL     1      -5.239  -1.178  -0.283  0.00  0.00    +0.292 HD
ENDBRANCH  14  15
ENDBRANCH   2   9
TORSDOF 2
