REMARK  Name = 16750106
REMARK  5 active torsions:
REMARK  status: ('A' for Active; 'I' for Inactive)
REMARK    1  A    between atoms: C_2  and  C_12
REMARK    2  A    between atoms: C_6  and  N_26
REMARK    3  A    between atoms: C_11  and  S_17
REMARK    4  A    between atoms: S_17  and  N_20
REMARK    5  A    between atoms: N_20  and  C_22
REMARK                            x       y       z     vdW  Elec       q    Type
REMARK                         _______ _______ _______ _____ _____    ______ ____
ROOT
ATOM      1  N   UNL     1      -1.750   3.582  -0.528  0.00  0.00    -0.244 NA
ATOM      2  C   UNL     1      -0.329   1.720   0.056  0.00  0.00    +0.019 C 
ATOM      3  C   UNL     1      -2.731   1.447   0.005  0.00  0.00    +0.031 C 
ATOM      4  C   UNL     1      -1.450   0.918   0.217  0.00  0.00    +0.004 C 
ATOM      5  C   UNL     1      -2.836   2.802  -0.371  0.00  0.00    +0.082 C 
ATOM      6  C   UNL     1      -3.886   0.662   0.160  0.00  0.00    +0.051 C 
ATOM      7  C   UNL     1      -0.532   3.034  -0.315  0.00  0.00    +0.099 C 
ATOM      8  C   UNL     1      -4.109   3.327  -0.581  0.00  0.00    +0.019 C 
ATOM      9  C   UNL     1      -5.146   1.212  -0.056  0.00  0.00    +0.015 C 
ATOM     10  C   UNL     1      -5.257   2.546  -0.426  0.00  0.00    +0.003 C 
ENDROOT
BRANCH   6  11
ATOM     11  N   UNL     1      -3.814  -0.701   0.537  0.00  0.00    -0.298 N 
ATOM     12  H   UNL     1      -3.037  -0.915   1.103  0.00  0.00    +0.154 HD
ATOM     13  N   UNL     1      -4.716  -2.801   1.173  0.00  0.00    -0.229 NA
ATOM     14  C   UNL     1      -4.635  -1.806   0.261  0.00  0.00    +0.132 C 
ATOM     15  C   UNL     1      -5.316  -1.804  -0.946  0.00  0.00    +0.034 C 
ATOM     16  C   UNL     1      -6.134  -2.891  -1.234  0.00  0.00    +0.004 C 
ATOM     17  C   UNL     1      -5.520  -3.841   0.858  0.00  0.00    +0.100 C 
ATOM     18  C   UNL     1      -6.243  -3.933  -0.320  0.00  0.00    +0.021 C 
ENDBRANCH   6  11
BRANCH   2  20
ATOM     19  C   UNL     1       3.571   0.195   0.677  0.00  0.00    +0.122 C 
ATOM     20  C   UNL     1       1.001   1.200   0.268  0.00  0.00    +0.002 C 
ATOM     21  C   UNL     1       2.555  -0.649   0.228  0.00  0.00    +0.020 C 
ATOM     22  C   UNL     1       3.301   1.542   0.922  0.00  0.00    +0.020 C 
ATOM     23  C   UNL     1       1.270  -0.147   0.023  0.00  0.00    +0.001 C 
ATOM     24  C   UNL     1       2.016   2.044   0.717  0.00  0.00    +0.001 C 
BRANCH  19  25
ATOM     25  S   UNL     1       5.179  -0.434   0.934  0.00  0.00    +0.060 S 
ATOM     26  O   UNL     1       5.860   0.405   1.912  0.00  0.00    -0.153 OA
ATOM     27  O   UNL     1       5.062  -1.865   1.181  0.00  0.00    -0.153 OA
BRANCH  25  28
ATOM     28  N   UNL     1       5.913  -0.202  -0.591  0.00  0.00    -0.182 NA
ATOM     29  H   UNL     1       6.364   0.713  -0.566  0.00  0.00    +0.149 HD
BRANCH  28  30
ATOM     30  C   UNL     1       6.921  -1.158  -1.073  0.00  0.00    +0.062 C 
ATOM     31  C   UNL     1       6.248  -2.520  -1.251  0.00  0.00    +0.017 C 
ATOM     32  C   UNL     1       8.039  -1.239  -0.032  0.00  0.00    +0.017 C 
ATOM     33  C   UNL     1       7.467  -0.646  -2.406  0.00  0.00    +0.017 C 
ENDBRANCH  28  30
ENDBRANCH  25  28
ENDBRANCH  19  25
ENDBRANCH   2  20
TORSDOF 5
