REMARK  Name = 24180719
REMARK  6 active torsions:
REMARK  status: ('A' for Active; 'I' for Inactive)
REMARK    1  A    between atoms: C_3  and  N_22
REMARK    2  A    between atoms: C_4  and  C_10
REMARK    3  A    between atoms: C_10  and  C_14
REMARK    4  A    between atoms: N_22  and  S_24
REMARK    5  A    between atoms: S_24  and  C_27
REMARK    6  A    between atoms: C_27  and  C_28
REMARK                            x       y       z     vdW  Elec       q    Type
REMARK                         _______ _______ _______ _____ _____    ______ ____
ROOT
ATOM      1  F   UNL     1      -0.348   0.835   1.890  0.00  0.00    -0.203 F 
ATOM      2  F   UNL     1       1.157   3.350  -1.844  0.00  0.00    -0.204 F 
ATOM      3  C   UNL     1      -1.921   1.625   0.303  0.00  0.00    +0.092 C 
ATOM      4  C   UNL     1       0.435   2.089   0.036  0.00  0.00    +0.095 C 
ATOM      5  C   UNL     1      -0.608   1.508   0.758  0.00  0.00    +0.160 C 
ATOM      6  C   UNL     1      -2.192   2.324  -0.873  0.00  0.00    +0.020 C 
ATOM      7  C   UNL     1       0.164   2.787  -1.140  0.00  0.00    +0.145 C 
ATOM      8  C   UNL     1      -1.150   2.905  -1.595  0.00  0.00    +0.031 C 
ENDROOT
BRANCH   4  10
ATOM      9  O   UNL     1       2.427   3.036   0.756  0.00  0.00    -0.286 OA
ATOM     10  C   UNL     1       1.842   1.963   0.523  0.00  0.00    +0.201 C 
BRANCH  10  14
ATOM     11 CL   UNL     1       0.396  -2.748  -2.814  0.00  0.00    -0.081 Cl
ATOM     12  N   UNL     1       3.778  -0.924   1.490  0.00  0.00    -0.297 N 
ATOM     13  N   UNL     1       3.135  -2.781   0.097  0.00  0.00    -0.228 NA
ATOM     14  C   UNL     1       2.456   0.676   0.688  0.00  0.00    +0.056 C 
ATOM     15  C   UNL     1       2.201  -0.518  -0.038  0.00  0.00    +0.037 C 
ATOM     16  C   UNL     1       3.042  -1.496   0.486  0.00  0.00    +0.132 C 
ATOM     17  C   UNL     1       3.430   0.396   1.621  0.00  0.00    +0.066 C 
ATOM     18  C   UNL     1       1.350  -0.893  -1.090  0.00  0.00    +0.016 C 
ATOM     19  C   UNL     1       1.406  -2.214  -1.532  0.00  0.00    +0.077 C 
ATOM     20  C   UNL     1       2.293  -3.087  -0.917  0.00  0.00    +0.112 C 
ATOM     21  H   UNL     1       4.454  -1.389   2.034  0.00  0.00    +0.154 HD
ENDBRANCH  10  14
ENDBRANCH   4  10
BRANCH   3  22
ATOM     22  N   UNL     1      -2.991   1.031   1.040  0.00  0.00    -0.217 N 
ATOM     23  H   UNL     1      -3.272   1.398   1.909  0.00  0.00    +0.173 HD
BRANCH  22  24
ATOM     24  S   UNL     1      -3.776  -0.346   0.366  0.00  0.00    +0.054 S 
ATOM     25  O   UNL     1      -4.974  -0.615   1.139  0.00  0.00    -0.154 OA
ATOM     26  O   UNL     1      -3.837  -0.252  -1.079  0.00  0.00    -0.154 OA
BRANCH  24  27
ATOM     27  C   UNL     1      -2.599  -1.613   0.781  0.00  0.00    +0.172 C 
BRANCH  27  28
ATOM     28  C   UNL     1      -3.056  -2.976   0.288  0.00  0.00    +0.027 C 
ATOM     29  C   UNL     1      -2.062  -4.064   0.659  0.00  0.00    +0.002 C 
ENDBRANCH  27  28
ENDBRANCH  24  27
ENDBRANCH  22  24
ENDBRANCH   3  22
TORSDOF 6
