REMARK  Name = 6918324
REMARK  4 active torsions:
REMARK  status: ('A' for Active; 'I' for Inactive)
REMARK    1  A    between atoms: C_3  and  O_28
REMARK    2  A    between atoms: C_4  and  N_14
REMARK    3  A    between atoms: C_11  and  C_26
REMARK    4  A    between atoms: C_15  and  C_19
REMARK                            x       y       z     vdW  Elec       q    Type
REMARK                         _______ _______ _______ _____ _____    ______ ____
ROOT
ATOM      1  O   UNL     1      -3.567   1.593   0.648  0.00  0.00    -0.480 OA
ATOM      2  C   UNL     1      -2.765   2.679   0.145  0.00  0.00    +0.160 C 
ATOM      3  C   UNL     1      -1.258   2.381   0.281  0.00  0.00    +0.169 C 
ATOM      4  C   UNL     1      -0.881   1.085  -0.446  0.00  0.00    +0.128 C 
ATOM      5  C   UNL     1      -1.882  -0.003  -0.139  0.00  0.00    +0.032 C 
ATOM      6  C   UNL     1      -3.146   0.318   0.375  0.00  0.00    +0.136 C 
ATOM      7  C   UNL     1      -3.178   2.966  -1.308  0.00  0.00    +0.046 C 
ATOM      8  C   UNL     1      -3.147   3.901   0.999  0.00  0.00    +0.046 C 
ATOM      9  C   UNL     1      -1.592  -1.350  -0.415  0.00  0.00    +0.003 C 
ATOM     10  C   UNL     1      -4.073  -0.691   0.659  0.00  0.00    +0.037 C 
ATOM     11  C   UNL     1      -2.523  -2.353  -0.140  0.00  0.00    +0.035 C 
ATOM     12  C   UNL     1      -3.761  -2.024   0.403  0.00  0.00    +0.006 C 
ENDROOT
BRANCH   4  14
ATOM     13  O   UNL     1       1.477   1.931  -1.846  0.00  0.00    -0.270 OA
ATOM     14  N   UNL     1       0.482   0.711  -0.144  0.00  0.00    -0.296 N 
ATOM     15  C   UNL     1       1.559   1.173  -0.883  0.00  0.00    +0.246 C 
ATOM     16  H   UNL     1       0.651   0.105   0.613  0.00  0.00    +0.150 HD
BRANCH  15  19
ATOM     17 CL   UNL     1       4.369  -2.540   1.354  0.00  0.00    -0.080 Cl
ATOM     18  F   UNL     1       6.585  -0.685   0.691  0.00  0.00    -0.203 F 
ATOM     19  C   UNL     1       2.894   0.675  -0.462  0.00  0.00    +0.054 C 
ATOM     20  C   UNL     1       2.980  -0.548   0.169  0.00  0.00    +0.018 C 
ATOM     21  C   UNL     1       4.005   1.452  -0.717  0.00  0.00    +0.007 C 
ATOM     22  C   UNL     1       4.234  -1.016   0.564  0.00  0.00    +0.085 C 
ATOM     23  C   UNL     1       5.258   0.985  -0.322  0.00  0.00    +0.031 C 
ATOM     24  C   UNL     1       5.373  -0.249   0.319  0.00  0.00    +0.151 C 
ENDBRANCH  15  19
ENDBRANCH   4  14
BRANCH  11  26
ATOM     25  O   UNL     1      -1.098  -4.068  -0.909  0.00  0.00    -0.291 OA
ATOM     26  C   UNL     1      -2.199  -3.742  -0.422  0.00  0.00    +0.173 C 
ATOM     27  C   UNL     1      -3.211  -4.843  -0.125  0.00  0.00    +0.077 C 
ENDBRANCH  11  26
BRANCH   3  28
ATOM     28  O   UNL     1      -0.933   2.263   1.671  0.00  0.00    -0.379 OA
ATOM     29  H   UNL     1      -1.172   3.084   2.130  0.00  0.00    +0.211 HD
ENDBRANCH   3  28
TORSDOF 4
