REMARK  Name = 24768551
REMARK  5 active torsions:
REMARK  status: ('A' for Active; 'I' for Inactive)
REMARK    1  A    between atoms: C_2  and  C_11
REMARK    2  A    between atoms: C_11  and  C_13
REMARK    3  A    between atoms: C_11  and  C_16
REMARK    4  A    between atoms: C_13  and  O_14
REMARK    5  A    between atoms: C_16  and  C_17
REMARK                            x       y       z     vdW  Elec       q    Type
REMARK                         _______ _______ _______ _____ _____    ______ ____
ROOT
ATOM      1  N   UNL     1       1.307   0.457  -1.961  0.00  0.00    -0.312 N 
ATOM      2  C   UNL     1      -0.180   0.266  -0.324  0.00  0.00    +0.004 C 
ATOM      3  C   UNL     1       1.112   0.018   0.218  0.00  0.00    +0.011 C 
ATOM      4  C   UNL     1       2.027   0.144  -0.830  0.00  0.00    +0.048 C 
ATOM      5  C   UNL     1      -0.028   0.532  -1.665  0.00  0.00    +0.058 C 
ATOM      6  C   UNL     1       1.593  -0.302   1.503  0.00  0.00    +0.001 C 
ATOM      7  C   UNL     1       3.404  -0.034  -0.656  0.00  0.00    +0.015 C 
ATOM      8  C   UNL     1       2.968  -0.483   1.692  0.00  0.00    +0.000 C 
ATOM      9  C   UNL     1       3.858  -0.351   0.628  0.00  0.00    +0.001 C 
ATOM     10  H   UNL     1       1.696   0.605  -2.853  0.00  0.00    +0.152 HD
ENDROOT
BRANCH   2  11
ATOM     11  C   UNL     1      -1.496   0.242   0.430  0.00  0.00    +0.122 C 
BRANCH  11  13
ATOM     12  O   UNL     1      -1.689   2.609  -0.137  0.00  0.00    -0.250 OA
ATOM     13  C   UNL     1      -2.148   1.619   0.417  0.00  0.00    +0.317 C 
BRANCH  13  14
ATOM     14  O   UNL     1      -3.317   1.640   1.111  0.00  0.00    -0.480 OA
ATOM     15  H   UNL     1      -3.633   0.859   1.521  0.00  0.00    +0.295 HD
ENDBRANCH  13  14
ENDBRANCH  11  13
BRANCH  11  16
ATOM     16  C   UNL     1      -2.478  -0.824  -0.102  0.00  0.00    +0.016 C 
BRANCH  16  17
ATOM     17  C   UNL     1      -1.952  -2.254   0.061  0.00  0.00    +0.001 C 
ATOM     18  C   UNL     1      -2.983  -3.278  -0.386  0.00  0.00    +0.000 C 
ENDBRANCH  16  17
ENDBRANCH  11  16
ENDBRANCH   2  11
TORSDOF 5
