REMARK  Name = 39562
REMARK  4 active torsions:
REMARK  status: ('A' for Active; 'I' for Inactive)
REMARK    1  A    between atoms: N_1  and  C_14
REMARK    2  A    between atoms: C_5  and  C_11
REMARK    3  A    between atoms: C_11  and  O_12
REMARK    4  A    between atoms: C_14  and  C_17
REMARK                            x       y       z     vdW  Elec       q    Type
REMARK                         _______ _______ _______ _____ _____    ______ ____
ROOT
ATOM      1  N   UNL     1       0.525  -0.059   0.967  0.00  0.00    -0.246 N 
ATOM      2  N   UNL     1       1.018  -1.264   0.635  0.00  0.00    -0.162 NA
ATOM      3  C   UNL     1       1.273   0.996   0.518  0.00  0.00    +0.080 A 
ATOM      4  C   UNL     1       2.342   0.423  -0.163  0.00  0.00    +0.043 A 
ATOM      5  C   UNL     1       2.123  -0.967  -0.052  0.00  0.00    +0.177 A 
ATOM      6  C   UNL     1       1.105   2.376   0.650  0.00  0.00    +0.019 C 
ATOM      7  C   UNL     1       3.308   1.256  -0.752  0.00  0.00    +0.003 C 
ATOM      8  C   UNL     1       2.075   3.192   0.057  0.00  0.00    +0.002 C 
ATOM      9  C   UNL     1       3.158   2.643  -0.632  0.00  0.00    +0.000 C 
ENDROOT
BRANCH   5  11
ATOM     10  O   UNL     1       3.985  -1.892  -1.235  0.00  0.00    -0.243 OA
ATOM     11  C   UNL     1       2.934  -2.028  -0.580  0.00  0.00    +0.358 C 
BRANCH  11  12
ATOM     12  O   UNL     1       2.445  -3.273  -0.295  0.00  0.00    -0.476 OA
ATOM     13  H   UNL     1       1.653  -3.364   0.199  0.00  0.00    +0.295 HD
ENDBRANCH  11  12
ENDBRANCH   5  11
BRANCH   1  14
ATOM     14  C   UNL     1      -0.697   0.015   1.734  0.00  0.00    +0.155 C 
BRANCH  14  17
ATOM     15 CL   UNL     1      -1.994  -2.659   0.915  0.00  0.00    -0.082 Cl
ATOM     16 CL   UNL     1      -5.509   0.343  -1.842  0.00  0.00    -0.082 Cl
ATOM     17  C   UNL     1      -1.905   0.064   0.838  0.00  0.00    +0.013 C 
ATOM     18  C   UNL     1      -2.545  -1.098   0.425  0.00  0.00    +0.056 C 
ATOM     19  C   UNL     1      -2.365   1.311   0.432  0.00  0.00    -0.001 C 
ATOM     20  C   UNL     1      -3.663  -1.012  -0.406  0.00  0.00    +0.023 C 
ATOM     21  C   UNL     1      -3.483   1.397  -0.398  0.00  0.00    +0.011 C 
ATOM     22  C   UNL     1      -4.131   0.235  -0.817  0.00  0.00    +0.058 C 
ENDBRANCH  14  17
ENDBRANCH   1  14
TORSDOF 4
