REMARK  Name = 4992
REMARK  6 active torsions:
REMARK  status: ('A' for Active; 'I' for Inactive)
REMARK    1  A    between atoms: N_1  and  C_8
REMARK    2  A    between atoms: N_1  and  C_14
REMARK    3  A    between atoms: C_8  and  C_9
REMARK    4  A    between atoms: C_9  and  N_10
REMARK    5  A    between atoms: C_14  and  C_15
REMARK    6  A    between atoms: C_20  and  O_21
REMARK                            x       y       z     vdW  Elec       q    Type
REMARK                         _______ _______ _______ _____ _____    ______ ____
ROOT
ATOM      1  N   UNL     1       0.887   0.100   0.615  0.00  0.00    -0.291 N 
ATOM      2  N   UNL     1       1.337  -2.209   0.994  0.00  0.00    -0.229 NA
ATOM      3  C   UNL     1       1.367  -1.128   0.163  0.00  0.00    +0.132 C 
ATOM      4  C   UNL     1       1.866  -1.200  -1.139  0.00  0.00    +0.034 C 
ATOM      5  C   UNL     1       2.349  -2.418  -1.604  0.00  0.00    +0.004 C 
ATOM      6  C   UNL     1       1.815  -3.376   0.507  0.00  0.00    +0.100 C 
ATOM      7  C   UNL     1       2.326  -3.532  -0.772  0.00  0.00    +0.021 C 
ENDROOT
BRANCH   1   8
ATOM      8  C   UNL     1       1.449   1.352   0.120  0.00  0.00    +0.070 C 
BRANCH   8   9
ATOM      9  C   UNL     1       2.932   1.437   0.469  0.00  0.00    -0.056 C 
BRANCH   9  10
ATOM     10  N   UNL     1       3.499   2.684  -0.043  0.00  0.00    +0.385 N 
ATOM     11  C   UNL     1       3.324   2.769  -1.492  0.00  0.00    -0.101 C 
ATOM     12  C   UNL     1       4.916   2.783   0.307  0.00  0.00    -0.101 C 
ATOM     13  H   UNL     1       3.005   3.465   0.389  0.00  0.00    -0.080 HD
ENDBRANCH   9  10
ENDBRANCH   8   9
ENDBRANCH   1   8
BRANCH   1  14
ATOM     14  C   UNL     1      -0.180   0.171   1.604  0.00  0.00    +0.119 C 
BRANCH  14  15
ATOM     15  C   UNL     1      -1.542   0.169   0.962  0.00  0.00    -0.002 C 
ATOM     16  C   UNL     1      -2.185  -1.038   0.730  0.00  0.00    +0.000 C 
ATOM     17  C   UNL     1      -2.133   1.374   0.610  0.00  0.00    +0.000 C 
ATOM     18  C   UNL     1      -3.446  -1.041   0.134  0.00  0.00    +0.037 C 
ATOM     19  C   UNL     1      -3.394   1.372   0.014  0.00  0.00    +0.037 C 
ATOM     20  C   UNL     1      -4.051   0.165  -0.224  0.00  0.00    +0.139 C 
BRANCH  20  21
ATOM     21  O   UNL     1      -5.282   0.161  -0.805  0.00  0.00    -0.471 OA
ATOM     22  C   UNL     1      -5.855   1.406  -1.151  0.00  0.00    +0.252 C 
ENDBRANCH  20  21
ENDBRANCH  14  15
ENDBRANCH   1  14
TORSDOF 6
