REMARK  Name = 23644579
REMARK  6 active torsions:
REMARK  status: ('A' for Active; 'I' for Inactive)
REMARK    1  A    between atoms: C_1  and  C_3
REMARK    2  A    between atoms: C_1  and  O_9
REMARK    3  A    between atoms: C_1  and  C_11
REMARK    4  A    between atoms: C_11  and  O_12
REMARK    5  A    between atoms: C_11  and  C_15
REMARK    6  A    between atoms: C_15  and  O_16
REMARK                            x       y       z     vdW  Elec       q    Type
REMARK                         _______ _______ _______ _____ _____    ______ ____
ROOT
ATOM      1  C   UNL     1      -0.908   0.356  -0.607  0.00  0.00    +0.171 C 
ENDROOT
BRANCH   1   3
ATOM      2  F   UNL     1       4.613  -0.254   0.393  0.00  0.00    -0.204 F 
ATOM      3  C   UNL     1       0.574   0.193  -0.339  0.00  0.00    +0.007 C 
ATOM      4  C   UNL     1       1.258   1.151   0.409  0.00  0.00    +0.000 C 
ATOM      5  C   UNL     1       1.256  -0.917  -0.839  0.00  0.00    +0.000 C 
ATOM      6  C   UNL     1       2.622   1.001   0.656  0.00  0.00    +0.029 C 
ATOM      7  C   UNL     1       2.620  -1.068  -0.592  0.00  0.00    +0.029 C 
ATOM      8  C   UNL     1       3.303  -0.109   0.156  0.00  0.00    +0.140 C 
ENDBRANCH   1   3
BRANCH   1   9
ATOM      9  O   UNL     1      -1.228   1.743  -0.726  0.00  0.00    -0.377 OA
ATOM     10  H   UNL     1      -2.177   1.842  -0.898  0.00  0.00    +0.211 HD
ENDBRANCH   1   9
BRANCH   1  11
ATOM     11  C   UNL     1      -1.762  -0.303   0.487  0.00  0.00    +0.241 C 
BRANCH  11  12
ATOM     12  O   UNL     1      -1.466  -1.691   0.560  0.00  0.00    -0.372 OA
ATOM     13  H   UNL     1      -0.521  -1.811   0.740  0.00  0.00    +0.211 HD
ENDBRANCH  11  12
BRANCH  11  15
ATOM     14  O   UNL     1      -4.021  -1.084   0.004  0.00  0.00    -0.247 OA
ATOM     15  C   UNL     1      -3.244  -0.161   0.205  0.00  0.00    +0.344 C 
BRANCH  15  16
ATOM     16  O   UNL     1      -3.618   1.143   0.233  0.00  0.00    -0.478 OA
ATOM     17  H   UNL     1      -2.980   1.810   0.392  0.00  0.00    +0.295 HD
ENDBRANCH  15  16
ENDBRANCH  11  15
ENDBRANCH   1  11
TORSDOF 6
