REMARK  Name = 124093
REMARK  6 active torsions:
REMARK  status: ('A' for Active; 'I' for Inactive)
REMARK    1  A    between atoms: N_2  and  C_24
REMARK    2  A    between atoms: C_6  and  O_31
REMARK    3  A    between atoms: C_7  and  C_28
REMARK    4  A    between atoms: C_8  and  C_16
REMARK    5  A    between atoms: C_28  and  O_29
REMARK    6  A    between atoms: O_31  and  C_34
REMARK                            x       y       z     vdW  Elec       q    Type
REMARK                         _______ _______ _______ _____ _____    ______ ____
ROOT
ATOM      1  O   UNL     1      -4.023  -2.769  -0.038  0.00  0.00    -0.286 OA
ATOM      2  N   UNL     1      -2.606   1.052   0.045  0.00  0.00    -0.285 N 
ATOM      3  C   UNL     1      -1.668  -0.018   0.104  0.00  0.00    +0.089 C 
ATOM      4  C   UNL     1      -3.956   0.772  -0.038  0.00  0.00    +0.075 C 
ATOM      5  C   UNL     1      -2.131  -1.351   0.077  0.00  0.00    +0.056 C 
ATOM      6  C   UNL     1      -0.282   0.195   0.190  0.00  0.00    +0.158 C 
ATOM      7  C   UNL     1      -4.499  -0.452  -0.071  0.00  0.00    +0.129 C 
ATOM      8  C   UNL     1       0.608  -0.882   0.247  0.00  0.00    +0.035 C 
ATOM      9  C   UNL     1      -3.589  -1.624  -0.014  0.00  0.00    +0.204 C 
ATOM     10  C   UNL     1      -1.238  -2.429   0.134  0.00  0.00    +0.005 C 
ATOM     11  C   UNL     1       0.131  -2.189   0.219  0.00  0.00    +0.003 C 
ENDROOT
BRANCH   8  16
ATOM     12  N   UNL     1       6.487  -0.265  -1.086  0.00  0.00    +0.390 N 
ATOM     13  C   UNL     1       6.234  -0.013   0.354  0.00  0.00    -0.038 C 
ATOM     14  C   UNL     1       4.768  -0.263   0.541  0.00  0.00    -0.048 C 
ATOM     15  C   UNL     1       4.158  -0.363  -0.709  0.00  0.00    -0.050 C 
ATOM     16  C   UNL     1       2.040  -0.668   0.335  0.00  0.00    +0.003 C 
ATOM     17  C   UNL     1       5.184  -0.196  -1.779  0.00  0.00    -0.054 C 
ATOM     18  C   UNL     1       2.795  -0.563  -0.833  0.00  0.00    -0.007 C 
ATOM     19  C   UNL     1       4.024  -0.355   1.705  0.00  0.00    -0.007 C 
ATOM     20  C   UNL     1       2.647  -0.565   1.595  0.00  0.00    -0.000 C 
ATOM     21  C   UNL     1       7.126  -0.889   1.226  0.00  0.00    -0.019 C 
ATOM     22  H   UNL     1       6.901  -1.188  -1.212  0.00  0.00    -0.083 HD
ATOM     23  H   UNL     1       7.134   0.427  -1.465  0.00  0.00    -0.083 HD
ENDBRANCH   8  16
BRANCH   2  24
ATOM     24  C   UNL     1      -2.225   2.484   0.068  0.00  0.00    +0.077 C 
ATOM     25  C   UNL     1      -2.817   3.414   1.072  0.00  0.00    +0.022 C 
ATOM     26  C   UNL     1      -1.369   3.028   1.161  0.00  0.00    +0.022 C 
ENDBRANCH   2  24
BRANCH   7  28
ATOM     27  O   UNL     1      -6.741   0.249   0.293  0.00  0.00    -0.245 OA
ATOM     28  C   UNL     1      -5.955  -0.565  -0.160  0.00  0.00    +0.342 C 
BRANCH  28  29
ATOM     29  O   UNL     1      -6.283  -1.698  -0.816  0.00  0.00    -0.477 OA
ATOM     30  H   UNL     1      -5.610  -2.268  -1.132  0.00  0.00    +0.295 HD
ENDBRANCH  28  29
ENDBRANCH   7  28
BRANCH   6  31
ATOM     31  O   UNL     1       0.262   1.448   0.223  0.00  0.00    -0.422 OA
BRANCH  31  34
ATOM     32  F   UNL     1       1.933   2.291  -1.006  0.00  0.00    -0.155 F 
ATOM     33  F   UNL     1       0.387   1.143  -2.017  0.00  0.00    -0.155 F 
ATOM     34  C   UNL     1       0.598   2.041  -1.023  0.00  0.00    +0.509 C 
ENDBRANCH  31  34
ENDBRANCH   6  31
TORSDOF 6
