REMARK  Name = 124088
REMARK  3 active torsions:
REMARK  status: ('A' for Active; 'I' for Inactive)
REMARK    1  A    between atoms: N_1  and  C_15
REMARK    2  A    between atoms: C_17  and  C_18
REMARK    3  A    between atoms: C_18  and  O_19
REMARK                            x       y       z     vdW  Elec       q    Type
REMARK                         _______ _______ _______ _____ _____    ______ ____
ROOT
ATOM      1  N   UNL     1      -0.247  -0.027   0.198  0.00  0.00    -0.236 N 
ATOM      2  N   UNL     1       0.720   1.989   0.245  0.00  0.00    -0.240 NA
ATOM      3  N   UNL     1       1.725  -1.418  -0.090  0.00  0.00    -0.311 NA
ATOM      4  N   UNL     1       3.759  -0.073  -0.193  0.00  0.00    -0.312 NA
ATOM      5  N   UNL     1       3.828  -2.409  -0.361  0.00  0.00    -0.283 N 
ATOM      6  C   UNL     1       1.099  -0.240   0.053  0.00  0.00    +0.221 C 
ATOM      7  C   UNL     1      -0.419   1.332   0.309  0.00  0.00    +0.224 C 
ATOM      8  C   UNL     1       1.677   1.018   0.085  0.00  0.00    +0.167 C 
ATOM      9  C   UNL     1       3.061   1.078  -0.045  0.00  0.00    +0.212 C 
ATOM     10  C   UNL     1       3.058  -1.233  -0.206  0.00  0.00    +0.199 C 
ATOM     11  H   UNL     1       3.385  -3.288  -0.379  0.00  0.00    +0.156 HD
ATOM     12  H   UNL     1       4.807  -2.349  -0.450  0.00  0.00    +0.156 HD
ATOM     13  N   UNL     1       3.732   2.313  -0.023  0.00  0.00    -0.331 N 
ATOM     14  H   UNL     1       4.711   2.344  -0.115  0.00  0.00    +0.145 HD
ATOM     15  H   UNL     1       3.222   3.149   0.085  0.00  0.00    +0.145 HD
ENDROOT
BRANCH   1  18
ATOM     16  O   UNL     1      -2.175  -0.822  -0.884  0.00  0.00    -0.309 OA
ATOM     17  O   UNL     1      -3.330  -0.274   1.069  0.00  0.00    -0.324 OA
ATOM     18  C   UNL     1      -1.301  -1.040   0.229  0.00  0.00    +0.228 C 
ATOM     19  C   UNL     1      -2.183  -1.025   1.464  0.00  0.00    +0.196 C 
ATOM     20  C   UNL     1      -3.465  -0.564  -0.324  0.00  0.00    +0.267 C 
BRANCH  20  21
ATOM     21  C   UNL     1      -4.126   0.594  -1.041  0.00  0.00    +0.199 C 
BRANCH  21  22
ATOM     22  O   UNL     1      -5.415   0.802  -0.486  0.00  0.00    -0.377 OA
ATOM     23  H   UNL     1      -5.846   1.543  -0.940  0.00  0.00    +0.211 HD
ENDBRANCH  21  22
ENDBRANCH  20  21
ENDBRANCH   1  18
TORSDOF 3
