REMARK  Name = 11840904
REMARK  6 active torsions:
REMARK  status: ('A' for Active; 'I' for Inactive)
REMARK    1  A    between atoms: C_3  and  C_21
REMARK    2  A    between atoms: C_4  and  C_8
REMARK    3  A    between atoms: C_7  and  C_11
REMARK    4  A    between atoms: C_11  and  C_12
REMARK    5  A    between atoms: C_11  and  N_17
REMARK    6  A    between atoms: C_21  and  N_22
REMARK                            x       y       z     vdW  Elec       q    Type
REMARK                         _______ _______ _______ _____ _____    ______ ____
ROOT
ATOM      1  O   UNL     1       0.379   2.079   0.407  0.00  0.00    -0.277 OA
ATOM      2  N   UNL     1      -1.109   0.497  -0.404  0.00  0.00    -0.276 N 
ATOM      3  C   UNL     1      -2.333   1.197   0.012  0.00  0.00    +0.054 C 
ATOM      4  C   UNL     1      -1.426  -0.713  -1.172  0.00  0.00    +0.139 C 
ATOM      5  C   UNL     1      -3.479   0.296  -0.465  0.00  0.00    +0.020 C 
ATOM      6  C   UNL     1      -2.866  -0.478  -1.626  0.00  0.00    +0.035 C 
ATOM      7  C   UNL     1       0.152   1.059  -0.247  0.00  0.00    +0.206 C 
ENDROOT
BRANCH   4   8
ATOM      8  C   UNL     1      -1.312  -1.914  -0.329  0.00  0.00    -0.072 C 
ATOM      9  C   UNL     1      -1.219  -2.894   0.358  0.00  0.00    -0.088 C 
ATOM     10  C   UNL     1      -1.106  -4.087   1.196  0.00  0.00    +0.090 C 
ENDBRANCH   4   8
BRANCH   7  11
ATOM     11  C   UNL     1       1.286   0.353  -0.948  0.00  0.00    +0.013 C 
BRANCH  11  12
ATOM     12  C   UNL     1       2.583   0.577  -0.190  0.00  0.00    -0.011 C 
ATOM     13  C   UNL     1       2.558   0.011   1.226  0.00  0.00    -0.002 C 
ATOM     14  C   UNL     1       3.774  -0.149  -0.809  0.00  0.00    -0.002 C 
ATOM     15  C   UNL     1       4.030  -0.076   1.618  0.00  0.00    -0.000 C 
ATOM     16  C   UNL     1       4.814  -0.167   0.307  0.00  0.00    -0.000 C 
ENDBRANCH  11  12
BRANCH  11  17
ATOM     17  N   UNL     1       1.362   0.906  -2.289  0.00  0.00    +0.387 N 
ATOM     18  H   UNL     1       2.120   0.454  -2.801  0.00  0.00    -0.089 HD
ATOM     19  H   UNL     1       1.540   1.909  -2.234  0.00  0.00    -0.089 HD
ATOM     20  H   UNL     1       0.480   0.743  -2.775  0.00  0.00    -0.089 HD
ENDBRANCH  11  17
ENDBRANCH   7  11
BRANCH   3  21
ATOM     21  C   UNL     1      -2.416   1.439   1.515  0.00  0.00    -0.066 C 
BRANCH  21  22
ATOM     22  N   UNL     1      -3.671   2.065   1.840  0.00  0.00    +0.382 N 
ATOM     23  H   UNL     1      -3.720   2.224   2.847  0.00  0.00    -0.089 HD
ATOM     24  H   UNL     1      -4.439   1.457   1.554  0.00  0.00    -0.089 HD
ATOM     25  H   UNL     1      -3.743   2.957   1.351  0.00  0.00    -0.089 HD
ENDBRANCH  21  22
ENDBRANCH   3  21
TORSDOF 6
