REMARK  Name = 49957
REMARK  9 active torsions:
REMARK  status: ('A' for Active; 'I' for Inactive)
REMARK    1  A    between atoms: C_1  and  C_2
REMARK    2  A    between atoms: C_1  and  C_8
REMARK    3  A    between atoms: C_2  and  C_3
REMARK    4  A    between atoms: C_3  and  C_4
REMARK    5  A    between atoms: C_4  and  C_5
REMARK    6  A    between atoms: C_5  and  C_6
REMARK    7  A    between atoms: C_8  and  C_9
REMARK    8  A    between atoms: C_9  and  C_10
REMARK    9  A    between atoms: C_10  and  S_11
REMARK                            x       y       z     vdW  Elec       q    Type
REMARK                         _______ _______ _______ _____ _____    ______ ____
ROOT
ATOM      1  C   UNL     1      -0.242  -0.230  -0.090  0.00  0.00    +0.000 C 
ENDROOT
BRANCH   1   2
ATOM      2  C   UNL     1      -1.542   0.577  -0.071  0.00  0.00    +0.000 C 
BRANCH   2   3
ATOM      3  C   UNL     1      -2.766  -0.344  -0.066  0.00  0.00    +0.000 C 
BRANCH   3   4
ATOM      4  C   UNL     1      -4.065   0.462  -0.008  0.00  0.00    +0.000 C 
BRANCH   4   5
ATOM      5  C   UNL     1      -5.324  -0.410  -0.033  0.00  0.00    +0.000 C 
BRANCH   5   6
ATOM      6  C   UNL     1      -6.620   0.390   0.099  0.00  0.00    +0.000 C 
ATOM      7  C   UNL     1      -7.839  -0.520   0.056  0.00  0.00    +0.000 C 
ENDBRANCH   5   6
ENDBRANCH   4   5
ENDBRANCH   3   4
ENDBRANCH   2   3
ENDBRANCH   1   2
BRANCH   1   8
ATOM      8  C   UNL     1       1.018   0.639  -0.020  0.00  0.00    +0.002 C 
BRANCH   8   9
ATOM      9  C   UNL     1       2.315  -0.175   0.033  0.00  0.00    +0.026 C 
BRANCH   9  10
ATOM     10  C   UNL     1       3.562   0.699   0.028  0.00  0.00    +0.158 C 
BRANCH  10  11
ATOM     11  S   UNL     1       5.058  -0.235   0.035  0.00  0.00    +0.023 S 
ATOM     12  O   UNL     1       6.089   1.011  -0.176  0.00  0.00    -0.069 OA
ATOM     13  O   UNL     1       5.096  -1.076  -1.149  0.00  0.00    -0.069 OA
ATOM     14  O   UNL     1       5.260  -0.787   1.363  0.00  0.00    -0.069 OA
ENDBRANCH  10  11
ENDBRANCH   9  10
ENDBRANCH   8   9
ENDBRANCH   1   8
TORSDOF 9
