REMARK  Name = 46937034
REMARK  2 active torsions:
REMARK  status: ('A' for Active; 'I' for Inactive)
REMARK    1  A    between atoms: C_10  and  C_16
REMARK    2  A    between atoms: C_16  and  O_17
REMARK                            x       y       z     vdW  Elec       q    Type
REMARK                         _______ _______ _______ _____ _____    ______ ____
ROOT
ATOM      1  C   UNL     1       0.533  -0.469   0.050  0.00  0.00    +0.008 C 
ATOM      2  C   UNL     1       0.463   0.595  -1.097  0.00  0.00    +0.022 C 
ATOM      3  C   UNL     1      -0.922  -0.586   0.608  0.00  0.00    +0.029 C 
ATOM      4  C   UNL     1       1.522   0.149   1.059  0.00  0.00    +0.001 C 
ATOM      5  C   UNL     1       0.865  -1.888  -0.494  0.00  0.00    +0.001 C 
ATOM      6  C   UNL     1       2.473   1.036   0.239  0.00  0.00    +0.000 C 
ATOM      7  C   UNL     1       1.524   1.664  -0.791  0.00  0.00    +0.004 C 
ATOM      8  C   UNL     1      -1.430  -1.979   0.222  0.00  0.00    +0.005 C 
ATOM      9  C   UNL     1      -0.508  -2.442  -0.895  0.00  0.00    +0.000 C 
ATOM     10  C   UNL     1      -1.652   0.511  -0.094  0.00  0.00    +0.049 C 
ATOM     11  C   UNL     1      -0.926   1.144  -1.015  0.00  0.00    -0.024 C 
ATOM     12  C   UNL     1       1.545  -2.823   0.510  0.00  0.00    +0.000 C 
ATOM     13  C   UNL     1       3.586   0.231  -0.446  0.00  0.00    +0.000 C 
ATOM     14  C   UNL     1       3.121   2.107   1.125  0.00  0.00    +0.000 C 
ENDROOT
BRANCH  10  16
ATOM     15  O   UNL     1      -3.642   1.786  -0.351  0.00  0.00    -0.245 OA
ATOM     16  C   UNL     1      -3.027   0.882   0.200  0.00  0.00    +0.334 C 
BRANCH  16  17
ATOM     17  O   UNL     1      -3.525   0.083   1.171  0.00  0.00    -0.477 OA
ATOM     18  H   UNL     1      -2.990  -0.590   1.545  0.00  0.00    +0.295 HD
ENDBRANCH  16  17
ENDBRANCH  10  16
TORSDOF 2
