REMARK  Name = 6918242
REMARK  9 active torsions:
REMARK  status: ('A' for Active; 'I' for Inactive)
REMARK    1  A    between atoms: S_1  and  C_8
REMARK    2  A    between atoms: S_1  and  C_19
REMARK    3  A    between atoms: C_5  and  C_14
REMARK    4  A    between atoms: C_9  and  C_13
REMARK    5  A    between atoms: C_14  and  O_16
REMARK    6  A    between atoms: C_20  and  C_25
REMARK    7  A    between atoms: C_25  and  N_26
REMARK    8  A    between atoms: N_26  and  S_28
REMARK    9  A    between atoms: S_28  and  N_31
REMARK                            x       y       z     vdW  Elec       q    Type
REMARK                         _______ _______ _______ _____ _____    ______ ____
ROOT
ATOM      1  S   UNL     1      -0.094   0.964  -1.769  0.00  0.00    -0.120 S 
ENDROOT
BRANCH   1   8
ATOM      2  O   UNL     1      -5.215   1.550   0.510  0.00  0.00    -0.274 OA
ATOM      3  N   UNL     1      -3.154   0.406   0.575  0.00  0.00    -0.254 N 
ATOM      4  C   UNL     1      -3.102  -0.993   0.110  0.00  0.00    +0.095 C 
ATOM      5  C   UNL     1      -4.652  -0.881  -0.049  0.00  0.00    +0.123 C 
ATOM      6  C   UNL     1      -2.018  -0.975  -0.986  0.00  0.00    +0.049 C 
ATOM      7  C   UNL     1      -4.494   0.582   0.419  0.00  0.00    +0.233 C 
ATOM      8  C   UNL     1      -1.455   0.430  -0.866  0.00  0.00    +0.024 C 
ATOM      9  C   UNL     1      -2.165   1.157   0.007  0.00  0.00    +0.136 C 
ATOM     10  C   UNL     1      -2.527  -1.330  -2.373  0.00  0.00    +0.007 C 
BRANCH   9  13
ATOM     11  O   UNL     1      -2.655   3.418  -0.387  0.00  0.00    -0.239 OA
ATOM     12  O   UNL     1      -1.178   2.870   1.272  0.00  0.00    -0.239 OA
ATOM     13  C   UNL     1      -1.981   2.627   0.329  0.00  0.00    +0.401 C 
ENDBRANCH   9  13
BRANCH   5  14
ATOM     14  C   UNL     1      -5.613  -1.699   0.776  0.00  0.00    +0.121 C 
ATOM     15  C   UNL     1      -5.704  -3.146   0.299  0.00  0.00    +0.032 C 
BRANCH  14  16
ATOM     16  O   UNL     1      -5.199  -1.697   2.144  0.00  0.00    -0.384 OA
ATOM     17  H   UNL     1      -5.137  -0.783   2.462  0.00  0.00    +0.210 HD
ENDBRANCH  14  16
ENDBRANCH   5  14
ENDBRANCH   1   8
BRANCH   1  19
ATOM     18  N   UNL     1       2.797  -0.604   0.509  0.00  0.00    +0.387 N 
ATOM     19  C   UNL     1       1.160  -0.198  -1.172  0.00  0.00    +0.028 C 
ATOM     20  C   UNL     1       3.447  -0.737  -0.845  0.00  0.00    -0.043 C 
ATOM     21  C   UNL     1       2.535   0.065  -1.767  0.00  0.00    -0.011 C 
ATOM     22  C   UNL     1       1.404  -0.062   0.322  0.00  0.00    -0.070 C 
ATOM     23  H   UNL     1       3.340   0.035   1.089  0.00  0.00    -0.084 HD
ATOM     24  H   UNL     1       2.758  -1.514   0.968  0.00  0.00    -0.084 HD
BRANCH  20  25
ATOM     25  C   UNL     1       4.875  -0.233  -0.790  0.00  0.00    +0.071 C 
BRANCH  25  26
ATOM     26  N   UNL     1       5.678  -1.027   0.096  0.00  0.00    -0.172 NA
ATOM     27  H   UNL     1       5.057  -1.381   0.823  0.00  0.00    +0.150 HD
BRANCH  26  28
ATOM     28  S   UNL     1       7.035  -0.301   0.897  0.00  0.00    +0.093 S 
ATOM     29  O   UNL     1       6.565   0.778   1.747  0.00  0.00    -0.142 OA
ATOM     30  O   UNL     1       7.868  -1.357   1.441  0.00  0.00    -0.142 OA
BRANCH  28  31
ATOM     31  N   UNL     1       7.841   0.393  -0.450  0.00  0.00    -0.193 NA
ATOM     32  H   UNL     1       8.684   0.871  -0.132  0.00  0.00    +0.145 HD
ATOM     33  H   UNL     1       7.223   1.063  -0.908  0.00  0.00    +0.145 HD
ENDBRANCH  28  31
ENDBRANCH  26  28
ENDBRANCH  25  26
ENDBRANCH  20  25
ENDBRANCH   1  19
TORSDOF 9
