REMARK  Name = 5483
REMARK  5 active torsions:
REMARK  status: ('A' for Active; 'I' for Inactive)
REMARK    1  A    between atoms: N_2  and  C_9
REMARK    2  A    between atoms: C_3  and  C_5
REMARK    3  A    between atoms: C_5  and  S_7
REMARK    4  A    between atoms: C_9  and  C_11
REMARK    5  A    between atoms: C_11  and  O_12
REMARK                            x       y       z     vdW  Elec       q    Type
REMARK                         _______ _______ _______ _____ _____    ______ ____
ROOT
ATOM      1  O   UNL     1      -0.756  -1.046   1.133  0.00  0.00    -0.274 OA
ATOM      2  N   UNL     1       0.159  -0.350  -0.883  0.00  0.00    -0.294 N 
ATOM      3  C   UNL     1      -0.866  -0.489   0.042  0.00  0.00    +0.232 C 
ATOM      4  H   UNL     1      -0.030   0.114  -1.731  0.00  0.00    +0.150 HD
ENDROOT
BRANCH   3   5
ATOM      5  C   UNL     1      -2.177   0.111  -0.446  0.00  0.00    +0.120 C 
ATOM      6  C   UNL     1      -3.381  -0.613   0.140  0.00  0.00    +0.021 C 
BRANCH   5   7
ATOM      7  S   UNL     1      -2.209   1.863   0.056  0.00  0.00    -0.160 S 
ATOM      8  H   UNL     1      -1.132   2.506  -0.469  0.00  0.00    +0.103 HD
ENDBRANCH   5   7
ENDBRANCH   3   5
BRANCH   2   9
ATOM      9  C   UNL     1       1.491  -0.858  -0.653  0.00  0.00    +0.200 C 
BRANCH   9  11
ATOM     10  O   UNL     1       3.563  -0.085   0.297  0.00  0.00    -0.248 OA
ATOM     11  C   UNL     1       2.392   0.145   0.021  0.00  0.00    +0.334 C 
BRANCH  11  12
ATOM     12  O   UNL     1       1.784   1.322   0.294  0.00  0.00    -0.479 OA
ATOM     13  H   UNL     1       0.885   1.450   0.062  0.00  0.00    +0.295 HD
ENDBRANCH  11  12
ENDBRANCH   9  11
ENDBRANCH   2   9
TORSDOF 5
