REMARK  Name = 5563
REMARK  5 active torsions:
REMARK  status: ('A' for Active; 'I' for Inactive)
REMARK    1  A    between atoms: P_1  and  O_3
REMARK    2  A    between atoms: P_1  and  O_5
REMARK    3  A    between atoms: P_1  and  O_7
REMARK    4  A    between atoms: O_7  and  C_8
REMARK    5  A    between atoms: C_8  and  C_12
REMARK                            x       y       z     vdW  Elec       q    Type
REMARK                         _______ _______ _______ _____ _____    ______ ____
ROOT
ATOM      1  P   UNL     1       2.042  -0.064   0.009  0.00  0.00    +0.473 P 
ATOM      2  O   UNL     1       2.995  -1.218   0.108  0.00  0.00    -0.227 OA
ENDROOT
BRANCH   1   3
ATOM      3  O   UNL     1       2.178   1.047   1.176  0.00  0.00    -0.303 OA
ATOM      4  H   UNL     1       1.526   1.751   1.031  0.00  0.00    +0.222 HD
ENDBRANCH   1   3
BRANCH   1   5
ATOM      5  O   UNL     1       2.162   0.807  -1.349  0.00  0.00    -0.303 OA
ATOM      6  H   UNL     1       1.514   1.528  -1.329  0.00  0.00    +0.222 HD
ENDBRANCH   1   5
BRANCH   1   7
ATOM      7  O   UNL     1       0.474  -0.466   0.042  0.00  0.00    -0.269 OA
BRANCH   7   8
ATOM      8  C   UNL     1      -0.491   0.567  -0.046  0.00  0.00    +0.199 C 
BRANCH   8  12
ATOM      9 CL   UNL     1      -3.090   1.335  -0.114  0.00  0.00    -0.080 Cl
ATOM     10 CL   UNL     1      -2.181  -0.879   1.538  0.00  0.00    -0.080 Cl
ATOM     11 CL   UNL     1      -2.180  -1.125  -1.366  0.00  0.00    -0.080 Cl
ATOM     12  C   UNL     1      -1.908  -0.005   0.002  0.00  0.00    +0.226 C 
ENDBRANCH   8  12
ENDBRANCH   7   8
ENDBRANCH   1   7
TORSDOF 5
