REMARK  Name = 14205264
REMARK  11 active torsions:
REMARK  status: ('A' for Active; 'I' for Inactive)
REMARK    1  A    between atoms: C_1  and  C_4
REMARK    2  A    between atoms: C_2  and  C_16
REMARK    3  A    between atoms: C_4  and  C_6
REMARK    4  A    between atoms: C_6  and  O_7
REMARK    5  A    between atoms: C_6  and  C_9
REMARK    6  A    between atoms: C_9  and  C_10
REMARK    7  A    between atoms: C_17  and  C_18
REMARK    8  A    between atoms: C_18  and  N_19
REMARK    9  A    between atoms: C_18  and  C_23
REMARK   10  A    between atoms: C_23  and  C_26
REMARK   11  A    between atoms: C_26  and  O_27
REMARK                            x       y       z     vdW  Elec       q    Type
REMARK                         _______ _______ _______ _____ _____    ______ ____
ROOT
ATOM      1  C   UNL     1       0.294   1.383  -0.511  0.00  0.00    -0.028 C 
ATOM      2  C   UNL     1      -0.926   1.516   0.048  0.00  0.00    -0.026 C 
ATOM      3  C   UNL     1      -1.262   2.419   1.203  0.00  0.00    +0.031 C 
ENDROOT
BRANCH   1   4
ATOM      4  C   UNL     1       1.591   2.037  -0.081  0.00  0.00    +0.049 C 
ATOM      5  C   UNL     1       2.084   2.975  -1.190  0.00  0.00    +0.007 C 
BRANCH   4   6
ATOM      6  C   UNL     1       2.680   1.007   0.309  0.00  0.00    +0.124 C 
BRANCH   6   7
ATOM      7  O   UNL     1       2.231   0.295   1.468  0.00  0.00    -0.353 OA
ATOM      8  C   UNL     1       1.938   1.183   2.533  0.00  0.00    +0.174 C 
ENDBRANCH   6   7
BRANCH   6   9
ATOM      9  C   UNL     1       3.026  -0.021  -0.780  0.00  0.00    +0.056 C 
BRANCH   9  10
ATOM     10  C   UNL     1       4.343  -0.712  -0.509  0.00  0.00    -0.020 C 
ATOM     11  C   UNL     1       5.511  -0.163  -1.013  0.00  0.00    -0.004 C 
ATOM     12  C   UNL     1       4.356  -1.877   0.238  0.00  0.00    -0.004 C 
ATOM     13  C   UNL     1       6.727  -0.799  -0.763  0.00  0.00    -0.000 C 
ATOM     14  C   UNL     1       5.572  -2.514   0.488  0.00  0.00    -0.000 C 
ATOM     15  C   UNL     1       6.757  -1.975  -0.012  0.00  0.00    -0.000 C 
ENDBRANCH   9  10
ENDBRANCH   6   9
ENDBRANCH   4   6
ENDBRANCH   1   4
BRANCH   2  16
ATOM     16  C   UNL     1      -2.084   0.808  -0.488  0.00  0.00    -0.011 C 
ATOM     17  C   UNL     1      -3.330   0.885   0.007  0.00  0.00    -0.048 C 
BRANCH  17  18
ATOM     18  C   UNL     1      -4.514   0.158  -0.592  0.00  0.00    -0.032 C 
BRANCH  18  19
ATOM     19  N   UNL     1      -5.492   1.152  -1.053  0.00  0.00    +0.385 N 
ATOM     20  H   UNL     1      -6.297   0.674  -1.459  0.00  0.00    -0.089 HD
ATOM     21  H   UNL     1      -5.062   1.752  -1.757  0.00  0.00    -0.089 HD
ATOM     22  H   UNL     1      -5.798   1.720  -0.263  0.00  0.00    -0.089 HD
ENDBRANCH  18  19
BRANCH  18  23
ATOM     23  C   UNL     1      -5.146  -0.805   0.450  0.00  0.00    +0.083 C 
ATOM     24  C   UNL     1      -4.182  -1.887   0.943  0.00  0.00    +0.010 C 
BRANCH  23  26
ATOM     25  O   UNL     1      -6.321  -2.265  -1.112  0.00  0.00    -0.250 OA
ATOM     26  C   UNL     1      -6.356  -1.522  -0.140  0.00  0.00    +0.311 C 
BRANCH  26  27
ATOM     27  O   UNL     1      -7.495  -1.276   0.558  0.00  0.00    -0.480 OA
ATOM     28  H   UNL     1      -7.477  -0.700   1.297  0.00  0.00    +0.295 HD
ENDBRANCH  26  27
ENDBRANCH  23  26
ENDBRANCH  18  23
ENDBRANCH  17  18
ENDBRANCH   2  16
TORSDOF 11
