REMARK  Name = 6102691
REMARK  4 active torsions:
REMARK  status: ('A' for Active; 'I' for Inactive)
REMARK    1  A    between atoms: C_2  and  C_12
REMARK    2  A    between atoms: C_5  and  C_23
REMARK    3  A    between atoms: C_9  and  O_20
REMARK    4  A    between atoms: C_17  and  O_18
REMARK                            x       y       z     vdW  Elec       q    Type
REMARK                         _______ _______ _______ _____ _____    ______ ____
ROOT
ATOM      1  C   UNL     1       1.639  -1.036   0.130  0.00  0.00    +0.001 C 
ATOM      2  C   UNL     1      -0.476   0.164   0.051  0.00  0.00    +0.001 C 
ATOM      3  C   UNL     1       2.332   0.189  -0.017  0.00  0.00    +0.013 C 
ATOM      4  C   UNL     1       0.235  -1.032   0.162  0.00  0.00    +0.000 C 
ATOM      5  C   UNL     1       1.601   1.383  -0.128  0.00  0.00    +0.069 C 
ATOM      6  C   UNL     1       0.206   1.369  -0.094  0.00  0.00    +0.010 C 
ATOM      7  C   UNL     1       2.371  -2.230   0.241  0.00  0.00    +0.003 C 
ATOM      8  C   UNL     1       3.736   0.184  -0.049  0.00  0.00    +0.037 C 
ATOM      9  C   UNL     1       4.447  -1.011   0.062  0.00  0.00    +0.134 C 
ATOM     10  C   UNL     1       3.766  -2.216   0.207  0.00  0.00    +0.037 C 
ENDROOT
BRANCH   2  12
ATOM     11  F   UNL     1      -4.679  -2.046  -0.809  0.00  0.00    -0.201 F 
ATOM     12  C   UNL     1      -1.922   0.150   0.086  0.00  0.00    +0.002 C 
ATOM     13  C   UNL     1      -2.620  -0.961  -0.387  0.00  0.00    +0.033 C 
ATOM     14  C   UNL     1      -2.618   1.248   0.591  0.00  0.00    +0.003 C 
ATOM     15  C   UNL     1      -4.014  -0.975  -0.354  0.00  0.00    +0.174 C 
ATOM     16  C   UNL     1      -4.012   1.234   0.624  0.00  0.00    +0.039 C 
ATOM     17  C   UNL     1      -4.710   0.123   0.152  0.00  0.00    +0.161 C 
BRANCH  17  18
ATOM     18  O   UNL     1      -6.071   0.111   0.186  0.00  0.00    -0.503 OA
ATOM     19  H   UNL     1      -6.541  -0.635  -0.131  0.00  0.00    +0.292 HD
ENDBRANCH  17  18
ENDBRANCH   2  12
BRANCH   9  20
ATOM     20  O   UNL     1       5.808  -0.999   0.029  0.00  0.00    -0.506 OA
ATOM     21  H   UNL     1       6.267  -0.188  -0.068  0.00  0.00    +0.292 HD
ENDBRANCH   9  20
BRANCH   5  23
ATOM     22  N   UNL     1       2.747   3.689  -0.403  0.00  0.00    -0.191 NA
ATOM     23  C   UNL     1       2.236   2.660  -0.280  0.00  0.00    +0.100 C 
ENDBRANCH   5  23
TORSDOF 4
