REMARK  Name = 25138295
REMARK  5 active torsions:
REMARK  status: ('A' for Active; 'I' for Inactive)
REMARK    1  A    between atoms: N_3  and  C_21
REMARK    2  A    between atoms: C_4  and  C_11
REMARK    3  A    between atoms: C_12  and  C_20
REMARK    4  A    between atoms: C_22  and  C_28
REMARK    5  A    between atoms: C_28  and  O_29
REMARK                            x       y       z     vdW  Elec       q    Type
REMARK                         _______ _______ _______ _____ _____    ______ ____
ROOT
ATOM      1  O   UNL     1       2.110  -2.163  -1.346  0.00  0.00    -0.252 OA
ATOM      2  N   UNL     1       0.545  -1.144   0.016  0.00  0.00    -0.264 N 
ATOM      3  N   UNL     1       2.697  -0.213  -0.234  0.00  0.00    -0.268 N 
ATOM      4  C   UNL     1      -2.248  -0.384   0.040  0.00  0.00    +0.026 C 
ATOM      5  C   UNL     1      -1.126   0.622   0.371  0.00  0.00    +0.026 C 
ATOM      6  C   UNL     1      -1.718  -1.514  -0.866  0.00  0.00    +0.026 C 
ATOM      7  C   UNL     1       0.092  -0.099   0.945  0.00  0.00    +0.095 C 
ATOM      8  C   UNL     1      -0.468  -2.163  -0.271  0.00  0.00    +0.095 C 
ATOM      9  C   UNL     1       1.822  -1.245  -0.574  0.00  0.00    +0.308 C 
ATOM     10  H   UNL     1       2.288   0.660  -0.038  0.00  0.00    +0.156 HD
ENDROOT
BRANCH   4  11
ATOM     11  C   UNL     1      -3.467   0.298  -0.552  0.00  0.00    -0.018 C 
ATOM     12  C   UNL     1      -4.698   0.263   0.102  0.00  0.00    +0.067 C 
ATOM     13  C   UNL     1      -3.342   0.969  -1.769  0.00  0.00    -0.004 C 
ATOM     14  C   UNL     1      -5.805   0.899  -0.460  0.00  0.00    +0.004 C 
ATOM     15  C   UNL     1      -4.449   1.605  -2.331  0.00  0.00    -0.000 C 
ATOM     16  C   UNL     1      -5.680   1.570  -1.677  0.00  0.00    -0.000 C 
BRANCH  12  20
ATOM     17  F   UNL     1      -6.122  -0.387   1.911  0.00  0.00    -0.166 F 
ATOM     18  F   UNL     1      -4.562  -1.780   1.338  0.00  0.00    -0.166 F 
ATOM     19  F   UNL     1      -4.046   0.058   2.380  0.00  0.00    -0.166 F 
ATOM     20  C   UNL     1      -4.856  -0.449   1.406  0.00  0.00    +0.418 C 
ENDBRANCH  12  20
ENDBRANCH   4  11
BRANCH   3  21
ATOM     21  C   UNL     1       4.109  -0.282  -0.140  0.00  0.00    +0.058 C 
ATOM     22  C   UNL     1       4.861   0.839   0.213  0.00  0.00    +0.089 C 
ATOM     23  C   UNL     1       4.747  -1.494  -0.406  0.00  0.00    +0.015 C 
ATOM     24  C   UNL     1       6.250   0.747   0.300  0.00  0.00    +0.008 C 
ATOM     25  C   UNL     1       6.136  -1.585  -0.319  0.00  0.00    +0.001 C 
ATOM     26  C   UNL     1       6.888  -0.465   0.034  0.00  0.00    +0.000 C 
BRANCH  22  28
ATOM     27  O   UNL     1       3.174   2.521  -0.004  0.00  0.00    -0.245 OA
ATOM     28  C   UNL     1       4.227   2.120   0.497  0.00  0.00    +0.339 C 
BRANCH  28  29
ATOM     29  O   UNL     1       4.931   2.857   1.398  0.00  0.00    -0.477 OA
ATOM     30  H   UNL     1       5.728   2.521   1.758  0.00  0.00    +0.295 HD
ENDBRANCH  28  29
ENDBRANCH  22  28
ENDBRANCH   3  21
TORSDOF 5
