REMARK  Name = 444894
REMARK  5 active torsions:
REMARK  status: ('A' for Active; 'I' for Inactive)
REMARK    1  A    between atoms: C_2  and  O_19
REMARK    2  A    between atoms: C_4  and  N_7
REMARK    3  A    between atoms: O_19  and  P_20
REMARK    4  A    between atoms: P_20  and  O_22
REMARK    5  A    between atoms: P_20  and  O_24
REMARK                            x       y       z     vdW  Elec       q    Type
REMARK                         _______ _______ _______ _____ _____    ______ ____
ROOT
ATOM      1  O   UNL     1      -0.777   2.107  -0.916  0.00  0.00    -0.337 OA
ATOM      2  C   UNL     1      -2.318   0.584   0.002  0.00  0.00    +0.157 C 
ATOM      3  C   UNL     1      -1.301  -0.223  -0.775  0.00  0.00    +0.084 C 
ATOM      4  C   UNL     1      -0.208   0.795  -1.079  0.00  0.00    +0.197 C 
ATOM      5  C   UNL     1      -2.178   1.955  -0.637  0.00  0.00    +0.145 C 
ATOM      6  C   UNL     1      -2.649   3.091   0.253  0.00  0.00    +0.035 C 
ENDROOT
BRANCH   4   7
ATOM      7  N   UNL     1       0.974   0.667  -0.224  0.00  0.00    -0.249 N 
ATOM      8  N   UNL     1       2.322   0.960   1.531  0.00  0.00    -0.242 NA
ATOM      9  N   UNL     1       2.363  -0.802  -1.571  0.00  0.00    -0.228 NA
ATOM     10  N   UNL     1       4.487  -1.276  -0.467  0.00  0.00    -0.229 NA
ATOM     11  C   UNL     1       2.103  -0.059  -0.485  0.00  0.00    +0.152 C 
ATOM     12  C   UNL     1       1.156   1.261   0.999  0.00  0.00    +0.223 C 
ATOM     13  C   UNL     1       2.924   0.135   0.614  0.00  0.00    +0.140 C 
ATOM     14  C   UNL     1       4.158  -0.508   0.599  0.00  0.00    +0.143 C 
ATOM     15  C   UNL     1       3.583  -1.374  -1.471  0.00  0.00    +0.253 C 
ATOM     16  N   UNL     1       5.053  -0.368   1.673  0.00  0.00    -0.342 N 
ATOM     17  H   UNL     1       5.924  -0.828   1.652  0.00  0.00    +0.144 HD
ATOM     18  H   UNL     1       4.811   0.190   2.447  0.00  0.00    +0.144 HD
ENDBRANCH   4   7
BRANCH   2  19
ATOM     19  O   UNL     1      -3.618   0.051  -0.147  0.00  0.00    -0.273 OA
BRANCH  19  20
ATOM     20  P   UNL     1      -3.881  -1.467   0.335  0.00  0.00    +0.473 P 
ATOM     21  O   UNL     1      -3.051  -2.509  -0.357  0.00  0.00    -0.227 OA
BRANCH  20  22
ATOM     22  O   UNL     1      -5.481  -1.647   0.188  0.00  0.00    -0.303 OA
ATOM     23  H   UNL     1      -5.932  -0.933   0.665  0.00  0.00    +0.222 HD
ENDBRANCH  20  22
BRANCH  20  24
ATOM     24  O   UNL     1      -3.662  -1.373   1.935  0.00  0.00    -0.303 OA
ATOM     25  H   UNL     1      -4.234  -0.679   2.299  0.00  0.00    +0.222 HD
ENDBRANCH  20  24
ENDBRANCH  19  20
ENDBRANCH   2  19
TORSDOF 5
