REMARK  Name = 15991546
REMARK  3 active torsions:
REMARK  status: ('A' for Active; 'I' for Inactive)
REMARK    1  A    between atoms: N_2  and  C_15
REMARK    2  A    between atoms: C_3  and  C_8
REMARK    3  A    between atoms: C_16  and  O_24
REMARK                            x       y       z     vdW  Elec       q    Type
REMARK                         _______ _______ _______ _____ _____    ______ ____
ROOT
ATOM      1  O   UNL     1      -0.387   2.750   0.016  0.00  0.00    -0.269 OA
ATOM      2  N   UNL     1       0.650   0.751  -0.536  0.00  0.00    -0.298 N 
ATOM      3  C   UNL     1      -0.438   1.544  -0.213  0.00  0.00    +0.259 C 
ATOM      4  H   UNL     1       0.506  -0.208  -0.703  0.00  0.00    +0.150 HD
ENDROOT
BRANCH   3   8
ATOM      5 CL   UNL     1      -6.950  -2.087   0.209  0.00  0.00    -0.075 Cl
ATOM      6  S   UNL     1      -5.504   0.523   0.441  0.00  0.00    -0.061 S 
ATOM      7  N   UNL     1      -2.884   1.514   0.185  0.00  0.00    -0.304 N 
ATOM      8  C   UNL     1      -1.744   0.843  -0.123  0.00  0.00    +0.103 C 
ATOM      9  C   UNL     1      -1.953  -0.483  -0.328  0.00  0.00    +0.021 C 
ATOM     10  C   UNL     1      -3.321  -0.607  -0.124  0.00  0.00    +0.022 C 
ATOM     11  C   UNL     1      -3.864   0.579   0.179  0.00  0.00    +0.080 C 
ATOM     12  C   UNL     1      -4.212  -1.676  -0.170  0.00  0.00    +0.020 C 
ATOM     13  C   UNL     1      -5.485  -1.198   0.128  0.00  0.00    +0.088 C 
ATOM     14  H   UNL     1      -2.978   2.475   0.374  0.00  0.00    +0.153 HD
ENDBRANCH   3   8
BRANCH   2  15
ATOM     15  C   UNL     1       1.993   1.284  -0.638  0.00  0.00    +0.107 C 
ATOM     16  C   UNL     1       2.728   1.165   0.715  0.00  0.00    +0.151 C 
ATOM     17  C   UNL     1       2.827   0.490  -1.666  0.00  0.00    +0.048 C 
ATOM     18  C   UNL     1       3.481  -0.119   0.549  0.00  0.00    +0.002 C 
ATOM     19  C   UNL     1       3.526  -0.507  -0.794  0.00  0.00    -0.022 C 
ATOM     20  C   UNL     1       4.100  -0.876   1.531  0.00  0.00    -0.002 C 
ATOM     21  C   UNL     1       4.197  -1.654  -1.185  0.00  0.00    -0.004 C 
ATOM     22  C   UNL     1       4.768  -2.040   1.148  0.00  0.00    -0.000 C 
ATOM     23  C   UNL     1       4.817  -2.427  -0.200  0.00  0.00    -0.000 C 
BRANCH  16  24
ATOM     24  O   UNL     1       3.652   2.230   0.875  0.00  0.00    -0.378 OA
ATOM     25  H   UNL     1       3.169   3.064   0.982  0.00  0.00    +0.211 HD
ENDBRANCH  16  24
ENDBRANCH   2  15
TORSDOF 3
