REMARK  Name = 4113
REMARK  1 active torsions:
REMARK  status: ('A' for Active; 'I' for Inactive)
REMARK    1  A    between atoms: N_1  and  O_4
REMARK                            x       y       z     vdW  Elec       q    Type
REMARK                         _______ _______ _______ _____ _____    ______ ____
ROOT
ATOM      1  N   UNL     1      -1.168   0.277   0.000  0.00  0.00    -0.214 NA
ATOM      2  H   UNL     1      -2.003  -0.310   0.000  0.00  0.00    +0.150 HD
ATOM      3  H   UNL     1      -1.167   0.866  -0.833  0.00  0.00    +0.150 HD
ENDROOT
BRANCH   1   4
ATOM      4  O   UNL     1       0.018  -0.566   0.000  0.00  0.00    -0.286 OA
ATOM      5  C   UNL     1       1.151   0.290   0.000  0.00  0.00    +0.200 C 
ENDBRANCH   1   4
TORSDOF 1
