REMARK  Name = 5329098
REMARK  1 active torsions:
REMARK  status: ('A' for Active; 'I' for Inactive)
REMARK    1  A    between atoms: C_6  and  C_14
REMARK                            x       y       z     vdW  Elec       q    Type
REMARK                         _______ _______ _______ _____ _____    ______ ____
ROOT
ATOM      1  O   UNL     1      -0.624   1.933  -0.451  0.00  0.00    -0.270 OA
ATOM      2  N   UNL     1       1.731   1.817  -0.315  0.00  0.00    -0.280 N 
ATOM      3  C   UNL     1       0.577  -0.131   0.021  0.00  0.00    +0.056 C 
ATOM      4  C   UNL     1       2.002  -0.420   0.147  0.00  0.00    +0.018 C 
ATOM      5  C   UNL     1       2.657   0.797  -0.066  0.00  0.00    +0.051 C 
ATOM      6  C   UNL     1      -0.455  -0.969   0.140  0.00  0.00    +0.019 C 
ATOM      7  C   UNL     1       0.420   1.332  -0.280  0.00  0.00    +0.250 C 
ATOM      8  C   UNL     1       2.720  -1.571   0.412  0.00  0.00    +0.001 C 
ATOM      9  C   UNL     1       4.032   0.913  -0.024  0.00  0.00    +0.015 C 
ATOM     10  C   UNL     1       4.114  -1.475   0.459  0.00  0.00    +0.000 C 
ATOM     11  C   UNL     1       4.764  -0.245   0.244  0.00  0.00    +0.001 C 
ATOM     12  H   UNL     1       1.972   2.755  -0.492  0.00  0.00    +0.155 HD
ENDROOT
BRANCH   6  14
ATOM     13  N   UNL     1      -2.494  -0.257   1.135  0.00  0.00    -0.316 N 
ATOM     14  C   UNL     1      -1.878  -0.612   0.000  0.00  0.00    +0.044 C 
ATOM     15  C   UNL     1      -2.686  -0.572  -1.055  0.00  0.00    -0.008 C 
ATOM     16  C   UNL     1      -3.792   0.036   0.809  0.00  0.00    +0.025 C 
ATOM     17  C   UNL     1      -3.940  -0.152  -0.547  0.00  0.00    +0.007 C 
ATOM     18  C   UNL     1      -2.385  -0.890  -2.465  0.00  0.00    +0.032 C 
ATOM     19  C   UNL     1      -4.762   0.466   1.834  0.00  0.00    +0.047 C 
ATOM     20  H   UNL     1      -2.090  -0.214   2.032  0.00  0.00    +0.152 HD
ENDBRANCH   6  14
TORSDOF 1
