REMARK  Name = 4436
REMARK  2 active torsions:
REMARK  status: ('A' for Active; 'I' for Inactive)
REMARK    1  A    between atoms: C_1  and  C_11
REMARK    2  A    between atoms: C_11  and  C_14
REMARK                            x       y       z     vdW  Elec       q    Type
REMARK                         _______ _______ _______ _____ _____    ______ ____
ROOT
ATOM      1  C   UNL     1      -0.036   0.774  -0.693  0.00  0.00    -0.015 C 
ATOM      2  C   UNL     1      -1.084  -0.090  -0.338  0.00  0.00    -0.004 C 
ATOM      3  C   UNL     1      -2.212   0.430   0.341  0.00  0.00    -0.000 C 
ATOM      4  C   UNL     1      -0.099   2.133  -0.383  0.00  0.00    -0.004 C 
ATOM      5  C   UNL     1      -1.038  -1.461  -0.642  0.00  0.00    -0.000 C 
ATOM      6  C   UNL     1      -2.258   1.801   0.644  0.00  0.00    -0.000 C 
ATOM      7  C   UNL     1      -1.207   2.645   0.285  0.00  0.00    -0.000 C 
ATOM      8  C   UNL     1      -3.260  -0.434   0.695  0.00  0.00    -0.000 C 
ATOM      9  C   UNL     1      -2.089  -2.305  -0.282  0.00  0.00    -0.000 C 
ATOM     10  C   UNL     1      -3.198  -1.793   0.385  0.00  0.00    -0.000 C 
ENDROOT
BRANCH   1  11
ATOM     11  C   UNL     1       1.184   0.290  -1.412  0.00  0.00    +0.088 C 
BRANCH  11  14
ATOM     12  N   UNL     1       3.142   0.759   0.049  0.00  0.00    -0.299 N 
ATOM     13  N   UNL     1       2.354  -1.374  -0.044  0.00  0.00    -0.232 NA
ATOM     14  C   UNL     1       2.248  -0.137  -0.456  0.00  0.00    +0.113 C 
ATOM     15  C   UNL     1       4.024   0.106   0.968  0.00  0.00    +0.084 C 
ATOM     16  C   UNL     1       3.528  -1.345   0.883  0.00  0.00    +0.116 C 
ATOM     17  H   UNL     1       3.176   1.714  -0.184  0.00  0.00    +0.153 HD
ENDBRANCH  11  14
ENDBRANCH   1  11
TORSDOF 2
