REMARK  Name = 180559
REMARK  9 active torsions:
REMARK  status: ('A' for Active; 'I' for Inactive)
REMARK    1  A    between atoms: O_1  and  C_2
REMARK    2  A    between atoms: O_1  and  C_14
REMARK    3  A    between atoms: C_3  and  C_8
REMARK    4  A    between atoms: C_8  and  C_11
REMARK    5  A    between atoms: C_14  and  C_15
REMARK    6  A    between atoms: C_15  and  O_16
REMARK    7  A    between atoms: C_15  and  C_18
REMARK    8  A    between atoms: C_18  and  N_19
REMARK    9  A    between atoms: N_19  and  C_22
REMARK                            x       y       z     vdW  Elec       q    Type
REMARK                         _______ _______ _______ _____ _____    ______ ____
ROOT
ATOM      1  O   UNL     1      -1.368  -1.711  -0.304  0.00  0.00    -0.473 OA
ENDROOT
BRANCH   1   2
ATOM      2  C   UNL     1      -0.032  -1.413  -0.273  0.00  0.00    +0.139 C 
ATOM      3  C   UNL     1       2.681  -0.804  -0.209  0.00  0.00    -0.013 C 
ATOM      4  C   UNL     1       0.691  -1.609   0.899  0.00  0.00    +0.037 C 
ATOM      5  C   UNL     1       0.590  -0.916  -1.413  0.00  0.00    +0.037 C 
ATOM      6  C   UNL     1       2.052  -1.303   0.931  0.00  0.00    -0.001 C 
ATOM      7  C   UNL     1       1.950  -0.611  -1.381  0.00  0.00    -0.001 C 
BRANCH   3   8
ATOM      8  C   UNL     1       4.136  -0.478  -0.175  0.00  0.00    +0.111 C 
BRANCH   8  11
ATOM      9  O   UNL     1       3.571   1.757   0.580  0.00  0.00    -0.275 OA
ATOM     10  N   UNL     1       5.780   1.250   0.200  0.00  0.00    -0.329 N 
ATOM     11  C   UNL     1       4.434   0.953   0.240  0.00  0.00    +0.224 C 
ATOM     12  H   UNL     1       6.094   2.150   0.449  0.00  0.00    +0.145 HD
ATOM     13  H   UNL     1       6.428   0.563  -0.077  0.00  0.00    +0.145 HD
ENDBRANCH   8  11
ENDBRANCH   3   8
ENDBRANCH   1   2
BRANCH   1  14
ATOM     14  C   UNL     1      -2.083  -1.572   0.920  0.00  0.00    +0.232 C 
BRANCH  14  15
ATOM     15  C   UNL     1      -3.527  -1.185   0.606  0.00  0.00    +0.133 C 
BRANCH  15  16
ATOM     16  O   UNL     1      -4.103  -2.205  -0.216  0.00  0.00    -0.383 OA
ATOM     17  H   UNL     1      -5.021  -1.972  -0.423  0.00  0.00    +0.210 HD
ENDBRANCH  15  16
BRANCH  15  18
ATOM     18  C   UNL     1      -3.650   0.150  -0.132  0.00  0.00    -0.048 C 
BRANCH  18  19
ATOM     19  N   UNL     1      -3.052   1.247   0.617  0.00  0.00    +0.387 N 
ATOM     20  H   UNL     1      -2.073   1.031   0.801  0.00  0.00    -0.084 HD
ATOM     21  H   UNL     1      -3.563   1.359   1.492  0.00  0.00    -0.084 HD
BRANCH  19  22
ATOM     22  C   UNL     1      -3.133   2.494  -0.132  0.00  0.00    -0.062 C 
ATOM     23  C   UNL     1      -2.540   3.625   0.698  0.00  0.00    -0.023 C 
ATOM     24  C   UNL     1      -2.398   2.332  -1.456  0.00  0.00    -0.023 C 
ENDBRANCH  19  22
ENDBRANCH  18  19
ENDBRANCH  15  18
ENDBRANCH  14  15
ENDBRANCH   1  14
TORSDOF 9
