REMARK  Name = 10134493
REMARK  5 active torsions:
REMARK  status: ('A' for Active; 'I' for Inactive)
REMARK    1  A    between atoms: N_2  and  C_13
REMARK    2  A    between atoms: C_7  and  C_28
REMARK    3  A    between atoms: C_16  and  C_22
REMARK    4  A    between atoms: N_21  and  O_24
REMARK    5  A    between atoms: N_27  and  C_30
REMARK                            x       y       z     vdW  Elec       q    Type
REMARK                         _______ _______ _______ _____ _____    ______ ____
ROOT
ATOM      1  N   UNL     1       1.992  -1.252   1.140  0.00  0.00    -0.185 N 
ATOM      2  N   UNL     1      -0.560   1.363   0.542  0.00  0.00    -0.297 N 
ATOM      3  N   UNL     1       1.306  -2.149   1.888  0.00  0.00    -0.151 NA
ATOM      4  N   UNL     1      -0.575  -0.654   1.695  0.00  0.00    -0.206 NA
ATOM      5  C   UNL     1       1.453  -0.084   0.664  0.00  0.00    +0.102 C 
ATOM      6  C   UNL     1       2.428   0.577  -0.050  0.00  0.00    +0.002 C 
ATOM      7  C   UNL     1       3.597  -0.225  -0.002  0.00  0.00    +0.067 C 
ATOM      8  C   UNL     1       0.076   0.222   0.970  0.00  0.00    +0.149 C 
ATOM      9  C   UNL     1       3.299  -1.348   0.740  0.00  0.00    +0.094 C 
ATOM     10  C   UNL     1       2.311   1.876  -0.746  0.00  0.00    +0.033 C 
ATOM     11  C   UNL     1       0.072  -1.801   2.120  0.00  0.00    +0.219 C 
ATOM     12  H   UNL     1       0.002   2.162   0.422  0.00  0.00    +0.154 HD
ENDROOT
BRANCH   2  13
ATOM     13  C   UNL     1      -1.916   1.505   0.262  0.00  0.00    +0.045 C 
ATOM     14  C   UNL     1      -2.576   2.733   0.435  0.00  0.00    -0.008 C 
ATOM     15  C   UNL     1      -2.655   0.405  -0.205  0.00  0.00    +0.019 C 
ATOM     16  C   UNL     1      -4.014   0.529  -0.491  0.00  0.00    +0.057 C 
ATOM     17  C   UNL     1      -3.935   2.858   0.149  0.00  0.00    -0.003 C 
ATOM     18  C   UNL     1      -4.654   1.756  -0.314  0.00  0.00    +0.004 C 
ATOM     19  C   UNL     1      -1.830   3.930   0.929  0.00  0.00    +0.032 C 
BRANCH  16  22
ATOM     20  O   UNL     1      -5.784  -0.466  -1.671  0.00  0.00    -0.268 OA
ATOM     21  N   UNL     1      -4.302  -1.875  -0.604  0.00  0.00    -0.190 N 
ATOM     22  C   UNL     1      -4.765  -0.619  -0.974  0.00  0.00    +0.268 C 
ATOM     23  H   UNL     1      -3.503  -1.990  -0.040  0.00  0.00    +0.183 HD
BRANCH  21  24
ATOM     24  O   UNL     1      -5.042  -2.974  -1.081  0.00  0.00    -0.263 OA
ATOM     25  C   UNL     1      -4.429  -4.167  -0.608  0.00  0.00    +0.206 C 
ENDBRANCH  21  24
ENDBRANCH  16  22
ENDBRANCH   2  13
BRANCH   7  28
ATOM     26  O   UNL     1       5.125   1.073  -1.240  0.00  0.00    -0.270 OA
ATOM     27  N   UNL     1       5.876  -0.935  -0.392  0.00  0.00    -0.301 N 
ATOM     28  C   UNL     1       4.878   0.034  -0.595  0.00  0.00    +0.247 C 
ATOM     29  H   UNL     1       5.646  -1.742   0.122  0.00  0.00    +0.150 HD
BRANCH  27  30
ATOM     30  C   UNL     1       7.223  -0.806  -0.898  0.00  0.00    +0.090 C 
ATOM     31  C   UNL     1       7.401   0.495  -1.663  0.00  0.00    +0.023 C 
ENDBRANCH  27  30
ENDBRANCH   7  28
TORSDOF 5
