REMARK  Name = 9547940
REMARK  2 active torsions:
REMARK  status: ('A' for Active; 'I' for Inactive)
REMARK    1  A    between atoms: C_2  and  C_11
REMARK    2  A    between atoms: C_8  and  C_20
REMARK                            x       y       z     vdW  Elec       q    Type
REMARK                         _______ _______ _______ _____ _____    ______ ____
ROOT
ATOM      1  N   UNL     1       0.252   0.751   0.125  0.00  0.00    -0.313 N 
ATOM      2  C   UNL     1       1.173  -0.261   0.160  0.00  0.00    +0.048 C 
ATOM      3  C   UNL     1      -1.023   0.232   0.094  0.00  0.00    +0.048 C 
ATOM      4  C   UNL     1      -0.901  -1.159   0.108  0.00  0.00    +0.015 C 
ATOM      5  C   UNL     1       0.490  -1.456   0.151  0.00  0.00    +0.016 C 
ATOM      6  C   UNL     1      -2.262   0.881   0.053  0.00  0.00    +0.017 C 
ATOM      7  C   UNL     1      -2.071  -1.943   0.081  0.00  0.00    +0.001 C 
ATOM      8  C   UNL     1      -3.409   0.083   0.027  0.00  0.00    +0.032 C 
ATOM      9  C   UNL     1      -3.318  -1.307   0.041  0.00  0.00    +0.003 C 
ATOM     10  H   UNL     1       0.470   1.711   0.124  0.00  0.00    +0.152 HD
ENDROOT
BRANCH   2  11
ATOM     11  C   UNL     1       2.592  -0.003   0.198  0.00  0.00    +0.009 C 
ATOM     12  C   UNL     1       3.337   0.117  -0.977  0.00  0.00    -0.021 C 
ATOM     13  C   UNL     1       3.223   0.129   1.437  0.00  0.00    +0.001 C 
ATOM     14  C   UNL     1       4.707   0.367  -0.913  0.00  0.00    -0.004 C 
ATOM     15  C   UNL     1       2.698  -0.018  -2.322  0.00  0.00    +0.031 C 
ATOM     16  C   UNL     1       4.594   0.379   1.500  0.00  0.00    +0.000 C 
ATOM     17  C   UNL     1       5.336   0.498   0.325  0.00  0.00    -0.000 C 
ENDBRANCH   2  11
BRANCH   8  20
ATOM     18  N   UNL     1      -5.888  -0.040  -0.042  0.00  0.00    -0.343 N 
ATOM     19  N   UNL     1      -4.811   2.034  -0.032  0.00  0.00    -0.285 NA
ATOM     20  C   UNL     1      -4.719   0.716  -0.015  0.00  0.00    +0.117 C 
ATOM     21  H   UNL     1      -6.764   0.409  -0.070  0.00  0.00    +0.144 HD
ATOM     22  H   UNL     1      -5.839  -1.023  -0.033  0.00  0.00    +0.144 HD
ATOM     23  H   UNL     1      -5.696   2.465  -0.060  0.00  0.00    +0.188 HD
ENDBRANCH   8  20
TORSDOF 2
