REMARK  Name = 131682
REMARK  7 active torsions:
REMARK  status: ('A' for Active; 'I' for Inactive)
REMARK    1  A    between atoms: C_1  and  C_16
REMARK    2  A    between atoms: C_4  and  O_7
REMARK    3  A    between atoms: O_7  and  C_8
REMARK    4  A    between atoms: C_8  and  C_10
REMARK    5  A    between atoms: C_16  and  N_17
REMARK    6  A    between atoms: N_17  and  C_20
REMARK    7  A    between atoms: C_20  and  C_24
REMARK                            x       y       z     vdW  Elec       q    Type
REMARK                         _______ _______ _______ _____ _____    ______ ____
ROOT
ATOM      1  C   UNL     1      -2.183  -0.306   0.580  0.00  0.00    -0.044 C 
ATOM      2  C   UNL     1      -1.519   0.031   1.753  0.00  0.00    -0.003 C 
ATOM      3  C   UNL     1      -1.483  -0.479  -0.608  0.00  0.00    -0.003 C 
ATOM      4  C   UNL     1       0.577   0.024   0.551  0.00  0.00    +0.139 C 
ATOM      5  C   UNL     1      -0.134   0.196   1.739  0.00  0.00    +0.037 C 
ATOM      6  C   UNL     1      -0.098  -0.314  -0.622  0.00  0.00    +0.037 C 
ENDROOT
BRANCH   4   7
ATOM      7  O   UNL     1       1.928   0.186   0.538  0.00  0.00    -0.471 OA
BRANCH   7   8
ATOM      8  C   UNL     1       2.592  -0.005  -0.710  0.00  0.00    +0.232 C 
BRANCH   8  10
ATOM      9  F   UNL     1       7.008  -1.773   0.324  0.00  0.00    -0.204 F 
ATOM     10  C   UNL     1       4.068   0.185  -0.514  0.00  0.00    +0.023 C 
ATOM     11  C   UNL     1       4.864  -0.905  -0.180  0.00  0.00    +0.029 C 
ATOM     12  C   UNL     1       4.625   1.449  -0.668  0.00  0.00    -0.001 C 
ATOM     13  C   UNL     1       6.235  -0.728   0.002  0.00  0.00    +0.140 C 
ATOM     14  C   UNL     1       5.996   1.626  -0.485  0.00  0.00    +0.002 C 
ATOM     15  C   UNL     1       6.801   0.537  -0.150  0.00  0.00    +0.030 C 
ENDBRANCH   8  10
ENDBRANCH   7   8
ENDBRANCH   4   7
BRANCH   1  16
ATOM     16  C   UNL     1      -3.674  -0.484   0.596  0.00  0.00    -0.054 C 
BRANCH  16  17
ATOM     17  N   UNL     1      -4.375   0.760   0.317  0.00  0.00    +0.393 N 
ATOM     18  H   UNL     1      -4.096   1.102  -0.603  0.00  0.00    -0.083 HD
ATOM     19  H   UNL     1      -4.132   1.441   1.037  0.00  0.00    -0.083 HD
BRANCH  17  20
ATOM     20  C   UNL     1      -5.821   0.556   0.334  0.00  0.00    +0.017 C 
ATOM     21  C   UNL     1      -6.542   1.868   0.049  0.00  0.00    -0.014 C 
BRANCH  20  24
ATOM     22  O   UNL     1      -5.954  -0.332  -1.926  0.00  0.00    -0.278 OA
ATOM     23  N   UNL     1      -6.742  -1.615  -0.193  0.00  0.00    -0.330 N 
ATOM     24  C   UNL     1      -6.169  -0.478  -0.725  0.00  0.00    +0.199 C 
ATOM     25  H   UNL     1      -7.009  -2.355  -0.785  0.00  0.00    +0.145 HD
ATOM     26  H   UNL     1      -6.884  -1.686   0.779  0.00  0.00    +0.145 HD
ENDBRANCH  20  24
ENDBRANCH  17  20
ENDBRANCH  16  17
ENDBRANCH   1  16
TORSDOF 7
