REMARK  Name = 46937025
REMARK  4 active torsions:
REMARK  status: ('A' for Active; 'I' for Inactive)
REMARK    1  A    between atoms: C_12  and  C_24
REMARK    2  A    between atoms: C_13  and  O_28
REMARK    3  A    between atoms: C_16  and  O_30
REMARK    4  A    between atoms: C_18  and  O_32
REMARK                            x       y       z     vdW  Elec       q    Type
REMARK                         _______ _______ _______ _____ _____    ______ ____
ROOT
ATOM      1  O   UNL     1      -0.310  -0.222   1.954  0.00  0.00    -0.314 OA
ATOM      2  O   UNL     1      -0.124  -2.479  -0.488  0.00  0.00    -0.448 OA
ATOM      3  O   UNL     1       0.356   2.050   1.744  0.00  0.00    -0.423 OA
ATOM      4  O   UNL     1      -3.510   0.975  -1.141  0.00  0.00    -0.450 OA
ATOM      5  O   UNL     1      -1.206  -2.908   1.471  0.00  0.00    -0.248 OA
ATOM      6  O   UNL     1       0.664   3.917   0.446  0.00  0.00    -0.247 OA
ATOM      7  O   UNL     1      -5.585   0.764  -0.157  0.00  0.00    -0.250 OA
ATOM      8  C   UNL     1      -0.036  -0.086  -0.446  0.00  0.00    +0.109 C 
ATOM      9  C   UNL     1       1.238   0.444   0.258  0.00  0.00    +0.110 C 
ATOM     10  C   UNL     1      -0.902  -0.623   0.722  0.00  0.00    +0.194 C 
ATOM     11  C   UNL     1       0.365  -1.347  -1.224  0.00  0.00    +0.201 C 
ATOM     12  C   UNL     1       2.242  -0.734   0.131  0.00  0.00    +0.040 C 
ATOM     13  C   UNL     1      -0.972   0.871  -1.244  0.00  0.00    +0.157 C 
ATOM     14  C   UNL     1      -2.249   0.041   0.513  0.00  0.00    +0.089 C 
ATOM     15  C   UNL     1       0.773   0.675   1.687  0.00  0.00    +0.294 C 
ATOM     16  C   UNL     1       1.890  -1.324  -1.234  0.00  0.00    +0.151 C 
ATOM     17  C   UNL     1      -2.321   0.229  -0.980  0.00  0.00    +0.199 C 
ATOM     18  C   UNL     1       1.767   1.821  -0.114  0.00  0.00    +0.216 C 
ATOM     19  C   UNL     1      -0.799  -2.116   0.635  0.00  0.00    +0.342 C 
ATOM     20  C   UNL     1      -3.660  -0.411   0.809  0.00  0.00    +0.105 C 
ATOM     21  C   UNL     1       0.881   2.740   0.685  0.00  0.00    +0.346 C 
ATOM     22  C   UNL     1      -4.394   0.494  -0.187  0.00  0.00    +0.317 C 
ATOM     23  C   UNL     1      -4.029  -1.862   0.565  0.00  0.00    +0.012 C 
ENDROOT
BRANCH  12  24
ATOM     24  C   UNL     1       3.725  -0.402   0.252  0.00  0.00    +0.003 C 
ATOM     25  C   UNL     1       4.112   0.650  -0.801  0.00  0.00    +0.000 C 
ATOM     26  C   UNL     1       4.565  -1.672   0.028  0.00  0.00    +0.000 C 
ATOM     27  C   UNL     1       4.023   0.156   1.655  0.00  0.00    +0.000 C 
ENDBRANCH  12  24
BRANCH  13  28
ATOM     28  O   UNL     1      -0.703   0.898  -2.633  0.00  0.00    -0.381 OA
ATOM     29  H   UNL     1       0.161   1.310  -2.787  0.00  0.00    +0.210 HD
ENDBRANCH  13  28
BRANCH  16  30
ATOM     30  O   UNL     1       2.446  -2.612  -1.413  0.00  0.00    -0.381 OA
ATOM     31  H   UNL     1       2.201  -2.951  -2.288  0.00  0.00    +0.210 HD
ENDBRANCH  16  30
BRANCH  18  32
ATOM     32  O   UNL     1       1.755   2.074  -1.492  0.00  0.00    -0.374 OA
ATOM     33  H   UNL     1       2.345   1.448  -1.940  0.00  0.00    +0.211 HD
ENDBRANCH  18  32
TORSDOF 4
