REMARK  Name = 60206636
REMARK  8 active torsions:
REMARK  status: ('A' for Active; 'I' for Inactive)
REMARK    1  A    between atoms: C_4  and  C_20
REMARK    2  A    between atoms: C_5  and  C_10
REMARK    3  A    between atoms: C_15  and  S_16
REMARK    4  A    between atoms: C_20  and  C_21
REMARK    5  A    between atoms: C_20  and  C_25
REMARK    6  A    between atoms: C_21  and  C_22
REMARK    7  A    between atoms: C_25  and  C_29
REMARK    8  A    between atoms: C_25  and  N_34
REMARK                            x       y       z     vdW  Elec       q    Type
REMARK                         _______ _______ _______ _____ _____    ______ ____
ROOT
ATOM      1  O   UNL     1      -0.541  -1.258   0.289  0.00  0.00    -0.311 OA
ATOM      2  N   UNL     1       0.347   0.324  -1.219  0.00  0.00    +0.417 N 
ATOM      3  N   UNL     1       0.345  -1.966  -0.640  0.00  0.00    -0.209 NA
ATOM      4  C   UNL     1      -0.411   0.137   0.013  0.00  0.00    +0.083 C 
ATOM      5  C   UNL     1       1.127  -0.911  -1.294  0.00  0.00    +0.051 C 
ATOM      6  H   UNL     1       0.954   1.141  -1.159  0.00  0.00    -0.078 HD
ATOM      7  H   UNL     1      -0.238   0.488  -2.038  0.00  0.00    -0.078 HD
ATOM      8  H   UNL     1      -0.198  -2.489  -1.327  0.00  0.00    +0.152 HD
ENDROOT
BRANCH   5  10
ATOM      9  F   UNL     1       3.329   0.006  -2.840  0.00  0.00    -0.204 F 
ATOM     10  C   UNL     1       2.528  -0.733  -0.730  0.00  0.00    +0.002 C 
ATOM     11  C   UNL     1       3.561  -0.278  -1.550  0.00  0.00    +0.137 C 
ATOM     12  C   UNL     1       2.780  -1.026   0.610  0.00  0.00    -0.001 C 
ATOM     13  C   UNL     1       4.845  -0.116  -1.030  0.00  0.00    +0.048 C 
ATOM     14  C   UNL     1       4.064  -0.864   1.130  0.00  0.00    +0.018 C 
ATOM     15  C   UNL     1       5.096  -0.409   0.310  0.00  0.00    +0.108 C 
BRANCH  15  16
ATOM     16  S   UNL     1       6.704  -0.206   0.961  0.00  0.00    +0.011 S 
ATOM     17  O   UNL     1       6.854  -1.069   2.125  0.00  0.00    -0.169 OA
ATOM     18  O   UNL     1       7.650  -0.308  -0.141  0.00  0.00    -0.169 OA
ATOM     19  C   UNL     1       6.733   1.471   1.553  0.00  0.00    +0.182 C 
ENDBRANCH  15  16
ENDBRANCH   5  10
BRANCH   4  20
ATOM     20  C   UNL     1      -1.798   0.755  -0.081  0.00  0.00    -0.002 C 
BRANCH  20  21
ATOM     21  C   UNL     1      -1.718   2.280  -0.312  0.00  0.00    -0.001 C 
BRANCH  21  22
ATOM     22  C   UNL     1      -1.378   3.053   0.928  0.00  0.00    -0.000 C 
ATOM     23  C   UNL     1      -1.699   4.517   0.992  0.00  0.00    -0.000 C 
ATOM     24  C   UNL     1      -2.486   3.540   1.816  0.00  0.00    -0.000 C 
ENDBRANCH  21  22
ENDBRANCH  20  21
BRANCH  20  25
ATOM     25  C   UNL     1      -2.684   0.101  -1.168  0.00  0.00    +0.013 C 
BRANCH  25  29
ATOM     26  F   UNL     1      -5.097  -1.805   2.561  0.00  0.00    -0.235 F 
ATOM     27  O   UNL     1      -4.728   1.306  -1.372  0.00  0.00    -0.277 OA
ATOM     28  N   UNL     1      -4.777  -0.657  -0.154  0.00  0.00    -0.278 N 
ATOM     29  C   UNL     1      -4.155   0.315  -0.916  0.00  0.00    +0.205 C 
ATOM     30  C   UNL     1      -4.154  -1.849   0.418  0.00  0.00    +0.128 C 
ATOM     31  C   UNL     1      -6.192  -0.592   0.183  0.00  0.00    +0.096 C 
ATOM     32  C   UNL     1      -5.213  -2.414   1.349  0.00  0.00    +0.182 C 
ATOM     33  C   UNL     1      -6.523  -1.981   0.709  0.00  0.00    +0.059 C 
ENDBRANCH  25  29
BRANCH  25  34
ATOM     34  N   UNL     1      -2.409   0.634  -2.499  0.00  0.00    +0.387 N 
ATOM     35  H   UNL     1      -1.420   0.511  -2.716  0.00  0.00    -0.089 HD
ATOM     36  H   UNL     1      -2.642   1.626  -2.523  0.00  0.00    -0.089 HD
ATOM     37  H   UNL     1      -2.972   0.136  -3.188  0.00  0.00    -0.089 HD
ENDBRANCH  25  34
ENDBRANCH  20  25
ENDBRANCH   4  20
TORSDOF 8
