REMARK  Name = 6852167
REMARK  6 active torsions:
REMARK  status: ('A' for Active; 'I' for Inactive)
REMARK    1  A    between atoms: C_2  and  S_19
REMARK    2  A    between atoms: C_3  and  C_12
REMARK    3  A    between atoms: S_19  and  N_22
REMARK    4  A    between atoms: N_22  and  C_24
REMARK    5  A    between atoms: C_24  and  C_25
REMARK    6  A    between atoms: C_25  and  O_26
REMARK                            x       y       z     vdW  Elec       q    Type
REMARK                         _______ _______ _______ _____ _____    ______ ____
ROOT
ATOM      1 CL   UNL     1       4.085  -2.576  -0.622  0.00  0.00    -0.081 Cl
ATOM      2  C   UNL     1       2.169  -0.882   0.341  0.00  0.00    +0.132 C 
ATOM      3  C   UNL     1      -0.127  -0.963  -0.406  0.00  0.00    -0.004 C 
ATOM      4  C   UNL     1       0.863  -0.396   0.396  0.00  0.00    +0.018 C 
ATOM      5  C   UNL     1       2.485  -1.936  -0.517  0.00  0.00    +0.076 C 
ATOM      6  C   UNL     1       0.189  -2.017  -1.263  0.00  0.00    -0.002 C 
ATOM      7  C   UNL     1       1.495  -2.503  -1.319  0.00  0.00    +0.012 C 
ENDROOT
BRANCH   3  12
ATOM      8  S   UNL     1      -2.589  -1.139   0.765  0.00  0.00    -0.056 S 
ATOM      9  O   UNL     1      -6.271   1.510  -0.332  0.00  0.00    -0.275 OA
ATOM     10  N   UNL     1      -3.423   0.772  -0.763  0.00  0.00    -0.388 NA
ATOM     11  N   UNL     1      -5.019  -0.154   0.787  0.00  0.00    -0.254 N 
ATOM     12  C   UNL     1      -1.477  -0.460  -0.349  0.00  0.00    +0.126 C 
ATOM     13  C   UNL     1      -2.097   0.538  -1.072  0.00  0.00    +0.103 C 
ATOM     14  C   UNL     1      -3.789  -0.054   0.192  0.00  0.00    +0.213 C 
ATOM     15  C   UNL     1      -1.478   1.364  -2.129  0.00  0.00    +0.063 C 
ATOM     16  C   UNL     1      -6.159   0.614   0.498  0.00  0.00    +0.229 C 
ATOM     17  C   UNL     1      -7.333   0.215   1.359  0.00  0.00    +0.095 C 
ATOM     18  H   UNL     1      -5.113  -0.835   1.491  0.00  0.00    +0.158 HD
ENDBRANCH   3  12
BRANCH   2  19
ATOM     19  S   UNL     1       3.371  -0.133   1.373  0.00  0.00    +0.061 S 
ATOM     20  O   UNL     1       2.707   0.844   2.222  0.00  0.00    -0.153 OA
ATOM     21  O   UNL     1       4.153  -1.199   1.980  0.00  0.00    -0.153 OA
BRANCH  19  22
ATOM     22  N   UNL     1       4.351   0.694   0.245  0.00  0.00    -0.177 NA
ATOM     23  H   UNL     1       4.749  -0.013  -0.373  0.00  0.00    +0.149 HD
BRANCH  22  24
ATOM     24  C   UNL     1       3.765   1.730  -0.617  0.00  0.00    +0.123 C 
BRANCH  24  25
ATOM     25  C   UNL     1       4.826   2.753  -0.978  0.00  0.00    +0.156 C 
BRANCH  25  26
ATOM     26  O   UNL     1       5.302   3.379   0.207  0.00  0.00    -0.380 OA
ATOM     27  H   UNL     1       5.980   4.033  -0.022  0.00  0.00    +0.211 HD
ENDBRANCH  25  26
ENDBRANCH  24  25
ENDBRANCH  22  24
ENDBRANCH  19  22
ENDBRANCH   2  19
TORSDOF 6
