REMARK  Name = 164739
REMARK  6 active torsions:
REMARK  status: ('A' for Active; 'I' for Inactive)
REMARK    1  A    between atoms: C_1  and  C_11
REMARK    2  A    between atoms: C_4  and  O_7
REMARK    3  A    between atoms: C_6  and  O_9
REMARK    4  A    between atoms: C_11  and  O_12
REMARK    5  A    between atoms: C_11  and  C_14
REMARK    6  A    between atoms: C_14  and  N_16
REMARK                            x       y       z     vdW  Elec       q    Type
REMARK                         _______ _______ _______ _____ _____    ______ ____
ROOT
ATOM      1  C   UNL     1       0.251   0.070   0.367  0.00  0.00    +0.005 C 
ATOM      2  C   UNL     1      -0.641   1.120   0.240  0.00  0.00    +0.038 C 
ATOM      3  C   UNL     1      -0.157  -1.247   0.251  0.00  0.00    +0.001 C 
ATOM      4  C   UNL     1      -1.985   0.844  -0.011  0.00  0.00    +0.167 C 
ATOM      5  C   UNL     1      -1.500  -1.523  -0.001  0.00  0.00    +0.040 C 
ATOM      6  C   UNL     1      -2.415  -0.478  -0.132  0.00  0.00    +0.167 C 
ENDROOT
BRANCH   4   7
ATOM      7  O   UNL     1      -2.869   1.873  -0.139  0.00  0.00    -0.503 OA
ATOM      8  H   UNL     1      -2.572   2.758  -0.056  0.00  0.00    +0.292 HD
ENDBRANCH   4   7
BRANCH   6   9
ATOM      9  O   UNL     1      -3.724  -0.760  -0.379  0.00  0.00    -0.503 OA
ATOM     10  H   UNL     1      -4.345  -0.064  -0.468  0.00  0.00    +0.292 HD
ENDBRANCH   6   9
BRANCH   1  11
ATOM     11  C   UNL     1       1.709   0.370   0.641  0.00  0.00    +0.113 C 
BRANCH  11  12
ATOM     12  O   UNL     1       2.194  -0.675   1.489  0.00  0.00    -0.382 OA
ATOM     13  H   UNL     1       3.130  -0.520   1.690  0.00  0.00    +0.211 HD
ENDBRANCH  11  12
BRANCH  11  14
ATOM     14  C   UNL     1       2.575   0.459  -0.636  0.00  0.00    -0.034 C 
ATOM     15  C   UNL     1       2.607  -0.856  -1.418  0.00  0.00    -0.021 C 
BRANCH  14  16
ATOM     16  N   UNL     1       3.955   0.803  -0.272  0.00  0.00    +0.384 N 
ATOM     17  H   UNL     1       3.961   1.679   0.251  0.00  0.00    -0.089 HD
ATOM     18  H   UNL     1       4.514   0.910  -1.119  0.00  0.00    -0.089 HD
ATOM     19  H   UNL     1       4.350   0.060   0.305  0.00  0.00    -0.089 HD
ENDBRANCH  14  16
ENDBRANCH  11  14
ENDBRANCH   1  11
TORSDOF 6
