REMARK  Name = 12035
REMARK  5 active torsions:
REMARK  status: ('A' for Active; 'I' for Inactive)
REMARK    1  A    between atoms: CA_1  and  N_3
REMARK    2  A    between atoms: CA_1  and  C_8
REMARK    3  A    between atoms: CA_1  and  CB_11
REMARK    4  A    between atoms: C_8  and  O_9
REMARK    5  A    between atoms: CB_11  and  SG_12
REMARK                            x       y       z     vdW  Elec       q    Type
REMARK                         _______ _______ _______ _____ _____    ______ ____
ROOT
ATOM      1  CA  CYS A   1      -0.411   0.070   0.503  0.00  0.00    +0.182 C 
ENDROOT
BRANCH   1   3
ATOM      2  O   UNK A   0       2.390   0.147   1.262  0.00  0.00    -0.275 OA
ATOM      3  N   CYS A   1       0.732  -0.177  -0.341  0.00  0.00    -0.296 N 
ATOM      4  C   UNK A   0       2.040  -0.116   0.114  0.00  0.00    +0.223 C 
ATOM      5  C   UNK A   0       3.037  -0.441  -0.966  0.00  0.00    +0.095 C 
ATOM      6  H   CYS A   1       0.576  -0.399  -1.287  0.00  0.00    +0.150 HD
ENDBRANCH   1   3
BRANCH   1   8
ATOM      7  OXT CYS A   1      -2.636  -0.856   0.769  0.00  0.00    -0.248 OA
ATOM      8  C   CYS A   1      -1.591  -0.813   0.132  0.00  0.00    +0.333 C 
BRANCH   8   9
ATOM      9  O   CYS A   1      -1.370  -1.565  -0.973  0.00  0.00    -0.479 OA
ATOM     10  H   CYS A   1      -0.555  -1.499  -1.430  0.00  0.00    +0.295 HD
ENDBRANCH   8   9
ENDBRANCH   1   8
BRANCH   1  11
ATOM     11  CB  CYS A   1      -0.783   1.554   0.544  0.00  0.00    +0.084 C 
BRANCH  11  12
ATOM     12  SG  CYS A   1      -1.408   2.198  -1.044  0.00  0.00    -0.166 S 
ATOM     13  HG  CYS A   1      -1.711   3.517  -0.910  0.00  0.00    +0.102 HD
ENDBRANCH  11  12
ENDBRANCH   1  11
TORSDOF 5
