REMARK  Name = 24180717
REMARK  5 active torsions:
REMARK  status: ('A' for Active; 'I' for Inactive)
REMARK    1  A    between atoms: C_14  and  C_18
REMARK    2  A    between atoms: C_15  and  C_30
REMARK    3  A    between atoms: C_21  and  C_22
REMARK    4  A    between atoms: C_23  and  C_24
REMARK    5  A    between atoms: C_30  and  N_31
REMARK                            x       y       z     vdW  Elec       q    Type
REMARK                         _______ _______ _______ _____ _____    ______ ____
ROOT
ATOM      1  O   UNL     1      -3.287  -2.615  -1.314  0.00  0.00    -0.475 OA
ATOM      2  O   UNL     1      -0.497   3.925  -0.843  0.00  0.00    -0.267 OA
ATOM      3  N   UNL     1      -0.631   1.613  -0.881  0.00  0.00    -0.274 N 
ATOM      4  C   UNL     1      -2.872  -0.258  -0.842  0.00  0.00    +0.065 C 
ATOM      5  C   UNL     1      -1.858  -0.170   0.320  0.00  0.00    +0.029 C 
ATOM      6  C   UNL     1      -2.925   1.081  -1.597  0.00  0.00    +0.029 C 
ATOM      7  C   UNL     1      -2.572  -1.448  -1.787  0.00  0.00    +0.209 C 
ATOM      8  C   UNL     1      -4.199  -0.731  -0.340  0.00  0.00    +0.014 C 
ATOM      9  C   UNL     1      -0.491   0.362  -0.122  0.00  0.00    +0.094 C 
ATOM     10  C   UNL     1      -1.534   1.536  -2.031  0.00  0.00    +0.094 C 
ATOM     11  C   UNL     1      -4.347  -2.082  -0.626  0.00  0.00    +0.135 C 
ATOM     12  C   UNL     1      -5.184  -0.053   0.360  0.00  0.00    -0.008 C 
ATOM     13  C   UNL     1      -5.455  -2.804  -0.224  0.00  0.00    +0.036 C 
ATOM     14  C   UNL     1       0.003   2.832  -0.573  0.00  0.00    +0.284 C 
ATOM     15  C   UNL     1      -6.320  -0.759   0.765  0.00  0.00    -0.044 C 
ATOM     16  C   UNL     1      -6.453  -2.126   0.476  0.00  0.00    -0.003 C 
ENDROOT
BRANCH  14  18
ATOM     17  O   UNL     1       2.090   1.690  -0.159  0.00  0.00    -0.441 OA
ATOM     18  C   UNL     1       1.299   2.765   0.094  0.00  0.00    +0.199 C 
ATOM     19  C   UNL     1       1.915   3.620   0.977  0.00  0.00    +0.046 C 
ATOM     20  C   UNL     1       3.165   3.033   1.287  0.00  0.00    +0.049 C 
ATOM     21  C   UNL     1       3.224   1.861   0.571  0.00  0.00    +0.187 C 
BRANCH  21  22
ATOM     22  C   UNL     1       4.215   0.859   0.473  0.00  0.00    -0.023 C 
ATOM     23  C   UNL     1       5.058   0.007   0.389  0.00  0.00    -0.057 C 
BRANCH  23  24
ATOM     24  C   UNL     1       6.061  -1.008   0.288  0.00  0.00    +0.042 C 
ATOM     25  C   UNL     1       7.208  -0.781  -0.472  0.00  0.00    +0.008 C 
ATOM     26  C   UNL     1       5.893  -2.224   0.951  0.00  0.00    +0.008 C 
ATOM     27  C   UNL     1       8.187  -1.770  -0.571  0.00  0.00    +0.001 C 
ATOM     28  C   UNL     1       6.871  -3.213   0.853  0.00  0.00    +0.001 C 
ATOM     29  C   UNL     1       8.018  -2.986   0.092  0.00  0.00    +0.000 C 
ENDBRANCH  23  24
ENDBRANCH  21  22
ENDBRANCH  14  18
BRANCH  15  30
ATOM     30  C   UNL     1      -7.398  -0.055   1.519  0.00  0.00    -0.059 C 
BRANCH  30  31
ATOM     31  N   UNL     1      -7.184  -0.099   2.967  0.00  0.00    +0.383 N 
ATOM     32  H   UNL     1      -7.944   0.393   3.438  0.00  0.00    -0.089 HD
ATOM     33  H   UNL     1      -6.297   0.350   3.193  0.00  0.00    -0.089 HD
ATOM     34  H   UNL     1      -7.163  -1.070   3.278  0.00  0.00    -0.089 HD
ENDBRANCH  30  31
ENDBRANCH  15  30
TORSDOF 5
