REMARK  Name = 6914568
REMARK  4 active torsions:
REMARK  status: ('A' for Active; 'I' for Inactive)
REMARK    1  A    between atoms: C_3  and  C_14
REMARK    2  A    between atoms: C_7  and  N_26
REMARK    3  A    between atoms: C_11  and  N_17
REMARK    4  A    between atoms: C_27  and  C_30
REMARK                            x       y       z     vdW  Elec       q    Type
REMARK                         _______ _______ _______ _____ _____    ______ ____
ROOT
ATOM      1  N   UNL     1       3.348  -3.656  -0.066  0.00  0.00    -0.296 N 
ATOM      2  N   UNL     1       0.963  -3.997  -0.092  0.00  0.00    -0.229 NA
ATOM      3  C   UNL     1      -0.310  -1.915  -0.039  0.00  0.00    +0.019 C 
ATOM      4  C   UNL     1       2.083  -1.817  -0.020  0.00  0.00    +0.046 C 
ATOM      5  C   UNL     1       0.850  -1.144  -0.009  0.00  0.00    +0.006 C 
ATOM      6  C   UNL     1       2.053  -3.207  -0.061  0.00  0.00    +0.133 C 
ATOM      7  C   UNL     1       3.450  -1.434   0.001  0.00  0.00    +0.068 C 
ATOM      8  C   UNL     1      -0.195  -3.297  -0.080  0.00  0.00    +0.100 C 
ATOM      9  C   UNL     1       4.205  -2.587  -0.028  0.00  0.00    +0.078 C 
ATOM     10  H   UNL     1       3.621  -4.602  -0.092  0.00  0.00    +0.154 HD
ENDROOT
BRANCH   3  14
ATOM     11  C   UNL     1      -4.145  -0.051  -0.007  0.00  0.00    +0.048 C 
ATOM     12  C   UNL     1      -3.032   0.590  -0.586  0.00  0.00    +0.015 C 
ATOM     13  C   UNL     1      -3.954  -1.326   0.560  0.00  0.00    +0.015 C 
ATOM     14  C   UNL     1      -1.611  -1.283  -0.029  0.00  0.00    +0.002 C 
ATOM     15  C   UNL     1      -1.778  -0.020  -0.597  0.00  0.00    +0.001 C 
ATOM     16  C   UNL     1      -2.700  -1.936   0.549  0.00  0.00    +0.001 C 
BRANCH  11  17
ATOM     17  N   UNL     1      -5.403   0.562   0.004  0.00  0.00    -0.312 N 
ATOM     18  N   UNL     1      -8.063   1.599  -0.089  0.00  0.00    +0.388 N 
ATOM     19  C   UNL     1      -6.342   0.276   1.094  0.00  0.00    +0.068 C 
ATOM     20  C   UNL     1      -6.014   0.908  -1.286  0.00  0.00    +0.068 C 
ATOM     21  C   UNL     1      -7.395   1.381   1.200  0.00  0.00    -0.056 C 
ATOM     22  C   UNL     1      -7.077   1.994  -1.102  0.00  0.00    -0.056 C 
ATOM     23  C   UNL     1      -9.103   2.619   0.038  0.00  0.00    -0.101 C 
ATOM     24  H   UNL     1      -8.506   0.728  -0.382  0.00  0.00    -0.080 HD
ENDBRANCH  11  17
ENDBRANCH   3  14
BRANCH   7  26
ATOM     25  O   UNL     1       6.289  -0.520  -0.013  0.00  0.00    -0.270 OA
ATOM     26  N   UNL     1       3.964  -0.158   0.043  0.00  0.00    -0.279 N 
ATOM     27  C   UNL     1       5.314   0.223   0.035  0.00  0.00    +0.251 C 
ATOM     28  H   UNL     1       3.307   0.573   0.084  0.00  0.00    +0.155 HD
BRANCH  27  30
ATOM     29  N   UNL     1       4.807   3.867   0.682  0.00  0.00    -0.242 NA
ATOM     30  C   UNL     1       5.564   1.688   0.060  0.00  0.00    +0.073 C 
ATOM     31  C   UNL     1       6.718   2.194  -0.485  0.00  0.00    +0.008 C 
ATOM     32  C   UNL     1       4.642   2.526   0.626  0.00  0.00    +0.103 C 
ATOM     33  C   UNL     1       6.924   3.569  -0.447  0.00  0.00    +0.021 C 
ATOM     34  C   UNL     1       5.947   4.354   0.142  0.00  0.00    +0.099 C 
ENDBRANCH  27  30
ENDBRANCH   7  26
TORSDOF 4
