REMARK  Name = 125017
REMARK  6 active torsions:
REMARK  status: ('A' for Active; 'I' for Inactive)
REMARK    1  A    between atoms: C_1  and  C_2
REMARK    2  A    between atoms: C_1  and  C_10
REMARK    3  A    between atoms: C_1  and  C_18
REMARK    4  A    between atoms: C_2  and  O_8
REMARK    5  A    between atoms: C_15  and  O_16
REMARK    6  A    between atoms: C_18  and  N_19
REMARK                            x       y       z     vdW  Elec       q    Type
REMARK                         _______ _______ _______ _____ _____    ______ ____
ROOT
ATOM      1  C   UNL     1      -0.380  -0.664   0.300  0.00  0.00    +0.026 C 
ENDROOT
BRANCH   1   2
ATOM      2  C   UNL     1      -1.575   0.184  -0.139  0.00  0.00    +0.090 C 
ATOM      3  C   UNL     1      -1.680   1.451   0.725  0.00  0.00    +0.027 C 
ATOM      4  C   UNL     1      -2.876  -0.632  -0.072  0.00  0.00    +0.027 C 
ATOM      5  C   UNL     1      -2.915   2.286   0.384  0.00  0.00    +0.002 C 
ATOM      6  C   UNL     1      -4.106   0.209  -0.413  0.00  0.00    +0.002 C 
ATOM      7  C   UNL     1      -4.193   1.457   0.460  0.00  0.00    +0.000 C 
BRANCH   2   8
ATOM      8  O   UNL     1      -1.348   0.591  -1.491  0.00  0.00    -0.386 OA
ATOM      9  H   UNL     1      -0.529   1.107  -1.541  0.00  0.00    +0.210 HD
ENDBRANCH   2   8
ENDBRANCH   1   2
BRANCH   1  10
ATOM     10  C   UNL     1       0.920   0.118   0.162  0.00  0.00    -0.022 C 
ATOM     11  C   UNL     1       1.655   0.393   1.295  0.00  0.00    -0.001 C 
ATOM     12  C   UNL     1       1.320   0.526  -1.094  0.00  0.00    -0.001 C 
ATOM     13  C   UNL     1       2.845   1.110   1.168  0.00  0.00    +0.036 C 
ATOM     14  C   UNL     1       2.510   1.243  -1.221  0.00  0.00    +0.036 C 
ATOM     15  C   UNL     1       3.272   1.535  -0.090  0.00  0.00    +0.134 C 
BRANCH  15  16
ATOM     16  O   UNL     1       4.434   2.233  -0.213  0.00  0.00    -0.506 OA
ATOM     17  H   UNL     1       4.946   2.429   0.547  0.00  0.00    +0.292 HD
ENDBRANCH  15  16
ENDBRANCH   1  10
BRANCH   1  18
ATOM     18  C   UNL     1      -0.284  -2.006  -0.457  0.00  0.00    -0.071 C 
BRANCH  18  19
ATOM     19  N   UNL     1       0.823  -2.829   0.022  0.00  0.00    +0.384 N 
ATOM     20  C   UNL     1       0.926  -4.058  -0.765  0.00  0.00    -0.101 C 
ATOM     21  C   UNL     1       0.652  -3.146   1.440  0.00  0.00    -0.101 C 
ATOM     22  H   UNL     1       1.688  -2.300  -0.090  0.00  0.00    -0.080 HD
ENDBRANCH  18  19
ENDBRANCH   1  18
TORSDOF 6
