REMARK  Name = 216327
REMARK  4 active torsions:
REMARK  status: ('A' for Active; 'I' for Inactive)
REMARK    1  A    between atoms: C_1  and  C_3
REMARK    2  A    between atoms: C_1  and  C_10
REMARK    3  A    between atoms: C_1  and  C_16
REMARK    4  A    between atoms: C_1  and  C_24
REMARK                            x       y       z     vdW  Elec       q    Type
REMARK                         _______ _______ _______ _____ _____    ______ ____
ROOT
ATOM      1  C   UNL     1      -0.098   0.406  -0.499  0.00  0.00    +0.125 C 
ENDROOT
BRANCH   1   3
ATOM      2  F   UNL     1       4.944  -1.684   0.840  0.00  0.00    -0.204 F 
ATOM      3  C   UNL     1       1.333  -0.187  -0.118  0.00  0.00    -0.007 C 
ATOM      4  C   UNL     1       1.556  -0.405   1.191  0.00  0.00    -0.001 C 
ATOM      5  C   UNL     1       2.174  -0.411  -1.145  0.00  0.00    -0.001 C 
ATOM      6  C   UNL     1       2.808  -0.924   1.523  0.00  0.00    +0.029 C 
ATOM      7  C   UNL     1       3.425  -0.929  -0.813  0.00  0.00    +0.029 C 
ATOM      8  C   UNL     1       3.743  -1.185   0.521  0.00  0.00    +0.140 C 
ENDBRANCH   1   3
BRANCH   1  10
ATOM      9  F   UNL     1      -3.433  -3.902   0.883  0.00  0.00    -0.204 F 
ATOM     10  C   UNL     1      -1.047  -0.820  -0.105  0.00  0.00    -0.007 C 
ATOM     11  C   UNL     1      -1.642  -0.743   1.098  0.00  0.00    -0.001 C 
ATOM     12  C   UNL     1      -1.152  -1.800  -1.018  0.00  0.00    -0.001 C 
ATOM     13  C   UNL     1      -2.469  -1.812   1.440  0.00  0.00    +0.029 C 
ATOM     14  C   UNL     1      -1.979  -2.870  -0.676  0.00  0.00    +0.029 C 
ATOM     15  C   UNL     1      -2.638  -2.876   0.554  0.00  0.00    +0.140 C 
ENDBRANCH   1  10
BRANCH   1  16
ATOM     16  C   UNL     1      -0.474   1.727   0.082  0.00  0.00    -0.007 C 
ATOM     17  C   UNL     1       0.414   2.396   0.924  0.00  0.00    -0.003 C 
ATOM     18  C   UNL     1      -1.713   2.293  -0.217  0.00  0.00    -0.003 C 
ATOM     19  C   UNL     1       0.062   3.632   1.468  0.00  0.00    -0.000 C 
ATOM     20  C   UNL     1      -2.065   3.529   0.327  0.00  0.00    -0.000 C 
ATOM     21  C   UNL     1      -1.177   4.198   1.169  0.00  0.00    -0.000 C 
ENDBRANCH   1  16
BRANCH   1  24
ATOM     22  O   UNL     1      -1.037   0.112  -2.799  0.00  0.00    -0.274 OA
ATOM     23  N   UNL     1       0.654   1.621  -2.553  0.00  0.00    -0.328 N 
ATOM     24  C   UNL     1      -0.189   0.636  -2.075  0.00  0.00    +0.230 C 
ATOM     25  H   UNL     1       0.667   1.833  -3.514  0.00  0.00    +0.145 HD
ATOM     26  H   UNL     1       1.241   2.110  -1.933  0.00  0.00    +0.145 HD
ENDBRANCH   1  24
TORSDOF 4
