REMARK  Name = 9875401
REMARK  5 active torsions:
REMARK  status: ('A' for Active; 'I' for Inactive)
REMARK    1  A    between atoms: N_3  and  C_7
REMARK    2  A    between atoms: C_4  and  C_20
REMARK    3  A    between atoms: C_8  and  N_15
REMARK    4  A    between atoms: C_20  and  N_22
REMARK    5  A    between atoms: C_23  and  C_27
REMARK                            x       y       z     vdW  Elec       q    Type
REMARK                         _______ _______ _______ _____ _____    ______ ____
ROOT
ATOM      1  O   UNL     1       1.801   0.901  -1.088  0.00  0.00    -0.434 OA
ATOM      2  O   UNL     1       0.177   2.481  -0.972  0.00  0.00    -0.226 OA
ATOM      3  N   UNL     1      -0.298   0.182  -0.672  0.00  0.00    -0.221 N 
ATOM      4  C   UNL     1       1.916  -0.488  -0.750  0.00  0.00    +0.210 C 
ATOM      5  C   UNL     1       0.496  -1.009  -0.815  0.00  0.00    +0.147 C 
ATOM      6  C   UNL     1       0.497   1.302  -0.901  0.00  0.00    +0.409 C 
ENDROOT
BRANCH   3   7
ATOM      7  C   UNL     1      -1.702   0.150  -0.437  0.00  0.00    +0.057 C 
ATOM      8  C   UNL     1      -4.447   0.087   0.022  0.00  0.00    +0.054 C 
ATOM      9  C   UNL     1      -2.346  -1.069  -0.225  0.00  0.00    +0.016 C 
ATOM     10  C   UNL     1      -2.434   1.337  -0.419  0.00  0.00    +0.016 C 
ATOM     11  C   UNL     1      -3.721  -1.101   0.005  0.00  0.00    +0.016 C 
ATOM     12  C   UNL     1      -3.809   1.306  -0.189  0.00  0.00    +0.016 C 
BRANCH   8  15
ATOM     13  O   UNL     1      -8.655   0.255   0.621  0.00  0.00    -0.343 OA
ATOM     14  O   UNL     1      -6.282  -2.019  -0.775  0.00  0.00    -0.272 OA
ATOM     15  N   UNL     1      -5.870   0.054   0.261  0.00  0.00    -0.254 N 
ATOM     16  C   UNL     1      -6.520   1.282   0.738  0.00  0.00    +0.130 C 
ATOM     17  C   UNL     1      -7.808   0.998   1.484  0.00  0.00    +0.165 C 
ATOM     18  C   UNL     1      -6.659  -1.044  -0.121  0.00  0.00    +0.260 C 
ATOM     19  C   UNL     1      -8.102  -1.015   0.370  0.00  0.00    +0.228 C 
ENDBRANCH   8  15
ENDBRANCH   3   7
BRANCH   4  20
ATOM     20  C   UNL     1       2.535  -0.607   0.636  0.00  0.00    +0.135 C 
BRANCH  20  22
ATOM     21  O   UNL     1       4.861  -2.115   0.122  0.00  0.00    -0.270 OA
ATOM     22  N   UNL     1       3.878  -0.106   0.648  0.00  0.00    -0.297 N 
ATOM     23  C   UNL     1       4.987  -0.917   0.383  0.00  0.00    +0.252 C 
ATOM     24  H   UNL     1       4.026   0.846   0.852  0.00  0.00    +0.150 HD
BRANCH  23  27
ATOM     25 CL   UNL     1      10.371   0.040   0.093  0.00  0.00    -0.075 Cl
ATOM     26  S   UNL     1       7.668  -1.190   0.086  0.00  0.00    -0.071 S 
ATOM     27  C   UNL     1       6.296  -0.251   0.401  0.00  0.00    +0.084 C 
ATOM     28  C   UNL     1       6.549   1.054   0.644  0.00  0.00    +0.012 C 
ATOM     29  C   UNL     1       7.948   1.317   0.573  0.00  0.00    +0.019 C 
ATOM     30  C   UNL     1       8.672   0.183   0.277  0.00  0.00    +0.087 C 
ENDBRANCH  23  27
ENDBRANCH  20  22
ENDBRANCH   4  20
TORSDOF 5
