REMARK  Name = 158784
REMARK  4 active torsions:
REMARK  status: ('A' for Active; 'I' for Inactive)
REMARK    1  A    between atoms: C_5  and  C_16
REMARK    2  A    between atoms: C_16  and  N_17
REMARK    3  A    between atoms: N_17  and  C_20
REMARK    4  A    between atoms: C_20  and  C_21
REMARK                            x       y       z     vdW  Elec       q    Type
REMARK                         _______ _______ _______ _____ _____    ______ ____
ROOT
ATOM      1  O   UNL     1       1.211  -0.623   0.194  0.00  0.00    -0.475 OA
ATOM      2  O   UNL     1       0.901   2.236  -0.026  0.00  0.00    -0.469 OA
ATOM      3  O   UNL     1       6.323  -2.510   0.043  0.00  0.00    -0.274 OA
ATOM      4  N   UNL     1       5.810  -0.226  -0.165  0.00  0.00    -0.284 N 
ATOM      5  C   UNL     1      -0.036   0.002  -0.139  0.00  0.00    +0.188 C 
ATOM      6  C   UNL     1       3.543  -0.300   0.012  0.00  0.00    +0.037 C 
ATOM      7  C   UNL     1       2.267   0.229   0.042  0.00  0.00    +0.170 C 
ATOM      8  C   UNL     1      -0.112   1.378   0.510  0.00  0.00    +0.246 C 
ATOM      9  C   UNL     1       2.124   1.617  -0.076  0.00  0.00    +0.172 C 
ATOM     10  C   UNL     1       4.646   0.533  -0.161  0.00  0.00    +0.050 C 
ATOM     11  C   UNL     1       4.006  -1.719   0.128  0.00  0.00    +0.116 C 
ATOM     12  C   UNL     1       3.246   2.445  -0.263  0.00  0.00    +0.041 C 
ATOM     13  C   UNL     1       4.532   1.902  -0.305  0.00  0.00    +0.018 C 
ATOM     14  C   UNL     1       5.527  -1.585   0.002  0.00  0.00    +0.231 C 
ATOM     15  H   UNL     1       6.716   0.145  -0.272  0.00  0.00    +0.155 HD
ENDROOT
BRANCH   5  16
ATOM     16  C   UNL     1      -1.154  -0.905   0.354  0.00  0.00    -0.033 C 
BRANCH  16  17
ATOM     17  N   UNL     1      -2.461  -0.353   0.023  0.00  0.00    +0.389 N 
ATOM     18  H   UNL     1      -2.538  -0.260  -0.990  0.00  0.00    -0.084 HD
ATOM     19  H   UNL     1      -2.553   0.559   0.472  0.00  0.00    -0.084 HD
BRANCH  17  20
ATOM     20  C   UNL     1      -3.529  -1.218   0.505  0.00  0.00    -0.054 C 
BRANCH  20  21
ATOM     21  C   UNL     1      -4.890  -0.662   0.183  0.00  0.00    -0.044 C 
ATOM     22  C   UNL     1      -5.514   0.184   1.089  0.00  0.00    -0.006 C 
ATOM     23  C   UNL     1      -5.502  -1.003  -1.015  0.00  0.00    -0.006 C 
ATOM     24  C   UNL     1      -6.776   0.700   0.790  0.00  0.00    -0.000 C 
ATOM     25  C   UNL     1      -6.763  -0.487  -1.314  0.00  0.00    -0.000 C 
ATOM     26  C   UNL     1      -7.400   0.364  -0.411  0.00  0.00    -0.000 C 
ENDBRANCH  20  21
ENDBRANCH  17  20
ENDBRANCH  16  17
ENDBRANCH   5  16
TORSDOF 4
