REMARK  Name = 5709
REMARK  3 active torsions:
REMARK  status: ('A' for Active; 'I' for Inactive)
REMARK    1  A    between atoms: C_1  and  C_9
REMARK    2  A    between atoms: C_2  and  C_13
REMARK    3  A    between atoms: C_13  and  C_16
REMARK                            x       y       z     vdW  Elec       q    Type
REMARK                         _______ _______ _______ _____ _____    ______ ____
ROOT
ATOM      1  C   UNL     1      -2.116   0.028   0.000  0.00  0.00    -0.023 C 
ATOM      2  C   UNL     1       0.476   0.067  -0.866  0.00  0.00    -0.023 C 
ATOM      3  C   UNL     1      -0.207  -1.145  -0.766  0.00  0.00    -0.026 C 
ATOM      4  C   UNL     1      -0.163   1.259  -0.524  0.00  0.00    -0.026 C 
ATOM      5  C   UNL     1      -1.530  -1.165  -0.324  0.00  0.00    -0.009 C 
ATOM      6  C   UNL     1      -1.486   1.239  -0.082  0.00  0.00    -0.009 C 
ATOM      7  C   UNL     1       0.455  -2.435  -1.125  0.00  0.00    +0.031 C 
ATOM      8  C   UNL     1       0.547   2.569  -0.625  0.00  0.00    +0.031 C 
ENDROOT
BRANCH   1   9
ATOM      9  C   UNL     1      -3.583   0.005   0.493  0.00  0.00    +0.019 C 
ATOM     10  C   UNL     1      -3.693  -0.851   1.773  0.00  0.00    +0.004 C 
ATOM     11  C   UNL     1      -4.495  -0.591  -0.602  0.00  0.00    +0.004 C 
ATOM     12  C   UNL     1      -4.136   1.407   0.833  0.00  0.00    +0.004 C 
ENDBRANCH   1   9
BRANCH   2  13
ATOM     13  C   UNL     1       1.895   0.088  -1.340  0.00  0.00    +0.087 C 
BRANCH  13  16
ATOM     14  N   UNL     1       4.064   0.579  -0.226  0.00  0.00    -0.299 N 
ATOM     15  N   UNL     1       2.566  -0.739   0.868  0.00  0.00    -0.232 NA
ATOM     16  C   UNL     1       2.853  -0.044  -0.203  0.00  0.00    +0.113 C 
ATOM     17  C   UNL     1       4.770   0.326   0.994  0.00  0.00    +0.084 C 
ATOM     18  C   UNL     1       3.784  -0.598   1.724  0.00  0.00    +0.116 C 
ATOM     19  H   UNL     1       4.404   1.124  -0.972  0.00  0.00    +0.153 HD
ENDBRANCH  13  16
ENDBRANCH   2  13
TORSDOF 3
