REMARK  Name = 60511
REMARK  6 active torsions:
REMARK  status: ('A' for Active; 'I' for Inactive)
REMARK    1  A    between atoms: C_1  and  C_3
REMARK    2  A    between atoms: C_1  and  N_10
REMARK    3  A    between atoms: C_1  and  C_18
REMARK    4  A    between atoms: C_11  and  C_13
REMARK    5  A    between atoms: C_13  and  N_14
REMARK    6  A    between atoms: C_18  and  C_19
REMARK                            x       y       z     vdW  Elec       q    Type
REMARK                         _______ _______ _______ _____ _____    ______ ____
ROOT
ATOM      1  C   UNL     1      -0.605   0.082   1.200  0.00  0.00    +0.080 C 
ATOM      2  C   UNL     1      -1.601  -0.102   2.368  0.00  0.00    +0.025 C 
ENDROOT
BRANCH   1   3
ATOM      3  C   UNL     1      -0.554  -1.181   0.326  0.00  0.00    -0.006 C 
ATOM      4  C   UNL     1      -0.794  -2.395   0.920  0.00  0.00    -0.003 C 
ATOM      5  C   UNL     1      -0.270  -1.038  -1.009  0.00  0.00    -0.003 C 
ATOM      6  C   UNL     1      -0.748  -3.541   0.126  0.00  0.00    -0.000 C 
ATOM      7  C   UNL     1      -0.223  -2.185  -1.803  0.00  0.00    -0.000 C 
ATOM      8  C   UNL     1      -0.462  -3.436  -1.235  0.00  0.00    -0.000 C 
ENDBRANCH   1   3
BRANCH   1  10
ATOM      9  O   UNL     1      -3.174   0.402  -0.099  0.00  0.00    -0.277 OA
ATOM     10  N   UNL     1      -1.077   1.232   0.463  0.00  0.00    -0.305 N 
ATOM     11  C   UNL     1      -2.331   1.295  -0.129  0.00  0.00    +0.200 C 
ATOM     12  H   UNL     1      -0.479   2.010   0.376  0.00  0.00    +0.150 HD
BRANCH  11  13
ATOM     13  C   UNL     1      -2.550   2.622  -0.820  0.00  0.00    +0.001 C 
BRANCH  13  14
ATOM     14  N   UNL     1      -3.863   2.654  -1.413  0.00  0.00    +0.386 N 
ATOM     15  H   UNL     1      -4.004   3.551  -1.877  0.00  0.00    -0.089 HD
ATOM     16  H   UNL     1      -4.567   2.533  -0.685  0.00  0.00    -0.089 HD
ATOM     17  H   UNL     1      -3.946   1.901  -2.095  0.00  0.00    -0.089 HD
ENDBRANCH  13  14
ENDBRANCH  11  13
ENDBRANCH   1  10
BRANCH   1  18
ATOM     18  C   UNL     1       0.799   0.394   1.802  0.00  0.00    +0.049 C 
BRANCH  18  19
ATOM     19  C   UNL     1       1.904   0.642   0.797  0.00  0.00    -0.020 C 
ATOM     20  C   UNL     1       2.659  -0.427   0.348  0.00  0.00    -0.004 C 
ATOM     21  C   UNL     1       2.134   1.931   0.351  0.00  0.00    -0.004 C 
ATOM     22  C   UNL     1       3.678  -0.200  -0.578  0.00  0.00    -0.000 C 
ATOM     23  C   UNL     1       3.153   2.159  -0.575  0.00  0.00    -0.000 C 
ATOM     24  C   UNL     1       3.924   1.093  -1.040  0.00  0.00    -0.000 C 
ENDBRANCH  18  19
ENDBRANCH   1  18
TORSDOF 6
