REMARK  Name = 11370864
REMARK  4 active torsions:
REMARK  status: ('A' for Active; 'I' for Inactive)
REMARK    1  A    between atoms: C_4  and  C_19
REMARK    2  A    between atoms: C_5  and  C_13
REMARK    3  A    between atoms: C_19  and  O_20
REMARK    4  A    between atoms: O_20  and  C_21
REMARK                            x       y       z     vdW  Elec       q    Type
REMARK                         _______ _______ _______ _____ _____    ______ ____
ROOT
ATOM      1  N   UNL     1       2.541   1.773   0.909  0.00  0.00    +0.388 N 
ATOM      2  C   UNL     1       2.566   0.449   0.274  0.00  0.00    -0.055 C 
ATOM      3  C   UNL     1       1.876   2.625  -0.080  0.00  0.00    -0.058 C 
ATOM      4  C   UNL     1       1.145  -0.170   0.143  0.00  0.00    +0.015 C 
ATOM      5  C   UNL     1       0.184   0.765  -0.650  0.00  0.00    +0.021 C 
ATOM      6  C   UNL     1       0.392   2.253  -0.274  0.00  0.00    -0.016 C 
ATOM      7  C   UNL     1       3.181   0.842  -1.079  0.00  0.00    -0.023 C 
ATOM      8  C   UNL     1       2.710   2.283  -1.319  0.00  0.00    -0.023 C 
ATOM      9  C   UNL     1       2.011   1.830   2.258  0.00  0.00    -0.100 C 
ATOM     10  H   UNL     1       3.483   2.102   1.117  0.00  0.00    -0.080 HD
ENDROOT
BRANCH   5  13
ATOM     11 CL   UNL     1      -3.970   0.092   2.395  0.00  0.00    -0.081 Cl
ATOM     12 CL   UNL     1      -5.629  -0.791  -0.239  0.00  0.00    -0.081 Cl
ATOM     13  C   UNL     1      -1.280   0.375  -0.529  0.00  0.00    -0.022 C 
ATOM     14  C   UNL     1      -1.903   0.400   0.715  0.00  0.00    +0.008 C 
ATOM     15  C   UNL     1      -1.990  -0.004  -1.665  0.00  0.00    -0.003 C 
ATOM     16  C   UNL     1      -3.247   0.043   0.825  0.00  0.00    +0.068 C 
ATOM     17  C   UNL     1      -3.334  -0.361  -1.555  0.00  0.00    +0.012 C 
ATOM     18  C   UNL     1      -3.962  -0.338  -0.310  0.00  0.00    +0.068 C 
ENDBRANCH   5  13
BRANCH   4  19
ATOM     19  C   UNL     1       1.207  -1.571  -0.483  0.00  0.00    +0.140 C 
BRANCH  19  20
ATOM     20  O   UNL     1       2.101  -2.357   0.279  0.00  0.00    -0.354 OA
BRANCH  20  21
ATOM     21  C   UNL     1       2.217  -3.678  -0.238  0.00  0.00    +0.142 C 
ATOM     22  C   UNL     1       3.186  -4.461   0.623  0.00  0.00    +0.035 C 
ENDBRANCH  20  21
ENDBRANCH  19  20
ENDBRANCH   4  19
TORSDOF 4
