REMARK  Name = 10783
REMARK  2 active torsions:
REMARK  status: ('A' for Active; 'I' for Inactive)
REMARK    1  A    between atoms: C_3  and  C_7
REMARK    2  A    between atoms: C_7  and  C_9
REMARK                            x       y       z     vdW  Elec       q    Type
REMARK                         _______ _______ _______ _____ _____    ______ ____
ROOT
ATOM      1  S   UNL     1       0.888   1.771   0.142  0.00  0.00    -0.109 S 
ATOM      2  N   UNL     1       2.325  -0.340  -0.256  0.00  0.00    -0.266 NA
ATOM      3  C   UNL     1       0.125   0.242   0.287  0.00  0.00    +0.086 C 
ATOM      4  C   UNL     1       1.043  -0.758   0.042  0.00  0.00    +0.043 C 
ATOM      5  C   UNL     1       0.774  -2.210   0.071  0.00  0.00    +0.048 C 
ATOM      6  C   UNL     1       2.361   0.974  -0.232  0.00  0.00    +0.183 C 
ENDROOT
BRANCH   3   7
ATOM      7  C   UNL     1      -1.309   0.154   0.629  0.00  0.00    +0.034 C 
BRANCH   7   9
ATOM      8 CL   UNL     1      -3.957   0.018  -0.096  0.00  0.00    -0.114 Cl
ATOM      9  C   UNL     1      -2.251   0.150  -0.589  0.00  0.00    +0.096 C 
ENDBRANCH   7   9
ENDBRANCH   3   7
TORSDOF 2
