REMARK  Name = 445849
REMARK  5 active torsions:
REMARK  status: ('A' for Active; 'I' for Inactive)
REMARK    1  A    between atoms: C_3  and  C_20
REMARK    2  A    between atoms: C_9  and  C_14
REMARK    3  A    between atoms: C_18  and  O_26
REMARK    4  A    between atoms: C_19  and  O_24
REMARK    5  A    between atoms: O_26  and  C_28
REMARK                            x       y       z     vdW  Elec       q    Type
REMARK                         _______ _______ _______ _____ _____    ______ ____
ROOT
ATOM      1  F   UNL     1      -6.019  -2.045   1.088  0.00  0.00    -0.204 F 
ATOM      2  N   UNL     1      -1.511  -0.213   1.058  0.00  0.00    -0.312 N 
ATOM      3  C   UNL     1      -0.953   0.805   0.334  0.00  0.00    +0.051 C 
ATOM      4  C   UNL     1      -3.122   0.591  -0.259  0.00  0.00    +0.015 C 
ATOM      5  C   UNL     1      -2.836  -0.367   0.716  0.00  0.00    +0.051 C 
ATOM      6  C   UNL     1      -1.924   1.323  -0.489  0.00  0.00    +0.016 C 
ATOM      7  C   UNL     1      -4.427   0.652  -0.787  0.00  0.00    +0.006 C 
ATOM      8  C   UNL     1      -3.793  -1.271   1.191  0.00  0.00    +0.044 C 
ATOM      9  C   UNL     1      -5.394  -0.246  -0.322  0.00  0.00    +0.058 C 
ATOM     10  C   UNL     1      -5.080  -1.192   0.652  0.00  0.00    +0.144 C 
ATOM     11  H   UNL     1      -1.034  -0.758   1.726  0.00  0.00    +0.152 HD
ENDROOT
BRANCH   9  14
ATOM     12  N   UNL     1      -7.089   0.748  -1.841  0.00  0.00    -0.343 N 
ATOM     13  N   UNL     1      -7.665  -1.026  -0.432  0.00  0.00    -0.285 NA
ATOM     14  C   UNL     1      -6.742  -0.186  -0.867  0.00  0.00    +0.119 C 
ATOM     15  H   UNL     1      -8.007   0.771  -2.196  0.00  0.00    +0.144 HD
ATOM     16  H   UNL     1      -6.416   1.384  -2.175  0.00  0.00    +0.144 HD
ATOM     17  H   UNL     1      -8.578  -0.987  -0.799  0.00  0.00    +0.188 HD
ENDBRANCH   9  14
BRANCH   3  20
ATOM     18  C   UNL     1       2.756   0.979  -0.117  0.00  0.00    +0.172 C 
ATOM     19  C   UNL     1       1.429   0.595  -0.287  0.00  0.00    +0.169 C 
ATOM     20  C   UNL     1       0.432   1.185   0.490  0.00  0.00    +0.050 C 
ATOM     21  C   UNL     1       3.095   1.947   0.823  0.00  0.00    +0.040 C 
ATOM     22  C   UNL     1       0.767   2.155   1.434  0.00  0.00    +0.004 C 
ATOM     23  C   UNL     1       2.098   2.537   1.601  0.00  0.00    +0.003 C 
BRANCH  19  24
ATOM     24  O   UNL     1       1.117  -0.356  -1.216  0.00  0.00    -0.503 OA
ATOM     25  H   UNL     1       1.794  -0.746  -1.733  0.00  0.00    +0.292 HD
ENDBRANCH  19  24
BRANCH  18  26
ATOM     26  O   UNL     1       3.745   0.409  -0.873  0.00  0.00    -0.476 OA
BRANCH  26  28
ATOM     27  C   UNL     1       6.089  -0.183  -0.952  0.00  0.00    +0.040 C 
ATOM     28  C   UNL     1       4.770  -0.284  -0.166  0.00  0.00    +0.166 C 
ATOM     29  C   UNL     1       7.185  -1.032  -0.293  0.00  0.00    +0.004 C 
ATOM     30  C   UNL     1       4.341  -1.740   0.027  0.00  0.00    +0.044 C 
ATOM     31  C   UNL     1       6.744  -2.481  -0.104  0.00  0.00    +0.000 C 
ATOM     32  C   UNL     1       5.438  -2.574   0.677  0.00  0.00    +0.004 C 
ATOM     33  C   UNL     1       6.550   1.271  -1.085  0.00  0.00    +0.004 C 
ENDBRANCH  26  28
ENDBRANCH  18  26
ENDBRANCH   3  20
TORSDOF 5
