REMARK  Name = 6102781
REMARK  11 active torsions:
REMARK  status: ('A' for Active; 'I' for Inactive)
REMARK    1  A    between atoms: P_1  and  O_3
REMARK    2  A    between atoms: P_1  and  C_5
REMARK    3  A    between atoms: P_1  and  C_17
REMARK    4  A    between atoms: C_5  and  C_6
REMARK    5  A    between atoms: C_6  and  C_8
REMARK    6  A    between atoms: C_6  and  C_11
REMARK    7  A    between atoms: C_8  and  O_9
REMARK    8  A    between atoms: C_11  and  C_12
REMARK    9  A    between atoms: C_12  and  C_14
REMARK   10  A    between atoms: C_14  and  O_15
REMARK   11  A    between atoms: C_17  and  C_19
REMARK                            x       y       z     vdW  Elec       q    Type
REMARK                         _______ _______ _______ _____ _____    ______ ____
ROOT
ATOM      1  P   UNL     1      -0.331  -0.044  -0.263  0.00  0.00    +0.224 P 
ATOM      2  O   UNL     1      -0.395   1.101   0.685  0.00  0.00    -0.289 OA
ENDROOT
BRANCH   1   3
ATOM      3  O   UNL     1      -0.296  -1.498   0.426  0.00  0.00    -0.343 OA
ATOM      4  H   UNL     1       0.418  -1.529   1.081  0.00  0.00    +0.218 HD
ENDBRANCH   1   3
BRANCH   1   5
ATOM      5  C   UNL     1       1.180  -0.056  -1.257  0.00  0.00    +0.098 C 
BRANCH   5   6
ATOM      6  C   UNL     1       2.474   0.088  -0.453  0.00  0.00    +0.109 C 
BRANCH   6   8
ATOM      7  O   UNL     1       2.381   2.511  -0.194  0.00  0.00    -0.250 OA
ATOM      8  C   UNL     1       2.436   1.400   0.316  0.00  0.00    +0.314 C 
BRANCH   8   9
ATOM      9  O   UNL     1       2.449   1.207   1.660  0.00  0.00    -0.480 OA
ATOM     10  H   UNL     1       2.492   0.339   2.009  0.00  0.00    +0.295 HD
ENDBRANCH   8   9
ENDBRANCH   6   8
BRANCH   6  11
ATOM     11  C   UNL     1       3.714  -0.005  -1.363  0.00  0.00    +0.023 C 
BRANCH  11  12
ATOM     12  C   UNL     1       5.039   0.130  -0.611  0.00  0.00    +0.110 C 
BRANCH  12  14
ATOM     13  O   UNL     1       4.749  -2.082   0.329  0.00  0.00    -0.250 OA
ATOM     14  C   UNL     1       5.246  -0.967   0.400  0.00  0.00    +0.314 C 
BRANCH  14  15
ATOM     15  O   UNL     1       6.056  -0.561   1.408  0.00  0.00    -0.480 OA
ATOM     16  H   UNL     1       6.406   0.308   1.406  0.00  0.00    +0.295 HD
ENDBRANCH  14  15
ENDBRANCH  12  14
ENDBRANCH  11  12
ENDBRANCH   6  11
ENDBRANCH   5   6
ENDBRANCH   1   5
BRANCH   1  17
ATOM     17  C   UNL     1      -1.669  -0.147  -1.417  0.00  0.00    +0.113 C 
BRANCH  17  19
ATOM     18  I   UNL     1      -7.400  -0.160   1.337  0.00  0.00    -0.043 I 
ATOM     19  C   UNL     1      -3.023  -0.150  -0.767  0.00  0.00    -0.012 C 
ATOM     20  C   UNL     1      -3.677   1.054  -0.537  0.00  0.00    -0.003 C 
ATOM     21  C   UNL     1      -3.606  -1.357  -0.402  0.00  0.00    -0.003 C 
ATOM     22  C   UNL     1      -4.934   1.051   0.067  0.00  0.00    +0.005 C 
ATOM     23  C   UNL     1      -4.864  -1.360   0.202  0.00  0.00    +0.005 C 
ATOM     24  C   UNL     1      -5.528  -0.156   0.436  0.00  0.00    +0.030 C 
ENDBRANCH  17  19
ENDBRANCH   1  17
TORSDOF 11
