REMARK  Name = 9824131
REMARK  7 active torsions:
REMARK  status: ('A' for Active; 'I' for Inactive)
REMARK    1  A    between atoms: CA_5  and  C_30
REMARK    2  A    between atoms: CA_9  and  N_18
REMARK    3  A    between atoms: C_19  and  C_21
REMARK    4  A    between atoms: C_21  and  C_22
REMARK    5  A    between atoms: C_21  and  S_25
REMARK    6  A    between atoms: S_25  and  C_27
REMARK    7  A    between atoms: C_30  and  O_31
REMARK                            x       y       z     vdW  Elec       q    Type
REMARK                         _______ _______ _______ _____ _____    ______ ____
ROOT
ATOM      1  O   UNL     1       0.022  -1.893  -1.400  0.00  0.00    -0.273 OA
ATOM      2  N   UNL     1      -1.725  -1.316   0.026  0.00  0.00    -0.268 N 
ATOM      3  C   UNL     1      -2.178  -0.569   1.224  0.00  0.00    +0.098 C 
ATOM      4  C   UNL     1      -3.295  -1.327   1.973  0.00  0.00    +0.024 C 
ATOM      5  CA  UNL     1      -2.720  -1.998  -0.813  0.00  0.00    +0.175 C 
ATOM      6  C   UNL     1      -4.410  -1.829   1.067  0.00  0.00    +0.004 C 
ATOM      7  C   UNL     1      -3.829  -2.698  -0.038  0.00  0.00    +0.031 C 
ATOM      8  C   UNL     1      -2.377   0.909   0.906  0.00  0.00    -0.008 C 
ATOM      9  CA  UNL     1       0.480  -0.244   0.297  0.00  0.00    +0.153 C 
ATOM     10  C   UNL     1      -0.399  -1.251  -0.435  0.00  0.00    +0.244 C 
ATOM     11  C   UNL     1       0.052   1.187  -0.035  0.00  0.00    +0.055 C 
ATOM     12  C   UNL     1      -1.330   1.687   0.353  0.00  0.00    -0.022 C 
ATOM     13  C   UNL     1      -3.600   1.550   1.189  0.00  0.00    -0.003 C 
ATOM     14  C   UNL     1      -1.560   3.057   0.091  0.00  0.00    -0.004 C 
ATOM     15  C   UNL     1      -3.802   2.905   0.924  0.00  0.00    -0.000 C 
ATOM     16  C   UNL     1      -2.781   3.661   0.373  0.00  0.00    -0.000 C 
ENDROOT
BRANCH   9  18
ATOM     17  O   UNL     1       2.858   0.151   1.859  0.00  0.00    -0.274 OA
ATOM     18  N   UNL     1       1.842  -0.474  -0.131  0.00  0.00    -0.297 N 
ATOM     19  C   UNL     1       2.930  -0.253   0.699  0.00  0.00    +0.233 C 
ATOM     20  H   UNL     1       2.003  -0.799  -1.047  0.00  0.00    +0.150 HD
BRANCH  19  21
ATOM     21  C   UNL     1       4.263  -0.537   0.009  0.00  0.00    +0.131 C 
BRANCH  21  22
ATOM     22  C   UNL     1       5.095  -1.595   0.774  0.00  0.00    +0.019 C 
ATOM     23  C   UNL     1       6.436  -1.906   0.094  0.00  0.00    +0.001 C 
ATOM     24  C   UNL     1       4.306  -2.907   0.906  0.00  0.00    +0.001 C 
ENDBRANCH  21  22
BRANCH  21  25
ATOM     25  S   UNL     1       5.112   1.085  -0.108  0.00  0.00    -0.069 S 
BRANCH  25  27
ATOM     26  O   UNL     1       3.194   1.440  -1.899  0.00  0.00    -0.284 OA
ATOM     27  C   UNL     1       3.932   1.962  -1.073  0.00  0.00    +0.200 C 
ATOM     28  C   UNL     1       3.921   3.436  -0.781  0.00  0.00    +0.085 C 
ENDBRANCH  25  27
ENDBRANCH  21  25
ENDBRANCH  19  21
ENDBRANCH   9  18
BRANCH   5  30
ATOM     29  OXT UNL     1      -2.661   0.029  -2.133  0.00  0.00    -0.248 OA
ATOM     30  C   UNL     1      -3.261  -0.968  -1.762  0.00  0.00    +0.332 C 
BRANCH  30  31
ATOM     31  O   UNL     1      -4.517  -1.293  -2.156  0.00  0.00    -0.479 OA
ATOM     32  H   UNL     1      -4.922  -2.075  -1.833  0.00  0.00    +0.295 HD
ENDBRANCH  30  31
ENDBRANCH   5  30
TORSDOF 7
