REMARK  Name = 10101
REMARK  4 active torsions:
REMARK  status: ('A' for Active; 'I' for Inactive)
REMARK    1  A    between atoms: C_2  and  C_9
REMARK    2  A    between atoms: C_2  and  C_18
REMARK    3  A    between atoms: C_12  and  O_15
REMARK    4  A    between atoms: C_18  and  C_19
REMARK                            x       y       z     vdW  Elec       q    Type
REMARK                         _______ _______ _______ _____ _____    ______ ____
ROOT
ATOM      1  N   UNL     1       3.170   1.356  -0.016  0.00  0.00    +0.386 N 
ATOM      2  C   UNL     1       0.498   0.036  -0.107  0.00  0.00    +0.066 C 
ATOM      3  C   UNL     1       1.238   0.575  -1.359  0.00  0.00    -0.012 C 
ATOM      4  C   UNL     1       1.066   0.767   1.136  0.00  0.00    -0.012 C 
ATOM      5  C   UNL     1       2.763   0.601  -1.204  0.00  0.00    -0.077 C 
ATOM      6  C   UNL     1       2.598   0.764   1.197  0.00  0.00    -0.077 C 
ATOM      7  C   UNL     1       4.628   1.415   0.081  0.00  0.00    -0.101 C 
ATOM      8  H   UNL     1       2.813   2.308  -0.105  0.00  0.00    -0.080 HD
ENDROOT
BRANCH   2   9
ATOM      9  C   UNL     1      -1.023   0.180  -0.280  0.00  0.00    -0.013 C 
ATOM     10  C   UNL     1      -1.754   0.937   0.631  0.00  0.00    +0.033 C 
ATOM     11  C   UNL     1      -1.661  -0.446  -1.347  0.00  0.00    -0.004 C 
ATOM     12  C   UNL     1      -3.134   1.069   0.475  0.00  0.00    +0.133 C 
ATOM     13  C   UNL     1      -3.041  -0.315  -1.504  0.00  0.00    +0.003 C 
ATOM     14  C   UNL     1      -3.777   0.443  -0.593  0.00  0.00    +0.037 C 
BRANCH  12  15
ATOM     15  O   UNL     1      -3.853   1.809   1.363  0.00  0.00    -0.506 OA
ATOM     16  H   UNL     1      -3.421   2.229   2.080  0.00  0.00    +0.292 HD
ENDBRANCH  12  15
ENDBRANCH   2   9
BRANCH   2  18
ATOM     17  O   UNL     1       1.527  -2.033  -0.736  0.00  0.00    -0.296 OA
ATOM     18  C   UNL     1       0.794  -1.442   0.056  0.00  0.00    +0.153 C 
BRANCH  18  19
ATOM     19  C   UNL     1       0.138  -2.128   1.239  0.00  0.00    +0.065 C 
ATOM     20  C   UNL     1      -0.175  -3.589   0.968  0.00  0.00    +0.008 C 
ENDBRANCH  18  19
ENDBRANCH   2  18
TORSDOF 4
