REMARK  Name = 4300
REMARK  4 active torsions:
REMARK  status: ('A' for Active; 'I' for Inactive)
REMARK    1  A    between atoms: N_2  and  C_16
REMARK    2  A    between atoms: C_3  and  C_6
REMARK    3  A    between atoms: C_9  and  O_13
REMARK    4  A    between atoms: C_19  and  C_24
REMARK                            x       y       z     vdW  Elec       q    Type
REMARK                         _______ _______ _______ _____ _____    ______ ____
ROOT
ATOM      1  O   UNL     1       0.826  -0.117   2.018  0.00  0.00    -0.270 OA
ATOM      2  N   UNL     1       0.130   0.190  -0.193  0.00  0.00    -0.280 N 
ATOM      3  C   UNL     1       1.085   0.072   0.833  0.00  0.00    +0.252 C 
ATOM      4  H   UNL     1       0.488   0.340  -1.097  0.00  0.00    +0.155 HD
ENDROOT
BRANCH   3   6
ATOM      5  I   UNL     1       5.604  -2.585  -0.955  0.00  0.00    -0.039 I 
ATOM      6  C   UNL     1       2.487   0.149   0.389  0.00  0.00    +0.087 C 
ATOM      7  C   UNL     1       4.424   1.494  -0.071  0.00  0.00    -0.021 C 
ATOM      8  C   UNL     1       3.097   1.395   0.345  0.00  0.00    +0.003 C 
ATOM      9  C   UNL     1       3.175  -0.999   0.025  0.00  0.00    +0.143 C 
ATOM     10  C   UNL     1       5.127   0.346  -0.439  0.00  0.00    +0.005 C 
ATOM     11  C   UNL     1       4.503  -0.900  -0.391  0.00  0.00    +0.064 C 
ATOM     12  C   UNL     1       5.091   2.827  -0.124  0.00  0.00    +0.031 C 
BRANCH   9  13
ATOM     13  O   UNL     1       2.545  -2.209   0.081  0.00  0.00    -0.505 OA
ATOM     14  H   UNL     1       1.653  -2.260   0.362  0.00  0.00    +0.292 HD
ENDBRANCH   9  13
ENDBRANCH   3   6
BRANCH   2  16
ATOM     15 CL   UNL     1      -4.383   0.377  -2.566  0.00  0.00    -0.082 Cl
ATOM     16  C   UNL     1      -1.259   0.121  -0.091  0.00  0.00    +0.051 C 
ATOM     17  C   UNL     1      -2.050   0.264  -1.232  0.00  0.00    +0.026 C 
ATOM     18  C   UNL     1      -1.859  -0.089   1.150  0.00  0.00    +0.015 C 
ATOM     19  C   UNL     1      -4.038  -0.014   0.111  0.00  0.00    +0.041 C 
ATOM     20  C   UNL     1      -3.439   0.196  -1.131  0.00  0.00    +0.062 C 
ATOM     21  C   UNL     1      -3.248  -0.156   1.252  0.00  0.00    +0.005 C 
BRANCH  19  24
ATOM     22  N   UNL     1      -6.068  -0.304   1.513  0.00  0.00    -0.343 N 
ATOM     23  N   UNL     1      -6.265   0.033  -0.791  0.00  0.00    -0.285 NA
ATOM     24  C   UNL     1      -5.486  -0.093   0.266  0.00  0.00    +0.118 C 
ATOM     25  H   UNL     1      -7.047  -0.354   1.597  0.00  0.00    +0.144 HD
ATOM     26  H   UNL     1      -5.499  -0.403   2.311  0.00  0.00    +0.144 HD
ATOM     27  H   UNL     1      -7.243  -0.019  -0.691  0.00  0.00    +0.188 HD
ENDBRANCH  19  24
ENDBRANCH   2  16
TORSDOF 4
