REMARK  Name = 9933197
REMARK  7 active torsions:
REMARK  status: ('A' for Active; 'I' for Inactive)
REMARK    1  A    between atoms: C_1  and  S_7
REMARK    2  A    between atoms: C_6  and  O_22
REMARK    3  A    between atoms: S_7  and  C_11
REMARK    4  A    between atoms: C_11  and  C_18
REMARK    5  A    between atoms: N_17  and  O_20
REMARK    6  A    between atoms: O_22  and  C_23
REMARK    7  A    between atoms: C_26  and  C_32
REMARK                            x       y       z     vdW  Elec       q    Type
REMARK                         _______ _______ _______ _____ _____    ______ ____
ROOT
ATOM      1  C   UNL     1       1.861   1.630  -0.328  0.00  0.00    +0.106 C 
ATOM      2  C   UNL     1       0.833   1.313  -1.202  0.00  0.00    +0.021 C 
ATOM      3  C   UNL     1       1.604   2.230   0.896  0.00  0.00    +0.021 C 
ATOM      4  C   UNL     1      -0.484   1.602  -0.845  0.00  0.00    +0.039 C 
ATOM      5  C   UNL     1       0.287   2.519   1.253  0.00  0.00    +0.039 C 
ATOM      6  C   UNL     1      -0.757   2.205   0.383  0.00  0.00    +0.145 C 
ENDROOT
BRANCH   1   7
ATOM      7  S   UNL     1       3.526   1.265  -0.780  0.00  0.00    +0.014 S 
ATOM      8  O   UNL     1       3.581   1.204  -2.224  0.00  0.00    -0.168 OA
ATOM      9  O   UNL     1       4.405   2.140  -0.035  0.00  0.00    -0.168 OA
BRANCH   7  11
ATOM     10  O   UNL     1       5.364  -1.986   1.662  0.00  0.00    -0.354 OA
ATOM     11  C   UNL     1       3.773  -0.386  -0.148  0.00  0.00    +0.189 C 
ATOM     12  C   UNL     1       5.192  -0.861  -0.485  0.00  0.00    +0.063 C 
ATOM     13  C   UNL     1       3.547  -0.399   1.369  0.00  0.00    +0.063 C 
ATOM     14  C   UNL     1       5.548  -2.145   0.257  0.00  0.00    +0.144 C 
ATOM     15  C   UNL     1       4.005  -1.711   1.997  0.00  0.00    +0.144 C 
BRANCH  11  18
ATOM     16  O   UNL     1       2.753  -1.404  -2.055  0.00  0.00    -0.271 OA
ATOM     17  N   UNL     1       1.879  -1.850   0.039  0.00  0.00    -0.196 N 
ATOM     18  C   UNL     1       2.754  -1.259  -0.834  0.00  0.00    +0.265 C 
ATOM     19  H   UNL     1       1.926  -1.698   1.011  0.00  0.00    +0.182 HD
BRANCH  17  20
ATOM     20  O   UNL     1       0.913  -2.685  -0.539  0.00  0.00    -0.295 OA
ATOM     21  H   UNL     1       0.346  -3.053   0.157  0.00  0.00    +0.241 HD
ENDBRANCH  17  20
ENDBRANCH  11  18
ENDBRANCH   7  11
ENDBRANCH   1   7
BRANCH   6  22
ATOM     22  O   UNL     1      -2.042   2.486   0.732  0.00  0.00    -0.453 OA
BRANCH  22  23
ATOM     23  C   UNL     1      -2.997   1.508   0.513  0.00  0.00    +0.145 C 
ATOM     24  C   UNL     1      -4.206   1.864  -0.056  0.00  0.00    +0.037 C 
ATOM     25  C   UNL     1      -2.718   0.201   0.869  0.00  0.00    +0.037 C 
ATOM     26  C   UNL     1      -4.907  -0.444   0.076  0.00  0.00    +0.072 C 
ATOM     27  C   UNL     1      -5.170   0.880  -0.277  0.00  0.00    +0.007 C 
ATOM     28  C   UNL     1      -3.682  -0.783   0.649  0.00  0.00    +0.007 C 
BRANCH  26  32
ATOM     29  F   UNL     1      -7.086  -1.022  -0.727  0.00  0.00    -0.166 F 
ATOM     30  F   UNL     1      -5.516  -2.496  -0.992  0.00  0.00    -0.166 F 
ATOM     31  F   UNL     1      -6.326  -2.118   0.991  0.00  0.00    -0.166 F 
ATOM     32  C   UNL     1      -5.937  -1.497  -0.160  0.00  0.00    +0.419 C 
ENDBRANCH  26  32
ENDBRANCH  22  23
ENDBRANCH   6  22
TORSDOF 7
