REMARK  Name = 5419
REMARK  1 active torsions:
REMARK  status: ('A' for Active; 'I' for Inactive)
REMARK    1  A    between atoms: C_1  and  C_13
REMARK                            x       y       z     vdW  Elec       q    Type
REMARK                         _______ _______ _______ _____ _____    ______ ____
ROOT
ATOM      1  C   UNL     1      -0.479  -0.478  -0.990  0.00  0.00    +0.076 C 
ATOM      2  C   UNL     1      -0.520  -2.007  -0.884  0.00  0.00    +0.012 C 
ATOM      3  C   UNL     1       0.080  -2.500   0.429  0.00  0.00    +0.005 C 
ATOM      4  C   UNL     1       0.823   0.129  -0.516  0.00  0.00    -0.020 C 
ATOM      5  C   UNL     1       1.538  -2.070   0.548  0.00  0.00    +0.026 C 
ATOM      6  C   UNL     1       1.755  -0.611   0.236  0.00  0.00    -0.026 C 
ATOM      7  C   UNL     1       1.101   1.474  -0.817  0.00  0.00    -0.004 C 
ATOM      8  C   UNL     1       2.947   0.001   0.654  0.00  0.00    -0.005 C 
ATOM      9  C   UNL     1       2.284   2.073  -0.386  0.00  0.00    -0.000 C 
ATOM     10  C   UNL     1       3.207   1.336   0.349  0.00  0.00    -0.000 C 
ENDROOT
BRANCH   1  13
ATOM     11  N   UNL     1      -2.862   0.242  -0.827  0.00  0.00    -0.299 N 
ATOM     12  N   UNL     1      -1.535   0.501   1.004  0.00  0.00    -0.232 NA
ATOM     13  C   UNL     1      -1.639   0.112  -0.242  0.00  0.00    +0.113 C 
ATOM     14  C   UNL     1      -3.798   0.790   0.107  0.00  0.00    +0.084 C 
ATOM     15  C   UNL     1      -2.902   1.007   1.337  0.00  0.00    +0.116 C 
ATOM     16  H   UNL     1      -3.072  -0.004  -1.757  0.00  0.00    +0.153 HD
ENDBRANCH   1  13
TORSDOF 1
