REMARK  Name = 642409
REMARK  4 active torsions:
REMARK  status: ('A' for Active; 'I' for Inactive)
REMARK    1  A    between atoms: C_1  and  C_2
REMARK    2  A    between atoms: C_1  and  O_8
REMARK    3  A    between atoms: C_1  and  C_10
REMARK    4  A    between atoms: C_10  and  C_12
REMARK                            x       y       z     vdW  Elec       q    Type
REMARK                         _______ _______ _______ _____ _____    ______ ____
ROOT
ATOM      1  C   UNL     1       1.054   0.860   0.478  0.00  0.00    +0.134 C 
ENDROOT
BRANCH   1   2
ATOM      2  C   UNL     1      -0.308   0.302   0.240  0.00  0.00    +0.004 C 
ATOM      3  C   UNL     1      -1.291   1.092  -0.358  0.00  0.00    -0.002 C 
ATOM      4  C   UNL     1      -0.600  -1.010   0.614  0.00  0.00    -0.002 C 
ATOM      5  C   UNL     1      -2.565   0.570  -0.581  0.00  0.00    -0.000 C 
ATOM      6  C   UNL     1      -1.875  -1.532   0.390  0.00  0.00    -0.000 C 
ATOM      7  C   UNL     1      -2.857  -0.742  -0.207  0.00  0.00    -0.000 C 
ENDBRANCH   1   2
BRANCH   1   8
ATOM      8  O   UNL     1       0.940   2.273   0.707  0.00  0.00    -0.380 OA
ATOM      9  H   UNL     1       1.822   2.647   0.863  0.00  0.00    +0.211 HD
ENDBRANCH   1   8
BRANCH   1  10
ATOM     10  C   UNL     1       2.048   0.648  -0.687  0.00  0.00    +0.051 C 
BRANCH  10  12
ATOM     11 CL   UNL     1       3.074  -1.653   0.404  0.00  0.00    -0.114 Cl
ATOM     12  C   UNL     1       2.379  -0.809  -0.999  0.00  0.00    +0.098 C 
ENDBRANCH  10  12
ENDBRANCH   1  10
TORSDOF 4
