REMARK  Name = 11742
REMARK  3 active torsions:
REMARK  status: ('A' for Active; 'I' for Inactive)
REMARK    1  A    between atoms: C_1  and  C_4
REMARK    2  A    between atoms: C_1  and  C_12
REMARK    3  A    between atoms: C_9  and  O_10
REMARK                            x       y       z     vdW  Elec       q    Type
REMARK                         _______ _______ _______ _____ _____    ______ ____
ROOT
ATOM      1  C   UNL     1      -0.441   1.240   0.024  0.00  0.00    +0.038 C 
ATOM      2  C   UNL     1      -0.411   2.185   1.284  0.00  0.00    +0.009 C 
ATOM      3  C   UNL     1      -0.562   2.237  -1.181  0.00  0.00    +0.009 C 
ENDROOT
BRANCH   1   4
ATOM      4  C   UNL     1       0.946   0.515   0.042  0.00  0.00    -0.019 C 
ATOM      5  C   UNL     1       1.189  -0.340   1.071  0.00  0.00    -0.001 C 
ATOM      6  C   UNL     1       1.808   0.792  -0.972  0.00  0.00    -0.001 C 
ATOM      7  C   UNL     1       2.425  -0.986   1.087  0.00  0.00    +0.036 C 
ATOM      8  C   UNL     1       3.044   0.146  -0.955  0.00  0.00    +0.036 C 
ATOM      9  C   UNL     1       3.353  -0.743   0.074  0.00  0.00    +0.134 C 
BRANCH   9  10
ATOM     10  O   UNL     1       4.558  -1.374   0.090  0.00  0.00    -0.506 OA
ATOM     11  H   UNL     1       4.765  -1.971   0.782  0.00  0.00    +0.292 HD
ENDBRANCH   9  10
ENDBRANCH   1   4
BRANCH   1  12
ATOM     12  C   UNL     1      -1.583   0.283  -0.037  0.00  0.00    -0.019 C 
ATOM     13  C   UNL     1      -1.699  -0.597  -1.113  0.00  0.00    -0.004 C 
ATOM     14  C   UNL     1      -2.535   0.267   0.982  0.00  0.00    -0.004 C 
ATOM     15  C   UNL     1      -2.768  -1.492  -1.171  0.00  0.00    -0.000 C 
ATOM     16  C   UNL     1      -3.604  -0.628   0.925  0.00  0.00    -0.000 C 
ATOM     17  C   UNL     1      -3.720  -1.507  -0.151  0.00  0.00    -0.000 C 
ENDBRANCH   1  12
TORSDOF 3
