REMARK  Name = 449087
REMARK  3 active torsions:
REMARK  status: ('A' for Active; 'I' for Inactive)
REMARK    1  A    between atoms: C_5  and  C_11
REMARK    2  A    between atoms: C_8  and  C_14
REMARK    3  A    between atoms: C_14  and  C_15
REMARK                            x       y       z     vdW  Elec       q    Type
REMARK                         _______ _______ _______ _____ _____    ______ ____
ROOT
ATOM      1  O   UNL     1      -0.845   1.320  -1.341  0.00  0.00    -0.274 OA
ATOM      2  N   UNL     1      -4.607  -0.093   1.432  0.00  0.00    -0.239 N 
ATOM      3  N   UNL     1      -3.487   0.447   1.942  0.00  0.00    -0.166 NA
ATOM      4  N   UNL     1      -1.482   1.242   0.919  0.00  0.00    -0.268 N 
ATOM      5  C   UNL     1      -4.593  -0.210   0.073  0.00  0.00    +0.045 C 
ATOM      6  C   UNL     1      -3.381   0.290  -0.335  0.00  0.00    +0.048 C 
ATOM      7  C   UNL     1      -2.759   0.671   0.857  0.00  0.00    +0.152 C 
ATOM      8  C   UNL     1      -0.634   1.521  -0.150  0.00  0.00    +0.232 C 
ATOM      9  H   UNL     1      -5.367  -0.379   1.988  0.00  0.00    +0.174 HD
ATOM     10  H   UNL     1      -1.147   1.472   1.816  0.00  0.00    +0.156 HD
ENDROOT
BRANCH   5  11
ATOM     11  C   UNL     1      -5.701  -0.777  -0.804  0.00  0.00    +0.037 C 
ATOM     12  C   UNL     1      -5.384  -1.908  -1.751  0.00  0.00    +0.006 C 
ATOM     13  C   UNL     1      -6.218  -2.167  -0.530  0.00  0.00    +0.006 C 
ENDBRANCH   5  11
BRANCH   8  14
ATOM     14  C   UNL     1       0.670   2.145   0.341  0.00  0.00    +0.112 C 
BRANCH  14  15
ATOM     15  C   UNL     1       1.888   1.358  -0.011  0.00  0.00    -0.013 C 
ATOM     16  C   UNL     1       3.505  -0.372   0.544  0.00  0.00    -0.000 C 
ATOM     17  C   UNL     1       2.360   0.377   0.861  0.00  0.00    -0.004 C 
ATOM     18  C   UNL     1       4.179  -0.124  -0.675  0.00  0.00    -0.000 C 
ATOM     19  C   UNL     1       2.551   1.602  -1.210  0.00  0.00    -0.004 C 
ATOM     20  C   UNL     1       3.689   0.867  -1.541  0.00  0.00    -0.000 C 
ATOM     21  C   UNL     1       3.995  -1.363   1.411  0.00  0.00    -0.000 C 
ATOM     22  C   UNL     1       5.324  -0.874  -0.992  0.00  0.00    -0.000 C 
ATOM     23  C   UNL     1       5.134  -2.098   1.080  0.00  0.00    -0.000 C 
ATOM     24  C   UNL     1       5.797  -1.854  -0.119  0.00  0.00    -0.000 C 
ENDBRANCH  14  15
ENDBRANCH   8  14
TORSDOF 3
