REMARK  Name = 5287432
REMARK  8 active torsions:
REMARK  status: ('A' for Active; 'I' for Inactive)
REMARK    1  A    between atoms: C_1  and  C_18
REMARK    2  A    between atoms: C_2  and  O_7
REMARK    3  A    between atoms: C_3  and  C_10
REMARK    4  A    between atoms: C_10  and  C_11
REMARK    5  A    between atoms: C_11  and  C_12
REMARK    6  A    between atoms: C_12  and  C_14
REMARK    7  A    between atoms: C_14  and  O_15
REMARK    8  A    between atoms: C_18  and  O_19
REMARK                            x       y       z     vdW  Elec       q    Type
REMARK                         _______ _______ _______ _____ _____    ______ ____
ROOT
ATOM      1  C   UNL     1      -1.415   0.541   0.487  0.00  0.00    +0.112 C 
ATOM      2  C   UNL     1      -2.914   0.416   0.116  0.00  0.00    +0.140 C 
ATOM      3  C   UNL     1      -0.601  -0.697   0.224  0.00  0.00    +0.044 C 
ATOM      4  C   UNL     1      -3.252  -0.747  -0.777  0.00  0.00    +0.037 C 
ATOM      5  C   UNL     1      -1.053  -1.735  -0.494  0.00  0.00    +0.003 C 
ATOM      6  C   UNL     1      -2.376  -1.720  -1.065  0.00  0.00    +0.003 C 
ENDROOT
BRANCH   2   7
ATOM      7  O   UNL     1      -3.686   0.275   1.309  0.00  0.00    -0.505 OA
ATOM      8  H   UNL     1      -3.492   1.012   1.909  0.00  0.00    +0.292 HD
ENDBRANCH   2   7
BRANCH   3  10
ATOM      9  O   UNL     1       1.013  -0.237   1.857  0.00  0.00    -0.291 OA
ATOM     10  C   UNL     1       0.743  -0.811   0.801  0.00  0.00    +0.174 C 
BRANCH  10  11
ATOM     11  C   UNL     1       1.743  -1.666   0.034  0.00  0.00    +0.081 C 
BRANCH  11  12
ATOM     12  C   UNL     1       3.190  -1.222   0.210  0.00  0.00    +0.117 C 
BRANCH  12  14
ATOM     13  O   UNL     1       2.758   0.653  -1.251  0.00  0.00    -0.250 OA
ATOM     14  C   UNL     1       3.405   0.170  -0.331  0.00  0.00    +0.314 C 
BRANCH  14  15
ATOM     15  O   UNL     1       4.381   0.841   0.327  0.00  0.00    -0.480 OA
ATOM     16  H   UNL     1       4.847   0.425   1.025  0.00  0.00    +0.295 HD
ENDBRANCH  14  15
ENDBRANCH  12  14
ENDBRANCH  11  12
ENDBRANCH  10  11
ENDBRANCH   3  10
BRANCH   1  18
ATOM     17  O   UNL     1      -0.253   1.477  -1.419  0.00  0.00    -0.245 OA
ATOM     18  C   UNL     1      -0.789   1.634  -0.331  0.00  0.00    +0.341 C 
BRANCH  18  19
ATOM     19  O   UNL     1      -0.894   2.828   0.302  0.00  0.00    -0.477 OA
ATOM     20  H   UNL     1      -1.318   2.879   1.137  0.00  0.00    +0.295 HD
ENDBRANCH  18  19
ENDBRANCH   1  18
TORSDOF 8
