REMARK  Name = 23648971
REMARK  8 active torsions:
REMARK  status: ('A' for Active; 'I' for Inactive)
REMARK    1  A    between atoms: N_2  and  C_15
REMARK    2  A    between atoms: N_3  and  C_28
REMARK    3  A    between atoms: C_12  and  S_19
REMARK    4  A    between atoms: S_19  and  N_23
REMARK    5  A    between atoms: C_24  and  C_26
REMARK    6  A    between atoms: C_31  and  O_34
REMARK    7  A    between atoms: O_34  and  C_35
REMARK    8  A    between atoms: C_35  and  C_36
REMARK                            x       y       z     vdW  Elec       q    Type
REMARK                         _______ _______ _______ _____ _____    ______ ____
ROOT
ATOM      1  F   UNL     1       3.340   4.708   1.198  0.00  0.00    -0.198 F 
ATOM      2  N   UNL     1      -1.253   3.109  -1.226  0.00  0.00    -0.247 N 
ATOM      3  N   UNL     1       2.746   2.016   1.042  0.00  0.00    -0.285 N 
ATOM      4  N   UNL     1       0.728   2.546  -0.102  0.00  0.00    -0.320 NA
ATOM      5  N   UNL     1       0.173   4.847  -0.554  0.00  0.00    -0.167 NA
ATOM      6  C   UNL     1      -0.061   3.520  -0.599  0.00  0.00    +0.150 C 
ATOM      7  C   UNL     1       1.860   2.975   0.493  0.00  0.00    +0.226 C 
ATOM      8  C   UNL     1       2.212   4.304   0.603  0.00  0.00    +0.205 C 
ATOM      9  C   UNL     1       1.322   5.205   0.056  0.00  0.00    +0.145 C 
ATOM     10  H   UNL     1      -1.796   3.854  -1.572  0.00  0.00    +0.165 HD
ATOM     11  H   UNL     1       3.255   2.344   1.818  0.00  0.00    +0.155 HD
ENDROOT
BRANCH   2  15
ATOM     12  C   UNL     1      -2.146  -0.450  -0.807  0.00  0.00    +0.123 C 
ATOM     13  C   UNL     1      -2.950  -0.671  -1.915  0.00  0.00    -0.003 C 
ATOM     14  C   UNL     1      -1.579   0.793  -0.568  0.00  0.00    +0.035 C 
ATOM     15  C   UNL     1      -1.823   1.839  -1.458  0.00  0.00    +0.059 C 
ATOM     16  C   UNL     1      -3.193   0.375  -2.805  0.00  0.00    -0.002 C 
ATOM     17  C   UNL     1      -2.629   1.630  -2.576  0.00  0.00    +0.015 C 
ATOM     18  C   UNL     1      -3.570  -2.003  -2.188  0.00  0.00    +0.032 C 
BRANCH  12  19
ATOM     19  S   UNL     1      -1.819  -1.753   0.341  0.00  0.00    +0.075 S 
ATOM     20  O   UNL     1      -0.879  -1.228   1.313  0.00  0.00    -0.150 OA
ATOM     21  O   UNL     1      -1.506  -2.952  -0.413  0.00  0.00    -0.150 OA
BRANCH  19  23
ATOM     22  O   UNL     1      -3.228  -0.186   2.641  0.00  0.00    -0.274 OA
ATOM     23  N   UNL     1      -3.352  -1.932   1.077  0.00  0.00    -0.185 N 
ATOM     24  C   UNL     1      -3.845  -1.128   2.154  0.00  0.00    +0.241 C 
ATOM     25  H   UNL     1      -3.941  -2.642   0.733  0.00  0.00    +0.177 HD
BRANCH  24  26
ATOM     26  C   UNL     1      -5.196  -1.561   2.670  0.00  0.00    +0.087 C 
ATOM     27  C   UNL     1      -6.306  -0.894   1.880  0.00  0.00    +0.010 C 
ENDBRANCH  24  26
ENDBRANCH  19  23
ENDBRANCH  12  19
ENDBRANCH   2  15
BRANCH   3  28
ATOM     28  C   UNL     1       3.038   0.687   0.695  0.00  0.00    +0.050 C 
ATOM     29  C   UNL     1       3.979  -0.041   1.428  0.00  0.00    +0.018 C 
ATOM     30  C   UNL     1       2.391   0.084  -0.388  0.00  0.00    +0.018 C 
ATOM     31  C   UNL     1       3.622  -1.958   0.001  0.00  0.00    +0.140 C 
ATOM     32  C   UNL     1       4.270  -1.361   1.082  0.00  0.00    +0.038 C 
ATOM     33  C   UNL     1       2.682  -1.236  -0.733  0.00  0.00    +0.038 C 
BRANCH  31  34
ATOM     34  O   UNL     1       3.906  -3.245  -0.336  0.00  0.00    -0.461 OA
BRANCH  34  35
ATOM     35  C   UNL     1       2.859  -4.007  -0.935  0.00  0.00    +0.282 C 
BRANCH  35  36
ATOM     36  C   UNL     1       3.033  -5.431  -0.651  0.00  0.00    -0.031 C 
ATOM     37  C   UNL     1       3.175  -6.601  -0.420  0.00  0.00    -0.010 C 
ENDBRANCH  35  36
ENDBRANCH  34  35
ENDBRANCH  31  34
ENDBRANCH   3  28
TORSDOF 8
