REMARK  Name = 11569967
REMARK  4 active torsions:
REMARK  status: ('A' for Active; 'I' for Inactive)
REMARK    1  A    between atoms: N_2  and  C_14
REMARK    2  A    between atoms: N_5  and  C_26
REMARK    3  A    between atoms: C_15  and  C_21
REMARK    4  A    between atoms: C_24  and  N_31
REMARK                            x       y       z     vdW  Elec       q    Type
REMARK                         _______ _______ _______ _____ _____    ______ ____
ROOT
ATOM      1  F   UNL     1       5.652   1.552   0.592  0.00  0.00    -0.198 F 
ATOM      2  N   UNL     1       3.646  -0.345   0.662  0.00  0.00    -0.307 N 
ATOM      3  N   UNL     1       2.034   1.373   0.326  0.00  0.00    -0.320 NA
ATOM      4  N   UNL     1       2.749   3.664   0.107  0.00  0.00    -0.167 NA
ATOM      5  N   UNL     1       0.475   3.095  -0.004  0.00  0.00    -0.247 N 
ATOM      6  C   UNL     1       3.336   0.992   0.476  0.00  0.00    +0.222 C 
ATOM      7  C   UNL     1       4.375   1.921   0.446  0.00  0.00    +0.204 C 
ATOM      8  C   UNL     1       1.819   2.690   0.150  0.00  0.00    +0.150 C 
ATOM      9  C   UNL     1       4.021   3.242   0.259  0.00  0.00    +0.145 C 
ATOM     10  H   UNL     1       4.593  -0.592   0.768  0.00  0.00    +0.149 HD
ATOM     11  H   UNL     1       0.366   4.065  -0.129  0.00  0.00    +0.165 HD
ENDROOT
BRANCH   2  14
ATOM     12  C   UNL     1       3.249  -2.676   1.360  0.00  0.00    +0.018 C 
ATOM     13  C   UNL     1       2.636  -3.400  -0.667  0.00  0.00    +0.010 C 
ATOM     14  C   UNL     1       2.657  -1.398   0.711  0.00  0.00    +0.080 C 
ATOM     15  C   UNL     1       2.225  -1.905  -0.703  0.00  0.00    +0.094 C 
ATOM     16  C   UNL     1       3.924  -3.357   0.164  0.00  0.00    +0.002 C 
ATOM     17  C   UNL     1       2.112  -3.655   1.558  0.00  0.00    +0.002 C 
ATOM     18  C   UNL     1       1.746  -4.090   0.343  0.00  0.00    +0.001 C 
BRANCH  15  21
ATOM     19  O   UNL     1       3.950  -1.545  -2.320  0.00  0.00    -0.275 OA
ATOM     20  N   UNL     1       2.144  -0.119  -2.318  0.00  0.00    -0.329 N 
ATOM     21  C   UNL     1       2.868  -1.193  -1.857  0.00  0.00    +0.221 C 
ATOM     22  H   UNL     1       2.482   0.414  -3.073  0.00  0.00    +0.145 HD
ATOM     23  H   UNL     1       1.289   0.117  -1.892  0.00  0.00    +0.145 HD
ENDBRANCH  15  21
ENDBRANCH   2  14
BRANCH   5  26
ATOM     24  C   UNL     1      -3.148   0.970  -0.032  0.00  0.00    +0.044 C 
ATOM     25  C   UNL     1      -2.070   0.501   0.719  0.00  0.00    -0.007 C 
ATOM     26  C   UNL     1      -0.739   2.383  -0.013  0.00  0.00    +0.057 C 
ATOM     27  C   UNL     1      -3.023   2.145  -0.773  0.00  0.00    +0.015 C 
ATOM     28  C   UNL     1      -0.867   1.206   0.728  0.00  0.00    +0.012 C 
ATOM     29  C   UNL     1      -1.819   2.851  -0.763  0.00  0.00    +0.016 C 
ATOM     30  C   UNL     1      -2.177  -0.755   1.522  0.00  0.00    +0.032 C 
BRANCH  24  31
ATOM     31  N   UNL     1      -4.362   0.274  -0.053  0.00  0.00    -0.312 N 
ATOM     32  N   UNL     1      -6.921  -0.975  -0.276  0.00  0.00    +0.388 N 
ATOM     33  C   UNL     1      -4.586  -0.766  -1.062  0.00  0.00    +0.068 C 
ATOM     34  C   UNL     1      -5.565   0.971   0.419  0.00  0.00    +0.068 C 
ATOM     35  C   UNL     1      -5.700  -1.716  -0.616  0.00  0.00    -0.056 C 
ATOM     36  C   UNL     1      -6.647  -0.035   0.818  0.00  0.00    -0.056 C 
ATOM     37  C   UNL     1      -7.994  -1.897   0.097  0.00  0.00    -0.101 C 
ATOM     38  H   UNL     1      -7.225  -0.448  -1.094  0.00  0.00    -0.080 HD
ENDBRANCH  24  31
ENDBRANCH   5  26
TORSDOF 4
