REMARK  Name = 84894
REMARK  3 active torsions:
REMARK  status: ('A' for Active; 'I' for Inactive)
REMARK    1  A    between atoms: C_5  and  C_13
REMARK    2  A    between atoms: C_13  and  O_14
REMARK    3  A    between atoms: O_14  and  C_15
REMARK                            x       y       z     vdW  Elec       q    Type
REMARK                         _______ _______ _______ _____ _____    ______ ____
ROOT
ATOM      1  O   UNL     1      -0.241  -1.865   0.552  0.00  0.00    -0.269 OA
ATOM      2  N   UNL     1       1.916  -1.144   0.146  0.00  0.00    -0.254 N 
ATOM      3  N   UNL     1       2.396   1.113  -0.324  0.00  0.00    -0.216 NA
ATOM      4  N   UNL     1       4.120  -0.476  -0.257  0.00  0.00    -0.331 N 
ATOM      5  C   UNL     1       0.115   0.434   0.090  0.00  0.00    +0.148 C 
ATOM      6  C   UNL     1       0.552  -0.968   0.288  0.00  0.00    +0.259 C 
ATOM      7  C   UNL     1       1.051   1.350  -0.195  0.00  0.00    +0.113 C 
ATOM      8  C   UNL     1       2.802  -0.115  -0.153  0.00  0.00    +0.185 C 
ATOM      9  H   UNL     1       2.281  -2.050   0.264  0.00  0.00    +0.158 HD
ATOM     10  H   UNL     1       4.385  -1.415  -0.121  0.00  0.00    +0.145 HD
ATOM     11  H   UNL     1       4.801   0.202  -0.467  0.00  0.00    +0.145 HD
ENDROOT
BRANCH   5  13
ATOM     12  O   UNL     1      -1.618   1.985   0.551  0.00  0.00    -0.245 OA
ATOM     13  C   UNL     1      -1.279   0.868   0.190  0.00  0.00    +0.347 C 
BRANCH  13  14
ATOM     14  O   UNL     1      -2.083  -0.162  -0.180  0.00  0.00    -0.445 OA
BRANCH  14  15
ATOM     15  C   UNL     1      -3.488   0.109  -0.136  0.00  0.00    +0.209 C 
ATOM     16  C   UNL     1      -4.243  -1.128  -0.574  0.00  0.00    +0.051 C 
ENDBRANCH  14  15
ENDBRANCH  13  14
ENDBRANCH   5  13
TORSDOF 3
