REMARK  Name = 670006
REMARK  4 active torsions:
REMARK  status: ('A' for Active; 'I' for Inactive)
REMARK    1  A    between atoms: N_2  and  C_6
REMARK    2  A    between atoms: C_3  and  C_11
REMARK    3  A    between atoms: C_11  and  C_12
REMARK    4  A    between atoms: C_11  and  C_18
REMARK                            x       y       z     vdW  Elec       q    Type
REMARK                         _______ _______ _______ _____ _____    ______ ____
ROOT
ATOM      1  O   UNL     1       0.068  -0.504  -1.474  0.00  0.00    -0.274 OA
ATOM      2  N   UNL     1       1.107  -0.309   0.622  0.00  0.00    -0.284 N 
ATOM      3  C   UNL     1       0.055  -0.585  -0.249  0.00  0.00    +0.230 C 
ATOM      4  H   UNL     1       0.916  -0.417   1.581  0.00  0.00    +0.155 HD
ENDROOT
BRANCH   2   6
ATOM      5  N   UNL     1       4.986   0.927  -0.368  0.00  0.00    -0.242 NA
ATOM      6  C   UNL     1       2.417   0.108   0.288  0.00  0.00    +0.053 C 
ATOM      7  C   UNL     1       3.334   0.335   1.295  0.00  0.00    +0.035 C 
ATOM      8  C   UNL     1       2.756   0.281  -1.040  0.00  0.00    +0.035 C 
ATOM      9  C   UNL     1       4.602   0.743   0.916  0.00  0.00    +0.100 C 
ATOM     10  C   UNL     1       4.051   0.691  -1.314  0.00  0.00    +0.100 C 
ENDBRANCH   2   6
BRANCH   3  11
ATOM     11  C   UNL     1      -1.208  -1.010   0.516  0.00  0.00    +0.099 C 
BRANCH  11  12
ATOM     12  C   UNL     1      -2.333  -0.020   0.265  0.00  0.00    -0.014 C 
ATOM     13  C   UNL     1      -2.469   1.066   1.107  0.00  0.00    -0.004 C 
ATOM     14  C   UNL     1      -3.187  -0.234  -0.799  0.00  0.00    -0.004 C 
ATOM     15  C   UNL     1      -3.502   1.975   0.877  0.00  0.00    -0.000 C 
ATOM     16  C   UNL     1      -4.220   0.676  -1.029  0.00  0.00    -0.000 C 
ATOM     17  C   UNL     1      -4.377   1.780  -0.191  0.00  0.00    -0.000 C 
ENDBRANCH  11  12
BRANCH  11  18
ATOM     18  C   UNL     1      -1.600  -2.459   0.162  0.00  0.00    +0.013 C 
ATOM     19  C   UNL     1      -0.480  -3.460   0.416  0.00  0.00    +0.001 C 
ENDBRANCH  11  18
ENDBRANCH   3  11
TORSDOF 4
