REMARK  Name = 9841834
REMARK  5 active torsions:
REMARK  status: ('A' for Active; 'I' for Inactive)
REMARK    1  A    between atoms: N_3  and  C_22
REMARK    2  A    between atoms: N_3  and  O_23
REMARK    3  A    between atoms: O_23  and  C_24
REMARK    4  A    between atoms: C_24  and  C_25
REMARK    5  A    between atoms: C_25  and  N_26
REMARK                            x       y       z     vdW  Elec       q    Type
REMARK                         _______ _______ _______ _____ _____    ______ ____
ROOT
ATOM      1  O   UNL     1      -0.053  -3.538   0.131  0.00  0.00    -0.296 OA
ATOM      2  O   UNL     1       5.872   2.179  -0.711  0.00  0.00    -0.296 OA
ATOM      3  C   UNL     1       1.015   0.411   0.078  0.00  0.00    +0.001 C 
ATOM      4  C   UNL     1       2.071  -0.744   0.015  0.00  0.00    +0.008 C 
ATOM      5  C   UNL     1       3.339  -0.198  -0.647  0.00  0.00    +0.007 C 
ATOM      6  C   UNL     1      -0.345  -0.070   0.717  0.00  0.00    +0.007 C 
ATOM      7  C   UNL     1       3.949   0.967   0.158  0.00  0.00    +0.052 C 
ATOM      8  C   UNL     1       1.597   1.706   0.709  0.00  0.00    +0.000 C 
ATOM      9  C   UNL     1      -0.865  -1.271  -0.132  0.00  0.00    +0.059 C 
ATOM     10  C   UNL     1       2.959   2.126   0.124  0.00  0.00    +0.007 C 
ATOM     11  C   UNL     1       1.528  -1.963  -0.736  0.00  0.00    +0.064 C 
ATOM     12  C   UNL     1       4.518  -1.127  -0.913  0.00  0.00    +0.008 C 
ATOM     13  C   UNL     1      -1.414   1.062   0.632  0.00  0.00    +0.002 C 
ATOM     14  C   UNL     1       0.182  -2.373  -0.184  0.00  0.00    +0.150 C 
ATOM     15  C   UNL     1       5.227   1.141  -0.644  0.00  0.00    +0.150 C 
ATOM     16  C   UNL     1       5.629  -0.153  -1.332  0.00  0.00    +0.064 C 
ATOM     17  C   UNL     1      -0.154  -0.466   2.203  0.00  0.00    +0.000 C 
ATOM     18  C   UNL     1      -2.236  -1.787   0.308  0.00  0.00    +0.027 C 
ATOM     19  C   UNL     1       4.378   0.638   1.600  0.00  0.00    +0.007 C 
ATOM     20  C   UNL     1      -2.823   0.621   1.032  0.00  0.00    +0.020 C 
ATOM     21  C   UNL     1      -3.211  -0.637   0.298  0.00  0.00    +0.103 C 
ENDROOT
BRANCH  21  22
ATOM     22  N   UNL     1      -4.364  -0.720  -0.280  0.00  0.00    -0.085 NA
BRANCH  22  23
ATOM     23  O   UNL     1      -5.047   0.485  -0.073  0.00  0.00    -0.269 OA
BRANCH  23  24
ATOM     24  C   UNL     1      -6.312   0.386  -0.710  0.00  0.00    +0.145 C 
BRANCH  24  25
ATOM     25  C   UNL     1      -7.070   1.687  -0.495  0.00  0.00    -0.051 C 
BRANCH  25  26
ATOM     26  N   UNL     1      -8.370   1.638  -1.148  0.00  0.00    +0.382 N 
ATOM     27  H   UNL     1      -8.861   2.518  -0.993  0.00  0.00    -0.089 HD
ATOM     28  H   UNL     1      -8.916   0.870  -0.760  0.00  0.00    -0.089 HD
ATOM     29  H   UNL     1      -8.242   1.492  -2.150  0.00  0.00    -0.089 HD
ENDBRANCH  25  26
ENDBRANCH  24  25
ENDBRANCH  23  24
ENDBRANCH  22  23
ENDBRANCH  21  22
TORSDOF 5
