REMARK  Name = 54690031
REMARK  2 active torsions:
REMARK  status: ('A' for Active; 'I' for Inactive)
REMARK    1  A    between atoms: C_8  and  C_16
REMARK    2  A    between atoms: C_10  and  O_24
REMARK                            x       y       z     vdW  Elec       q    Type
REMARK                         _______ _______ _______ _____ _____    ______ ____
ROOT
ATOM      1 CL   UNL     1      -6.317  -1.876   0.526  0.00  0.00    -0.075 Cl
ATOM      2  S   UNL     1      -2.175   1.794   0.299  0.00  0.00    +0.077 S 
ATOM      3  S   UNL     1      -3.438  -2.151  -0.146  0.00  0.00    -0.071 S 
ATOM      4  O   UNL     1      -2.996   2.716  -0.460  0.00  0.00    -0.150 OA
ATOM      5  O   UNL     1      -1.934   1.966   1.717  0.00  0.00    -0.150 OA
ATOM      6  N   UNL     1      -0.698   1.520  -0.521  0.00  0.00    -0.181 N 
ATOM      7  C   UNL     1      -3.035   0.324   0.214  0.00  0.00    +0.136 C 
ATOM      8  C   UNL     1      -0.163   0.171  -0.585  0.00  0.00    +0.156 C 
ATOM      9  C   UNL     1      -2.349  -0.814  -0.135  0.00  0.00    +0.084 C 
ATOM     10  C   UNL     1      -0.956  -0.917  -0.438  0.00  0.00    +0.160 C 
ATOM     11  C   UNL     1      -4.410   0.143   0.484  0.00  0.00    +0.039 C 
ATOM     12  C   UNL     1       0.190   2.699  -0.672  0.00  0.00    +0.139 C 
ATOM     13  C   UNL     1      -4.767  -1.175   0.320  0.00  0.00    +0.088 C 
ENDROOT
BRANCH   8  16
ATOM     14  O   UNL     1       1.648  -0.035  -2.046  0.00  0.00    -0.268 OA
ATOM     15  N   UNL     1       2.033  -0.057   0.277  0.00  0.00    -0.265 N 
ATOM     16  C   UNL     1       1.273   0.015  -0.879  0.00  0.00    +0.269 C 
ATOM     17  H   UNL     1       1.541   0.003   1.127  0.00  0.00    +0.157 HD
ATOM     18  N   UNL     1       3.998  -0.257   1.603  0.00  0.00    -0.229 NA
ATOM     19  C   UNL     1       3.438  -0.207   0.373  0.00  0.00    +0.134 C 
ATOM     20  C   UNL     1       4.154  -0.294  -0.810  0.00  0.00    +0.034 C 
ATOM     21  C   UNL     1       5.534  -0.442  -0.726  0.00  0.00    +0.004 C 
ATOM     22  C   UNL     1       5.342  -0.401   1.644  0.00  0.00    +0.100 C 
ATOM     23  C   UNL     1       6.147  -0.497   0.521  0.00  0.00    +0.021 C 
ENDBRANCH   8  16
BRANCH  10  24
ATOM     24  O   UNL     1      -0.520  -2.223  -0.561  0.00  0.00    -0.504 OA
ATOM     25  H   UNL     1       0.378  -2.401  -0.759  0.00  0.00    +0.292 HD
ENDBRANCH  10  24
TORSDOF 2
