REMARK  Name = 1117937
REMARK  7 active torsions:
REMARK  status: ('A' for Active; 'I' for Inactive)
REMARK    1  A    between atoms: C_2  and  S_22
REMARK    2  A    between atoms: C_3  and  C_10
REMARK    3  A    between atoms: N_9  and  C_19
REMARK    4  A    between atoms: C_18  and  C_21
REMARK    5  A    between atoms: S_22  and  N_25
REMARK    6  A    between atoms: N_25  and  C_26
REMARK    7  A    between atoms: N_25  and  C_28
REMARK                            x       y       z     vdW  Elec       q    Type
REMARK                         _______ _______ _______ _____ _____    ______ ____
ROOT
ATOM      1 CL   UNL     1      -0.375   3.945  -1.640  0.00  0.00    -0.082 Cl
ATOM      2  C   UNL     1      -2.986   0.893   0.425  0.00  0.00    +0.122 C 
ATOM      3  C   UNL     1      -0.815   1.794  -0.020  0.00  0.00    +0.066 C 
ATOM      4  C   UNL     1      -1.605   0.856   0.617  0.00  0.00    +0.025 C 
ATOM      5  C   UNL     1      -3.549   1.867  -0.399  0.00  0.00    +0.021 C 
ATOM      6  C   UNL     1      -1.351   2.767  -0.839  0.00  0.00    +0.062 C 
ATOM      7  C   UNL     1      -2.732   2.804  -1.031  0.00  0.00    +0.013 C 
ENDROOT
BRANCH   3  10
ATOM      8  O   UNL     1       1.201   2.688   0.719  0.00  0.00    -0.270 OA
ATOM      9  N   UNL     1       1.278   0.498  -0.150  0.00  0.00    -0.275 N 
ATOM     10  C   UNL     1       0.650   1.716   0.215  0.00  0.00    +0.251 C 
ATOM     11  H   UNL     1       0.687  -0.183  -0.545  0.00  0.00    +0.156 HD
BRANCH   9  19
ATOM     12  S   UNL     1       3.645   1.329   0.666  0.00  0.00    -0.076 S 
ATOM     13  C   UNL     1       6.992  -0.782   0.107  0.00  0.00    +0.010 C 
ATOM     14  C   UNL     1       5.828  -1.791  -0.151  0.00  0.00    +0.028 C 
ATOM     15  C   UNL     1       6.375   0.439   0.859  0.00  0.00    +0.033 C 
ATOM     16  C   UNL     1       4.631  -0.922  -0.045  0.00  0.00    -0.009 A 
ATOM     17  C   UNL     1       4.944   0.288   0.508  0.00  0.00    +0.005 A 
ATOM     18  C   UNL     1       3.262  -1.026  -0.365  0.00  0.00    +0.084 A 
ATOM     19  C   UNL     1       2.594   0.141  -0.028  0.00  0.00    +0.090 A 
BRANCH  18  21
ATOM     20  N   UNL     1       2.115  -3.095  -1.427  0.00  0.00    -0.191 NA
ATOM     21  C   UNL     1       2.630  -2.165  -0.950  0.00  0.00    +0.102 C 
ENDBRANCH  18  21
ENDBRANCH   9  19
ENDBRANCH   3  10
BRANCH   2  22
ATOM     22  S   UNL     1      -4.010  -0.280   1.215  0.00  0.00    +0.063 S 
ATOM     23  O   UNL     1      -3.323  -0.750   2.414  0.00  0.00    -0.153 OA
ATOM     24  O   UNL     1      -5.340   0.301   1.359  0.00  0.00    -0.153 OA
BRANCH  22  25
ATOM     25  N   UNL     1      -4.088  -1.578   0.074  0.00  0.00    -0.156 NA
BRANCH  25  26
ATOM     26  C   UNL     1      -4.647  -1.279  -1.269  0.00  0.00    +0.096 C 
ATOM     27  C   UNL     1      -5.290  -2.525  -1.844  0.00  0.00    +0.021 C 
ENDBRANCH  25  26
BRANCH  25  28
ATOM     28  C   UNL     1      -2.924  -2.497  -0.001  0.00  0.00    +0.096 C 
ATOM     29  C   UNL     1      -3.107  -3.635   0.983  0.00  0.00    +0.021 C 
ENDBRANCH  25  28
ENDBRANCH  22  25
ENDBRANCH   2  22
TORSDOF 7
