REMARK  Name = 5327160
REMARK  3 active torsions:
REMARK  status: ('A' for Active; 'I' for Inactive)
REMARK    1  A    between atoms: C_5  and  C_12
REMARK    2  A    between atoms: C_8  and  C_19
REMARK    3  A    between atoms: C_19  and  O_20
REMARK                            x       y       z     vdW  Elec       q    Type
REMARK                         _______ _______ _______ _____ _____    ______ ____
ROOT
ATOM      1  O   UNL     1      -0.153  -0.001   0.760  0.00  0.00    -0.425 OA
ATOM      2  N   UNL     1      -0.377  -0.001  -1.496  0.00  0.00    -0.368 NA
ATOM      3  C   UNL     1       1.098  -0.001   0.212  0.00  0.00    +0.174 C 
ATOM      4  C   UNL     1       0.957  -0.001  -1.168  0.00  0.00    +0.151 C 
ATOM      5  C   UNL     1      -0.977  -0.001  -0.325  0.00  0.00    +0.283 C 
ATOM      6  C   UNL     1       2.315   0.000   0.883  0.00  0.00    +0.046 C 
ATOM      7  C   UNL     1       2.109   0.000  -1.967  0.00  0.00    +0.088 C 
ATOM      8  C   UNL     1       3.454   0.000   0.071  0.00  0.00    +0.075 C 
ATOM      9  C   UNL     1       3.356   0.000  -1.326  0.00  0.00    -0.012 C 
ENDROOT
BRANCH   5  12
ATOM     10 CL   UNL     1      -2.293  -2.741  -0.042  0.00  0.00    -0.082 Cl
ATOM     11 CL   UNL     1      -2.288   2.740  -0.043  0.00  0.00    -0.082 Cl
ATOM     12  C   UNL     1      -2.381   0.000  -0.024  0.00  0.00    +0.087 C 
ATOM     13  C   UNL     1      -3.079  -1.208   0.124  0.00  0.00    +0.064 C 
ATOM     14  C   UNL     1      -3.076   1.208   0.124  0.00  0.00    +0.064 C 
ATOM     15  C   UNL     1      -4.443  -1.206   0.415  0.00  0.00    +0.012 C 
ATOM     16  C   UNL     1      -4.441   1.210   0.415  0.00  0.00    +0.012 C 
ATOM     17  C   UNL     1      -5.124   0.002   0.561  0.00  0.00    +0.002 C 
ENDBRANCH   5  12
BRANCH   8  19
ATOM     18  O   UNL     1       5.830   0.001   0.073  0.00  0.00    -0.245 OA
ATOM     19  C   UNL     1       4.769   0.000   0.694  0.00  0.00    +0.338 C 
BRANCH  19  20
ATOM     20  O   UNL     1       4.743   0.000   2.058  0.00  0.00    -0.477 OA
ATOM     21  H   UNL     1       3.922   0.000   2.510  0.00  0.00    +0.295 HD
ENDBRANCH  19  20
ENDBRANCH   8  19
TORSDOF 3
