REMARK  Name = 9932888
REMARK  3 active torsions:
REMARK  status: ('A' for Active; 'I' for Inactive)
REMARK    1  A    between atoms: C_7  and  O_32
REMARK    2  A    between atoms: C_7  and  C_34
REMARK    3  A    between atoms: C_34  and  O_35
REMARK                            x       y       z     vdW  Elec       q    Type
REMARK                         _______ _______ _______ _____ _____    ______ ____
ROOT
ATOM      1  O   UNL     1      -1.081  -1.928  -1.665  0.00  0.00    -0.319 OA
ATOM      2  O   UNL     1       4.287   2.588   0.356  0.00  0.00    -0.270 OA
ATOM      3  N   UNL     1      -1.727  -0.080  -0.465  0.00  0.00    -0.305 N 
ATOM      4  N   UNL     1       0.847  -1.598  -0.446  0.00  0.00    -0.304 N 
ATOM      5  N   UNL     1       2.530   4.136   0.383  0.00  0.00    -0.297 N 
ATOM      6  C   UNL     1      -2.092  -1.462  -0.742  0.00  0.00    +0.190 C 
ATOM      7  C   UNL     1      -1.994  -2.375   0.526  0.00  0.00    +0.160 C 
ATOM      8  C   UNL     1      -0.095  -2.589  -0.899  0.00  0.00    +0.209 C 
ATOM      9  C   UNL     1      -0.845  -3.320   0.196  0.00  0.00    +0.088 C 
ATOM     10  C   UNL     1      -0.477   0.486  -0.325  0.00  0.00    +0.077 A 
ATOM     11  C   UNL     1       0.751  -0.242  -0.299  0.00  0.00    +0.078 A 
ATOM     12  C   UNL     1      -0.336   1.906  -0.121  0.00  0.00    +0.016 A 
ATOM     13  C   UNL     1      -3.365  -1.650  -1.581  0.00  0.00    +0.057 C 
ATOM     14  C   UNL     1       1.941   0.553  -0.066  0.00  0.00    +0.023 A 
ATOM     15  C   UNL     1      -2.554   1.025  -0.223  0.00  0.00    +0.062 A 
ATOM     16  C   UNL     1       2.207  -1.816  -0.236  0.00  0.00    +0.062 A 
ATOM     17  C   UNL     1      -1.763   2.212  -0.097  0.00  0.00    +0.017 A 
ATOM     18  C   UNL     1       0.822   2.663   0.038  0.00  0.00    +0.003 A 
ATOM     19  C   UNL     1       2.006   1.938   0.070  0.00  0.00    +0.053 A 
ATOM     20  C   UNL     1       2.882  -0.575  -0.026  0.00  0.00    +0.017 A 
ATOM     21  C   UNL     1       1.088   4.115   0.249  0.00  0.00    +0.117 C 
ATOM     22  C   UNL     1      -3.954   1.109  -0.082  0.00  0.00    +0.017 C 
ATOM     23  C   UNL     1       3.107   2.873   0.284  0.00  0.00    +0.246 C 
ATOM     24  C   UNL     1       2.909  -3.039  -0.229  0.00  0.00    +0.017 C 
ATOM     25  C   UNL     1      -2.428   3.450   0.091  0.00  0.00    +0.001 C 
ATOM     26  C   UNL     1       4.282  -0.630   0.189  0.00  0.00    +0.001 C 
ATOM     27  C   UNL     1      -4.568   2.350   0.110  0.00  0.00    +0.001 C 
ATOM     28  C   UNL     1      -3.818   3.510   0.182  0.00  0.00    +0.000 C 
ATOM     29  C   UNL     1       4.286  -3.039  -0.013  0.00  0.00    +0.001 C 
ATOM     30  C   UNL     1       4.966  -1.850   0.193  0.00  0.00    +0.000 C 
ATOM     31  H   UNL     1       3.049   4.959   0.528  0.00  0.00    +0.150 HD
ENDROOT
BRANCH   7  32
ATOM     32  O   UNL     1      -1.602  -1.633   1.688  0.00  0.00    -0.380 OA
ATOM     33  H   UNL     1      -0.801  -1.123   1.491  0.00  0.00    +0.211 HD
ENDBRANCH   7  32
BRANCH   7  34
ATOM     34  C   UNL     1      -3.255  -3.147   0.915  0.00  0.00    +0.168 C 
BRANCH  34  35
ATOM     35  O   UNL     1      -2.955  -3.941   2.045  0.00  0.00    -0.379 OA
ATOM     36  H   UNL     1      -3.744  -4.440   2.308  0.00  0.00    +0.211 HD
ENDBRANCH  34  35
ENDBRANCH   7  34
TORSDOF 3
