10182969
  -OEChem-10051720503D

 59 63  0     0  0  0  0  0  0999 V2000
    0.6539   -0.7935   -0.0443 O   0  0  0  0  0  0  0  0  0  0  0  0
   -5.2901   -2.3943    0.0792 O   0  0  0  0  0  0  0  0  0  0  0  0
    4.2415    4.7044    0.3809 O   0  0  0  0  0  0  0  0  0  0  0  0
    4.2176   -5.1098   -0.4262 O   0  0  0  0  0  0  0  0  0  0  0  0
   -0.2018    1.4032   -0.1468 N   0  0  0  0  0  0  0  0  0  0  0  0
   -5.6743   -0.0783    0.0162 N   0  0  0  0  0  0  0  0  0  0  0  0
    3.3615    0.3416   -0.0085 N   0  0  0  0  0  0  0  0  0  0  0  0
    4.4199    1.1707    0.0724 N   0  0  0  0  0  0  0  0  0  0  0  0
    6.0746    3.3533    0.2808 N   0  0  0  0  0  0  0  0  0  0  0  0
    1.3993    3.3431    0.2047 C   0  0  0  0  0  0  0  0  0  0  0  0
    0.1326    2.8147   -0.4920 C   0  0  0  0  0  0  0  0  0  0  0  0
    2.4574    2.3219    0.1260 C   0  0  0  0  0  0  0  0  0  0  0  0
    2.1584    0.9858    0.0121 C   0  0  0  0  0  0  0  0  0  0  0  0
   -6.6672    0.9607   -0.3063 C   0  0  0  0  0  0  0  0  0  0  0  0
   -8.0527    0.6974    0.2592 C   0  0  0  0  0  0  0  0  0  0  0  0
   -8.4842   -0.7032   -0.1155 C   0  0  0  0  0  0  0  0  0  0  0  0
   -7.5097   -1.6904    0.4887 C   0  0  0  0  0  0  0  0  0  0  0  0
    0.8300    0.4224   -0.0521 C   0  0  0  0  0  0  0  0  0  0  0  0
   -1.5934    1.0267   -0.1047 C   0  0  0  0  0  0  0  0  0  0  0  0
   -4.2785    0.2995   -0.0253 C   0  0  0  0  0  0  0  0  0  0  0  0
   -6.0521   -1.4263    0.1524 C   0  0  0  0  0  0  0  0  0  0  0  0
    3.8595    2.3819    0.1573 C   0  0  0  0  0  0  0  0  0  0  0  0
   -1.9831   -0.0981    0.6158 C   0  0  0  0  0  0  0  0  0  0  0  0
   -2.5362    1.7907   -0.7855 C   0  0  0  0  0  0  0  0  0  0  0  0
   -3.3291   -0.4626    0.6557 C   0  0  0  0  0  0  0  0  0  0  0  0
   -3.8821    1.4261   -0.7458 C   0  0  0  0  0  0  0  0  0  0  0  0
    3.5777   -1.0325   -0.1138 C   0  0  0  0  0  0  0  0  0  0  0  0
    4.6921    3.5452    0.2709 C   0  0  0  0  0  0  0  0  0  0  0  0
    3.7155   -1.6105   -1.3692 C   0  0  0  0  0  0  0  0  0  0  0  0
    3.6524   -1.8051    1.0382 C   0  0  0  0  0  0  0  0  0  0  0  0
    3.9313   -2.9848   -1.4745 C   0  0  0  0  0  0  0  0  0  0  0  0
    3.8679   -3.1792    0.9329 C   0  0  0  0  0  0  0  0  0  0  0  0
    4.0073   -3.7690   -0.3235 C   0  0  0  0  0  0  0  0  0  0  0  0
    4.2845   -5.8517    0.7907 C   0  0  0  0  0  0  0  0  0  0  0  0
    1.1795    3.5465    1.2597 H   0  0  0  0  0  0  0  0  0  0  0  0
    1.7042    4.2853   -0.2614 H   0  0  0  0  0  0  0  0  0  0  0  0
   -0.6857    3.4855   -0.2106 H   0  0  0  0  0  0  0  0  0  0  0  0
    0.2660    2.8482   -1.5808 H   0  0  0  0  0  0  0  0  0  0  0  0
   -8.7624    1.4336   -0.1336 H   0  0  0  0  0  0  0  0  0  0  0  0
   -8.0398    0.8067    1.3507 H   0  0  0  0  0  0  0  0  0  0  0  0
   -6.7267    1.0246   -1.4000 H   0  0  0  0  0  0  0  0  0  0  0  0
   -6.3315    1.9266    0.0887 H   0  0  0  0  0  0  0  0  0  0  0  0
   -8.5082   -0.8123   -1.2065 H   0  0  0  0  0  0  0  0  0  0  0  0
   -9.4957   -0.9001    0.2562 H   0  0  0  0  0  0  0  0  0  0  0  0
   -7.7640   -2.6998    0.1448 H   0  0  0  0  0  0  0  0  0  0  0  0
   -7.5945   -1.6857    1.5822 H   0  0  0  0  0  0  0  0  0  0  0  0
   -1.2915   -0.6805    1.2154 H   0  0  0  0  0  0  0  0  0  0  0  0
   -2.2690    2.6506   -1.3919 H   0  0  0  0  0  0  0  0  0  0  0  0
   -3.5993   -1.3069    1.2819 H   0  0  0  0  0  0  0  0  0  0  0  0
   -4.5805    2.0302   -1.3169 H   0  0  0  0  0  0  0  0  0  0  0  0
    3.6575   -1.0103   -2.2737 H   0  0  0  0  0  0  0  0  0  0  0  0
    3.5447   -1.3562    2.0224 H   0  0  0  0  0  0  0  0  0  0  0  0
    4.0391   -3.4386   -2.4558 H   0  0  0  0  0  0  0  0  0  0  0  0
    3.9161   -3.7286    1.8669 H   0  0  0  0  0  0  0  0  0  0  0  0
    6.4916    2.4310    0.2037 H   0  0  0  0  0  0  0  0  0  0  0  0
    6.7095    4.1400    0.3668 H   0  0  0  0  0  0  0  0  0  0  0  0
    5.1330   -5.5371    1.4077 H   0  0  0  0  0  0  0  0  0  0  0  0
    4.4560   -6.8992    0.5216 H   0  0  0  0  0  0  0  0  0  0  0  0
    3.3364   -5.8134    1.3379 H   0  0  0  0  0  0  0  0  0  0  0  0
  1 18  2  0  0  0  0
  2 21  2  0  0  0  0
  3 28  2  0  0  0  0
  4 33  1  0  0  0  0
  4 34  1  0  0  0  0
  5 11  1  0  0  0  0
  5 18  1  0  0  0  0
  5 19  1  0  0  0  0
  6 14  1  0  0  0  0
  6 20  1  0  0  0  0
  6 21  1  0  0  0  0
  7  8  1  0  0  0  0
  7 13  1  0  0  0  0
  7 27  1  0  0  0  0
  8 22  2  0  0  0  0
  9 28  1  0  0  0  0
  9 55  1  0  0  0  0
  9 56  1  0  0  0  0
 10 11  1  0  0  0  0
 10 12  1  0  0  0  0
 10 35  1  0  0  0  0
 10 36  1  0  0  0  0
 11 37  1  0  0  0  0
 11 38  1  0  0  0  0
 12 13  2  0  0  0  0
 12 22  1  0  0  0  0
 13 18  1  0  0  0  0
 14 15  1  0  0  0  0
 14 41  1  0  0  0  0
 14 42  1  0  0  0  0
 15 16  1  0  0  0  0
 15 39  1  0  0  0  0
 15 40  1  0  0  0  0
 16 17  1  0  0  0  0
 16 43  1  0  0  0  0
 16 44  1  0  0  0  0
 17 21  1  0  0  0  0
 17 45  1  0  0  0  0
 17 46  1  0  0  0  0
 19 23  2  0  0  0  0
 19 24  1  0  0  0  0
 20 25  2  0  0  0  0
 20 26  1  0  0  0  0
 22 28  1  0  0  0  0
 23 25  1  0  0  0  0
 23 47  1  0  0  0  0
 24 26  2  0  0  0  0
 24 48  1  0  0  0  0
 25 49  1  0  0  0  0
 26 50  1  0  0  0  0
 27 29  2  0  0  0  0
 27 30  1  0  0  0  0
 29 31  1  0  0  0  0
 29 51  1  0  0  0  0
 30 32  2  0  0  0  0
 30 52  1  0  0  0  0
 31 33  2  0  0  0  0
 31 53  1  0  0  0  0
 32 33  1  0  0  0  0
 32 54  1  0  0  0  0
 34 57  1  0  0  0  0
 34 58  1  0  0  0  0
 34 59  1  0  0  0  0
M  END
> <DATABASE_ID>
DB06605

> <DATABASE_NAME>
drugbank

> <ORIGINAL_SOURCE>
PUBCHEM

> <ORIGINAL_SOURCE_URL>
https://pubchem.ncbi.nlm.nih.gov/rest/pug/compound/inchikey/QNZCBYKSOIHPEH-UHFFFAOYSA-N/SDF?record_type=3d

> <SMILES>
COC1=CC=C(C=C1)N1N=C(C(N)=O)C2=C1C(=O)N(CC2)C1=CC=C(C=C1)N1CCCCC1=O

> <INCHI_IDENTIFIER>
InChI=1S/C25H25N5O4/c1-34-19-11-9-18(10-12-19)30-23-20(22(27-30)24(26)32)13-15-29(25(23)33)17-7-5-16(6-8-17)28-14-3-2-4-21(28)31/h5-12H,2-4,13-15H2,1H3,(H2,26,32)

> <INCHI_KEY>
QNZCBYKSOIHPEH-UHFFFAOYSA-N

> <FORMULA>
C25H25N5O4

> <MOLECULAR_WEIGHT>
459.4971

> <EXACT_MASS>
459.190654313

> <JCHEM_ACCEPTOR_COUNT>
5

> <JCHEM_AVERAGE_POLARIZABILITY>
49.62412629014736

> <JCHEM_BIOAVAILABILITY>
1

> <JCHEM_DONOR_COUNT>
1

> <JCHEM_FORMAL_CHARGE>
0

> <JCHEM_GHOSE_FILTER>
1

> <JCHEM_IUPAC>
1-(4-methoxyphenyl)-7-oxo-6-[4-(2-oxopiperidin-1-yl)phenyl]-1H,4H,5H,6H,7H-pyrazolo[3,4-c]pyridine-3-carboxamide

> <ALOGPS_LOGP>
2.22

> <JCHEM_LOGP>
1.8270722460000008

> <ALOGPS_LOGS>
-3.83

> <JCHEM_MDDR_LIKE_RULE>
0

> <JCHEM_NUMBER_OF_RINGS>
5

> <JCHEM_PHYSIOLOGICAL_CHARGE>
0

> <JCHEM_PKA_STRONGEST_ACIDIC>
13.119041854889453

> <JCHEM_PKA_STRONGEST_BASIC>
-1.623309977523359

> <JCHEM_POLAR_SURFACE_AREA>
110.75999999999999

> <JCHEM_REFRACTIVITY>
126.90100000000001

> <JCHEM_ROTATABLE_BOND_COUNT>
5

> <JCHEM_RULE_OF_FIVE>
1

> <ALOGPS_SOLUBILITY>
6.79e-02 g/l

> <JCHEM_TRADITIONAL_IUPAC>
apixaban

> <JCHEM_VEBER_RULE>
0

> <DRUGBANK_ID>
DB06605

> <SECONDARY_ACCESSION_NUMBERS>
DB07828

> <DRUG_GROUPS>
approved

> <GENERIC_NAME>
Apixaban

> <SYNONYMS>
Apixaban; apixabÃ¡n; apixabanum

> <PRODUCTS>
ELIQUIS 30-Day Starter Pack; Eliquis

$$$$
