REMARK  Name = 5284594
REMARK  4 active torsions:
REMARK  status: ('A' for Active; 'I' for Inactive)
REMARK    1  A    between atoms: N_2  and  C_25
REMARK    2  A    between atoms: C_4  and  O_21
REMARK    3  A    between atoms: C_17  and  O_23
REMARK    4  A    between atoms: C_25  and  C_26
REMARK                            x       y       z     vdW  Elec       q    Type
REMARK                         _______ _______ _______ _____ _____    ______ ____
ROOT
ATOM      1  O   UNL     1      -2.687  -0.035   1.365  0.00  0.00    -0.472 OA
ATOM      2  N   UNL     1       2.345  -0.451  -0.150  0.00  0.00    +0.390 N 
ATOM      3  C   UNL     1      -0.474  -0.627   0.521  0.00  0.00    +0.081 C 
ATOM      4  C   UNL     1       0.116  -1.365  -0.692  0.00  0.00    +0.079 C 
ATOM      5  C   UNL     1       1.305  -0.479  -1.209  0.00  0.00    -0.028 C 
ATOM      6  C   UNL     1      -1.796  -1.174   1.108  0.00  0.00    +0.190 C 
ATOM      7  C   UNL     1       0.596  -0.444   1.623  0.00  0.00    -0.013 C 
ATOM      8  C   UNL     1      -0.961   0.698   0.054  0.00  0.00    +0.016 C 
ATOM      9  C   UNL     1      -0.930  -1.686  -1.794  0.00  0.00    +0.030 C 
ATOM     10  C   UNL     1       0.827   0.949  -1.667  0.00  0.00    +0.008 C 
ATOM     11  C   UNL     1       1.900   0.176   1.097  0.00  0.00    -0.077 C 
ATOM     12  C   UNL     1      -0.361   1.490  -0.910  0.00  0.00    -0.025 C 
ATOM     13  C   UNL     1      -2.373  -1.880  -1.291  0.00  0.00    +0.028 C 
ATOM     14  C   UNL     1      -2.467  -2.168   0.182  0.00  0.00    -0.005 C 
ATOM     15  C   UNL     1      -2.180   0.998   0.619  0.00  0.00    +0.168 C 
ATOM     16  C   UNL     1      -0.979   2.707  -1.202  0.00  0.00    -0.001 C 
ATOM     17  C   UNL     1      -2.806   2.194   0.346  0.00  0.00    +0.167 C 
ATOM     18  C   UNL     1      -3.060  -3.277   0.650  0.00  0.00    -0.006 C 
ATOM     19  C   UNL     1      -2.183   3.063  -0.561  0.00  0.00    +0.039 C 
ATOM     20  H   UNL     1       2.508  -1.435   0.063  0.00  0.00    -0.080 HD
ENDROOT
BRANCH   4  21
ATOM     21  O   UNL     1       0.627  -2.633  -0.248  0.00  0.00    -0.388 OA
ATOM     22  H   UNL     1       1.290  -2.490   0.445  0.00  0.00    +0.210 HD
ENDBRANCH   4  21
BRANCH  17  23
ATOM     23  O   UNL     1      -4.000   2.513   0.906  0.00  0.00    -0.503 OA
ATOM     24  H   UNL     1      -4.406   1.924   1.512  0.00  0.00    +0.292 HD
ENDBRANCH  17  23
BRANCH   2  25
ATOM     25  C   UNL     1       3.621   0.096  -0.600  0.00  0.00    -0.077 C 
BRANCH  25  26
ATOM     26  C   UNL     1       4.684  -0.118   0.461  0.00  0.00    -0.021 C 
ATOM     27  C   UNL     1       6.054   0.386   0.190  0.00  0.00    -0.002 C 
ATOM     28  C   UNL     1       5.181   1.068   1.203  0.00  0.00    -0.002 C 
ENDBRANCH  25  26
ENDBRANCH   2  25
TORSDOF 4
