REMARK  Name = 16046126
REMARK  0 active torsions:
REMARK  status: ('A' for Active; 'I' for Inactive)
REMARK                            x       y       z     vdW  Elec       q    Type
REMARK                         _______ _______ _______ _____ _____    ______ ____
ROOT
ATOM      1  O   UNL     1      -2.123   1.488   0.923  0.00  0.00    -0.479 OA
ATOM      2  O   UNL     1       4.939   0.954  -0.235  0.00  0.00    -0.266 OA
ATOM      3  O   UNL     1      -0.306  -4.200  -0.699  0.00  0.00    -0.267 OA
ATOM      4  N   UNL     1       0.045   2.734  -0.500  0.00  0.00    +0.392 N 
ATOM      5  N   UNL     1       2.650   1.165  -0.774  0.00  0.00    -0.242 N 
ATOM      6  N   UNL     1       1.547   0.343  -0.635  0.00  0.00    -0.293 N 
ATOM      7  N   UNL     1      -0.837  -0.866   0.384  0.00  0.00    -0.393 NA
ATOM      8  N   UNL     1      -2.300  -3.056  -0.540  0.00  0.00    -0.276 N 
ATOM      9  C   UNL     1      -0.001   3.663   0.639  0.00  0.00    -0.054 C 
ATOM     10  C   UNL     1      -2.191   2.708   0.169  0.00  0.00    +0.144 C 
ATOM     11  C   UNL     1      -1.499   3.799   0.982  0.00  0.00    +0.021 C 
ATOM     12  C   UNL     1      -1.305   2.656  -1.069  0.00  0.00    -0.033 C 
ATOM     13  C   UNL     1       1.064   3.009  -1.517  0.00  0.00    -0.050 C 
ATOM     14  C   UNL     1       0.767   3.102   1.835  0.00  0.00    -0.023 C 
ATOM     15  C   UNL     1       2.483   2.568  -1.119  0.00  0.00    +0.106 C 
ATOM     16  C   UNL     1      -2.875   0.451   0.431  0.00  0.00    +0.165 C 
ATOM     17  C   UNL     1       2.005  -0.858  -0.113  0.00  0.00    +0.079 A 
ATOM     18  C   UNL     1       3.800   0.533  -0.316  0.00  0.00    +0.276 A 
ATOM     19  C   UNL     1       3.376  -0.804   0.122  0.00  0.00    +0.074 A 
ATOM     20  C   UNL     1      -2.220  -0.769   0.193  0.00  0.00    +0.178 C 
ATOM     21  C   UNL     1       1.272  -1.976   0.258  0.00  0.00    +0.051 C 
ATOM     22  C   UNL     1      -4.257   0.556   0.256  0.00  0.00    +0.018 C 
ATOM     23  C   UNL     1      -0.204  -1.964   0.102  0.00  0.00    +0.186 C 
ATOM     24  C   UNL     1      -2.964  -1.857  -0.262  0.00  0.00    +0.080 C 
ATOM     25  C   UNL     1       4.083  -1.847   0.678  0.00  0.00    +0.006 C 
ATOM     26  C   UNL     1       1.959  -3.052   0.832  0.00  0.00    +0.004 C 
ATOM     27  C   UNL     1      -0.934  -3.192  -0.410  0.00  0.00    +0.279 C 
ATOM     28  C   UNL     1      -4.986  -0.546  -0.192  0.00  0.00    +0.057 C 
ATOM     29  C   UNL     1       3.354  -2.987   1.030  0.00  0.00    +0.000 C 
ATOM     30  C   UNL     1      -4.342  -1.755  -0.455  0.00  0.00    -0.004 C 
ATOM     31  H   UNL     1       0.347   1.830  -0.137  0.00  0.00    -0.079 HD
ATOM     32  H   UNL     1       0.616   0.566  -0.863  0.00  0.00    +0.187 HD
ATOM     33  H   UNL     1      -2.827  -3.832  -0.839  0.00  0.00    +0.155 HD
ENDROOT
TORSDOF 0
