REMARK  Name = 5326979
REMARK  7 active torsions:
REMARK  status: ('A' for Active; 'I' for Inactive)
REMARK    1  A    between atoms: C_1  and  C_7
REMARK    2  A    between atoms: C_2  and  O_15
REMARK    3  A    between atoms: C_12  and  C_14
REMARK    4  A    between atoms: O_15  and  C_16
REMARK    5  A    between atoms: C_16  and  C_17
REMARK    6  A    between atoms: C_17  and  N_19
REMARK    7  A    between atoms: N_20  and  O_24
REMARK                            x       y       z     vdW  Elec       q    Type
REMARK                         _______ _______ _______ _____ _____    ______ ____
ROOT
ATOM      1  C   UNL     1       1.418   0.321   0.361  0.00  0.00    +0.000 C 
ATOM      2  C   UNL     1      -1.298   0.746   0.780  0.00  0.00    +0.139 C 
ATOM      3  C   UNL     1       0.878   1.596   0.194  0.00  0.00    +0.003 C 
ATOM      4  C   UNL     1       0.595  -0.741   0.738  0.00  0.00    +0.003 C 
ATOM      5  C   UNL     1      -0.484   1.809   0.405  0.00  0.00    +0.037 C 
ATOM      6  C   UNL     1      -0.767  -0.528   0.948  0.00  0.00    +0.037 C 
ENDROOT
BRANCH   1   7
ATOM      7  C   UNL     1       2.830   0.099   0.143  0.00  0.00    +0.000 C 
ATOM      8  C   UNL     1       3.525   0.882  -0.779  0.00  0.00    +0.001 C 
ATOM      9  C   UNL     1       3.499  -0.897   0.856  0.00  0.00    +0.001 C 
ATOM     10  C   UNL     1       4.888   0.669  -0.989  0.00  0.00    +0.010 C 
ATOM     11  C   UNL     1       4.861  -1.110   0.645  0.00  0.00    +0.010 C 
ATOM     12  C   UNL     1       5.556  -0.327  -0.277  0.00  0.00    +0.068 C 
BRANCH  12  14
ATOM     13  N   UNL     1       8.086  -0.723  -0.667  0.00  0.00    -0.191 NA
ATOM     14  C   UNL     1       6.951  -0.545  -0.492  0.00  0.00    +0.100 C 
ENDBRANCH  12  14
ENDBRANCH   1   7
BRANCH   2  15
ATOM     15  O   UNL     1      -2.636   0.956   0.986  0.00  0.00    -0.474 OA
BRANCH  15  16
ATOM     16  C   UNL     1      -3.248   1.989   0.225  0.00  0.00    +0.227 C 
BRANCH  16  17
ATOM     17  C   UNL     1      -4.707   1.644  -0.012  0.00  0.00    +0.142 C 
BRANCH  17  19
ATOM     18  O   UNL     1      -4.836  -0.918   1.138  0.00  0.00    -0.250 OA
ATOM     19  N   UNL     1      -4.849   0.407  -0.769  0.00  0.00    -0.257 N 
ATOM     20  N   UNL     1      -5.139  -1.919  -0.898  0.00  0.00    -0.181 N 
ATOM     21  C   UNL     1      -4.961   0.559  -2.218  0.00  0.00    +0.117 C 
ATOM     22  C   UNL     1      -4.935  -0.820  -0.089  0.00  0.00    +0.326 C 
ATOM     23  H   UNL     1      -5.219  -1.846  -1.877  0.00  0.00    +0.184 HD
BRANCH  20  24
ATOM     24  O   UNL     1      -5.226  -3.150  -0.228  0.00  0.00    -0.294 OA
ATOM     25  H   UNL     1      -5.369  -3.860  -0.873  0.00  0.00    +0.241 HD
ENDBRANCH  20  24
ENDBRANCH  17  19
ENDBRANCH  16  17
ENDBRANCH  15  16
ENDBRANCH   2  15
TORSDOF 7
