REMARK  Name = 12000797
REMARK  2 active torsions:
REMARK  status: ('A' for Active; 'I' for Inactive)
REMARK    1  A    between atoms: N_2  and  C_7
REMARK    2  A    between atoms: N_3  and  C_19
REMARK                            x       y       z     vdW  Elec       q    Type
REMARK                         _______ _______ _______ _____ _____    ______ ____
ROOT
ATOM      1  O   UNL     1       0.482  -0.706   1.576  0.00  0.00    -0.253 OA
ATOM      2  N   UNL     1       1.042  -0.181  -0.613  0.00  0.00    -0.292 N 
ATOM      3  N   UNL     1      -1.144  -0.636  -0.080  0.00  0.00    -0.290 N 
ATOM      4  C   UNL     1       0.157  -0.524   0.404  0.00  0.00    +0.301 C 
ATOM      5  H   UNL     1       0.690  -0.057  -1.524  0.00  0.00    +0.151 HD
ATOM      6  H   UNL     1      -1.304  -0.471  -1.037  0.00  0.00    +0.151 HD
ENDROOT
BRANCH   2   7
ATOM      7  C   UNL     1       2.459   0.001  -0.387  0.00  0.00    +0.058 C 
ATOM      8  C   UNL     1       4.675   0.567  -1.473  0.00  0.00    +0.002 C 
ATOM      9  C   UNL     1       4.203   1.325   0.884  0.00  0.00    +0.002 C 
ATOM     10  C   UNL     1       4.588  -1.119   0.400  0.00  0.00    +0.002 C 
ATOM     11  C   UNL     1       3.167   0.376  -1.708  0.00  0.00    +0.018 C 
ATOM     12  C   UNL     1       2.696   1.131   0.639  0.00  0.00    +0.018 C 
ATOM     13  C   UNL     1       3.080  -1.304   0.157  0.00  0.00    +0.018 C 
ATOM     14  C   UNL     1       4.888   1.690  -0.444  0.00  0.00    +0.000 C 
ATOM     15  C   UNL     1       5.271  -0.742  -0.926  0.00  0.00    +0.000 C 
ATOM     16  C   UNL     1       4.801   0.013   1.419  0.00  0.00    +0.000 C 
ENDBRANCH   2   7
BRANCH   3  19
ATOM     17  O   UNL     1      -6.851  -0.182  -0.977  0.00  0.00    -0.275 OA
ATOM     18  N   UNL     1      -4.671   0.270  -0.311  0.00  0.00    -0.279 N 
ATOM     19  C   UNL     1      -2.271  -0.982   0.756  0.00  0.00    +0.076 C 
ATOM     20  C   UNL     1      -2.888   0.269   1.393  0.00  0.00    +0.041 C 
ATOM     21  C   UNL     1      -3.324  -1.777  -0.026  0.00  0.00    +0.041 C 
ATOM     22  C   UNL     1      -3.682   1.101   0.385  0.00  0.00    +0.095 C 
ATOM     23  C   UNL     1      -4.116  -0.899  -0.995  0.00  0.00    +0.095 C 
ATOM     24  C   UNL     1      -6.038   0.534  -0.385  0.00  0.00    +0.226 C 
ATOM     25  C   UNL     1      -6.525   1.779   0.313  0.00  0.00    +0.095 C 
ENDBRANCH   3  19
TORSDOF 2
