REMARK  Name = 65628
REMARK  10 active torsions:
REMARK  status: ('A' for Active; 'I' for Inactive)
REMARK    1  A    between atoms: C_4  and  C_18
REMARK    2  A    between atoms: C_6  and  N_11
REMARK    3  A    between atoms: N_11  and  C_12
REMARK    4  A    between atoms: N_11  and  C_15
REMARK    5  A    between atoms: C_12  and  C_14
REMARK    6  A    between atoms: C_15  and  C_17
REMARK    7  A    between atoms: C_18  and  C_19
REMARK    8  A    between atoms: C_19  and  C_20
REMARK    9  A    between atoms: C_20  and  C_22
REMARK   10  A    between atoms: C_22  and  O_23
REMARK                            x       y       z     vdW  Elec       q    Type
REMARK                         _______ _______ _______ _____ _____    ______ ____
ROOT
ATOM      1  N   UNL     1       1.364   1.792   0.756  0.00  0.00    -0.262 N 
ATOM      2  N   UNL     1       1.162   0.650  -1.140  0.00  0.00    -0.394 NA
ATOM      3  C   UNL     1       0.086   1.294   0.762  0.00  0.00    +0.079 C 
ATOM      4  C   UNL     1       1.966   1.380  -0.400  0.00  0.00    +0.163 C 
ATOM      5  C   UNL     1      -0.016   0.586  -0.432  0.00  0.00    +0.129 C 
ATOM      6  C   UNL     1      -2.285   0.031   0.165  0.00  0.00    +0.032 C 
ATOM      7  C   UNL     1      -1.223  -0.062  -0.743  0.00  0.00    +0.101 C 
ATOM      8  C   UNL     1      -0.959   1.401   1.681  0.00  0.00    +0.018 C 
ATOM      9  C   UNL     1      -2.153   0.750   1.355  0.00  0.00    +0.012 C 
ATOM     10  C   UNL     1       1.963   2.606   1.789  0.00  0.00    +0.119 C 
ENDROOT
BRANCH   6  11
ATOM     11  N   UNL     1      -3.508  -0.614  -0.129  0.00  0.00    -0.308 N 
BRANCH  11  12
ATOM     12  C   UNL     1      -4.352  -1.102   0.941  0.00  0.00    +0.108 C 
BRANCH  12  14
ATOM     13 CL   UNL     1      -3.137  -3.546   0.802  0.00  0.00    -0.112 Cl
ATOM     14  C   UNL     1      -3.623  -2.139   1.781  0.00  0.00    +0.116 C 
ENDBRANCH  12  14
ENDBRANCH  11  12
BRANCH  11  15
ATOM     15  C   UNL     1      -3.936  -0.779  -1.502  0.00  0.00    +0.108 C 
BRANCH  15  17
ATOM     16 CL   UNL     1      -5.314   1.576  -1.371  0.00  0.00    -0.112 Cl
ATOM     17  C   UNL     1      -4.095   0.567  -2.190  0.00  0.00    +0.116 C 
ENDBRANCH  15  17
ENDBRANCH  11  15
ENDBRANCH   6  11
BRANCH   4  18
ATOM     18  C   UNL     1       3.360   1.740  -0.732  0.00  0.00    +0.076 C 
BRANCH  18  19
ATOM     19  C   UNL     1       4.379   0.705  -0.204  0.00  0.00    +0.021 C 
BRANCH  19  20
ATOM     20  C   UNL     1       4.161  -0.703  -0.758  0.00  0.00    +0.110 C 
BRANCH  20  22
ATOM     21  O   UNL     1       6.027  -1.486   0.599  0.00  0.00    -0.250 OA
ATOM     22  C   UNL     1       5.154  -1.713  -0.227  0.00  0.00    +0.314 C 
BRANCH  22  23
ATOM     23  O   UNL     1       4.978  -2.932  -0.802  0.00  0.00    -0.480 OA
ATOM     24  H   UNL     1       4.294  -3.059  -1.430  0.00  0.00    +0.295 HD
ENDBRANCH  22  23
ENDBRANCH  20  22
ENDBRANCH  19  20
ENDBRANCH  18  19
ENDBRANCH   4  18
TORSDOF 10
