REMARK  Name = 15593907
REMARK  14 active torsions:
REMARK  status: ('A' for Active; 'I' for Inactive)
REMARK    1  A    between atoms: C_1  and  C_2
REMARK    2  A    between atoms: C_1  and  C_18
REMARK    3  A    between atoms: C_2  and  C_3
REMARK    4  A    between atoms: C_2  and  C_13
REMARK    5  A    between atoms: C_2  and  C_17
REMARK    6  A    between atoms: C_6  and  O_9
REMARK    7  A    between atoms: C_8  and  O_11
REMARK    8  A    between atoms: C_18  and  C_19
REMARK    9  A    between atoms: C_19  and  N_20
REMARK   10  A    between atoms: N_20  and  C_23
REMARK   11  A    between atoms: C_23  and  C_24
REMARK   12  A    between atoms: C_24  and  C_25
REMARK   13  A    between atoms: C_28  and  O_31
REMARK   14  A    between atoms: C_30  and  O_33
REMARK                            x       y       z     vdW  Elec       q    Type
REMARK                         _______ _______ _______ _____ _____    ______ ____
ROOT
ATOM      1  C   UNL     1      -2.205  -1.808   0.730  0.00  0.00    +0.016 C 
ENDROOT
BRANCH   1   2
ATOM      2  C   UNL     1      -3.719  -1.801   0.306  0.00  0.00    +0.098 C 
BRANCH   2   3
ATOM      3  C   UNL     1      -4.145  -0.361  -0.066  0.00  0.00    -0.006 C 
ATOM      4  C   UNL     1      -4.074   0.656   0.886  0.00  0.00    +0.037 C 
ATOM      5  C   UNL     1      -4.599  -0.080  -1.355  0.00  0.00    +0.000 C 
ATOM      6  C   UNL     1      -4.459   1.954   0.550  0.00  0.00    +0.172 C 
ATOM      7  C   UNL     1      -4.984   1.219  -1.690  0.00  0.00    +0.040 C 
ATOM      8  C   UNL     1      -4.913   2.235  -0.738  0.00  0.00    +0.172 C 
BRANCH   6   9
ATOM      9  O   UNL     1      -4.385   2.939   1.489  0.00  0.00    -0.468 OA
ATOM     10  C   UNL     1      -3.910   2.568   2.781  0.00  0.00    +0.253 C 
ENDBRANCH   6   9
BRANCH   8  11
ATOM     11  O   UNL     1      -5.291   3.499  -1.079  0.00  0.00    -0.468 OA
ATOM     12  C   UNL     1      -5.744   3.702  -2.416  0.00  0.00    +0.253 C 
ENDBRANCH   8  11
ENDBRANCH   2   3
BRANCH   2  13
ATOM     13  C   UNL     1      -4.620  -2.312   1.509  0.00  0.00    +0.017 C 
ATOM     14  C   UNL     1      -4.204  -3.682   2.073  0.00  0.00    +0.001 C 
ATOM     15  C   UNL     1      -6.121  -2.364   1.163  0.00  0.00    +0.001 C 
ENDBRANCH   2  13
BRANCH   2  17
ATOM     16  N   UNL     1      -3.954  -3.521  -1.699  0.00  0.00    -0.196 NA
ATOM     17  C   UNL     1      -3.856  -2.761  -0.827  0.00  0.00    +0.075 C 
ENDBRANCH   2  17
ENDBRANCH   1   2
BRANCH   1  18
ATOM     18  C   UNL     1      -1.259  -1.026  -0.205  0.00  0.00    -0.022 C 
BRANCH  18  19
ATOM     19  C   UNL     1       0.212  -1.143   0.207  0.00  0.00    -0.082 C 
BRANCH  19  20
ATOM     20  N   UNL     1       1.088  -0.385  -0.677  0.00  0.00    +0.384 N 
ATOM     21  H   UNL     1       0.824   0.600  -0.645  0.00  0.00    -0.085 HD
ATOM     22  H   UNL     1       0.988  -0.749  -1.625  0.00  0.00    -0.085 HD
BRANCH  20  23
ATOM     23  C   UNL     1       2.479  -0.520  -0.271  0.00  0.00    -0.077 C 
BRANCH  23  24
ATOM     24  C   UNL     1       3.401   0.268  -1.203  0.00  0.00    +0.003 C 
BRANCH  24  25
ATOM     25  C   UNL     1       4.848   0.118  -0.806  0.00  0.00    -0.021 C 
ATOM     26  C   UNL     1       5.420   1.014   0.097  0.00  0.00    +0.036 C 
ATOM     27  C   UNL     1       5.615  -0.917  -1.341  0.00  0.00    -0.001 C 
ATOM     28  C   UNL     1       6.759   0.875   0.465  0.00  0.00    +0.172 C 
ATOM     29  C   UNL     1       6.954  -1.056  -0.974  0.00  0.00    +0.040 C 
ATOM     30  C   UNL     1       7.526  -0.160  -0.071  0.00  0.00    +0.172 C 
BRANCH  28  31
ATOM     31  O   UNL     1       7.306   1.757   1.347  0.00  0.00    -0.468 OA
ATOM     32  C   UNL     1       6.455   2.785   1.848  0.00  0.00    +0.253 C 
ENDBRANCH  28  31
BRANCH  30  33
ATOM     33  O   UNL     1       8.834  -0.306   0.280  0.00  0.00    -0.468 OA
ATOM     34  C   UNL     1       9.546  -1.389  -0.313  0.00  0.00    +0.253 C 
ENDBRANCH  30  33
ENDBRANCH  24  25
ENDBRANCH  23  24
ENDBRANCH  20  23
ENDBRANCH  19  20
ENDBRANCH  18  19
ENDBRANCH   1  18
TORSDOF 14
