REMARK  Name = 428573
REMARK  4 active torsions:
REMARK  status: ('A' for Active; 'I' for Inactive)
REMARK    1  A    between atoms: C_1  and  C_2
REMARK    2  A    between atoms: C_1  and  C_7
REMARK    3  A    between atoms: C_2  and  S_3
REMARK    4  A    between atoms: C_7  and  S_8
REMARK                            x       y       z     vdW  Elec       q    Type
REMARK                         _______ _______ _______ _____ _____    ______ ____
ROOT
ATOM      1  C   UNL     1       0.000   0.022   0.000  0.00  0.00    +0.052 C 
ENDROOT
BRANCH   1   2
ATOM      2  C   UNL     1      -1.254  -0.836   0.016  0.00  0.00    +0.160 C 
BRANCH   2   3
ATOM      3  S   UNL     1      -2.713   0.158   0.011  0.00  0.00    +0.023 S 
ATOM      4  O   UNL     1      -3.793  -1.051  -0.172  0.00  0.00    -0.069 OA
ATOM      5  O   UNL     1      -2.721   0.976  -1.188  0.00  0.00    -0.069 OA
ATOM      6  O   UNL     1      -2.886   0.741   1.329  0.00  0.00    -0.069 OA
ENDBRANCH   2   3
ENDBRANCH   1   2
BRANCH   1   7
ATOM      7  C   UNL     1       1.254  -0.836  -0.016  0.00  0.00    +0.160 C 
BRANCH   7   8
ATOM      8  S   UNL     1       2.713   0.158  -0.011  0.00  0.00    +0.023 S 
ATOM      9  O   UNL     1       3.793  -1.051   0.172  0.00  0.00    -0.069 OA
ATOM     10  O   UNL     1       2.721   0.976   1.188  0.00  0.00    -0.069 OA
ATOM     11  O   UNL     1       2.886   0.741  -1.329  0.00  0.00    -0.069 OA
ENDBRANCH   7   8
ENDBRANCH   1   7
TORSDOF 4
