REMARK  Name = 9887812
REMARK  11 active torsions:
REMARK  status: ('A' for Active; 'I' for Inactive)
REMARK    1  A    between atoms: N_1  and  C_3
REMARK    2  A    between atoms: N_1  and  C_19
REMARK    3  A    between atoms: C_4  and  C_9
REMARK    4  A    between atoms: C_12  and  C_16
REMARK    5  A    between atoms: C_16  and  O_17
REMARK    6  A    between atoms: C_19  and  C_20
REMARK    7  A    between atoms: C_20  and  N_21
REMARK    8  A    between atoms: N_21  and  C_24
REMARK    9  A    between atoms: C_24  and  C_25
REMARK   10  A    between atoms: C_25  and  C_27
REMARK   11  A    between atoms: C_25  and  O_33
REMARK                            x       y       z     vdW  Elec       q    Type
REMARK                         _______ _______ _______ _____ _____    ______ ____
ROOT
ATOM      1  N   UNL     1       0.215  -0.345   0.208  0.00  0.00    -0.335 N 
ATOM      2  H   UNL     1       0.111   0.628   0.314  0.00  0.00    +0.147 HD
ENDROOT
BRANCH   1   3
ATOM      3  C   UNL     1       1.518  -0.883   0.172  0.00  0.00    +0.045 C 
ATOM      4  C   UNL     1       3.913  -0.574   0.247  0.00  0.00    +0.001 C 
ATOM      5  C   UNL     1       2.624  -0.041   0.283  0.00  0.00    +0.014 C 
ATOM      6  C   UNL     1       1.701  -2.258   0.024  0.00  0.00    +0.014 C 
ATOM      7  C   UNL     1       4.096  -1.949   0.099  0.00  0.00    +0.000 C 
ATOM      8  C   UNL     1       2.989  -2.791  -0.013  0.00  0.00    +0.001 C 
BRANCH   4   9
ATOM      9  C   UNL     1       5.060   0.300   0.362  0.00  0.00    +0.000 C 
ATOM     10  C   UNL     1       6.261  -0.038  -0.263  0.00  0.00    +0.006 C 
ATOM     11  C   UNL     1       4.965   1.481   1.098  0.00  0.00    +0.000 C 
ATOM     12  C   UNL     1       7.366   0.805  -0.151  0.00  0.00    +0.075 C 
ATOM     13  C   UNL     1       6.071   2.324   1.210  0.00  0.00    +0.000 C 
ATOM     14  C   UNL     1       7.272   1.986   0.585  0.00  0.00    +0.006 C 
BRANCH  12  16
ATOM     15  O   UNL     1       8.814  -0.563  -1.477  0.00  0.00    -0.245 OA
ATOM     16  C   UNL     1       8.618   0.454  -0.803  0.00  0.00    +0.338 C 
BRANCH  16  17
ATOM     17  O   UNL     1       9.592   1.383  -0.595  0.00  0.00    -0.477 OA
ATOM     18  H   UNL     1       9.411   2.143  -0.079  0.00  0.00    +0.295 HD
ENDBRANCH  16  17
ENDBRANCH  12  16
ENDBRANCH   4   9
ENDBRANCH   1   3
BRANCH   1  19
ATOM     19  C   UNL     1      -0.962  -1.151   0.100  0.00  0.00    +0.064 C 
BRANCH  19  20
ATOM     20  C   UNL     1      -2.198  -0.268   0.209  0.00  0.00    -0.060 C 
BRANCH  20  21
ATOM     21  N   UNL     1      -3.408  -1.070   0.073  0.00  0.00    +0.387 N 
ATOM     22  H   UNL     1      -3.404  -1.527  -0.839  0.00  0.00    -0.084 HD
ATOM     23  H   UNL     1      -3.424  -1.765   0.819  0.00  0.00    -0.084 HD
BRANCH  21  24
ATOM     24  C   UNL     1      -4.598  -0.238   0.185  0.00  0.00    -0.047 C 
BRANCH  24  25
ATOM     25  C   UNL     1      -5.869  -1.079   0.012  0.00  0.00    +0.112 C 
BRANCH  25  27
ATOM     26 CL   UNL     1      -8.665   2.964  -1.684  0.00  0.00    -0.082 Cl
ATOM     27  C   UNL     1      -7.115  -0.229   0.127  0.00  0.00    +0.003 C 
ATOM     28  C   UNL     1      -7.284   0.843  -0.732  0.00  0.00    +0.009 C 
ATOM     29  C   UNL     1      -8.061  -0.543   1.088  0.00  0.00    -0.002 C 
ATOM     30  C   UNL     1      -8.434   1.626  -0.626  0.00  0.00    +0.057 C 
ATOM     31  C   UNL     1      -9.210   0.240   1.194  0.00  0.00    +0.001 C 
ATOM     32  C   UNL     1      -9.397   1.324   0.337  0.00  0.00    +0.011 C 
ENDBRANCH  25  27
BRANCH  25  33
ATOM     33  O   UNL     1      -5.875  -1.708  -1.268  0.00  0.00    -0.382 OA
ATOM     34  H   UNL     1      -5.082  -2.259  -1.362  0.00  0.00    +0.211 HD
ENDBRANCH  25  33
ENDBRANCH  24  25
ENDBRANCH  21  24
ENDBRANCH  20  21
ENDBRANCH  19  20
ENDBRANCH   1  19
TORSDOF 11
