REMARK  Name = 16115747
REMARK  4 active torsions:
REMARK  status: ('A' for Active; 'I' for Inactive)
REMARK    1  A    between atoms: C_6  and  C_20
REMARK    2  A    between atoms: N_19  and  C_22
REMARK    3  A    between atoms: C_22  and  C_23
REMARK    4  A    between atoms: C_23  and  C_26
REMARK                            x       y       z     vdW  Elec       q    Type
REMARK                         _______ _______ _______ _____ _____    ______ ____
ROOT
ATOM      1  N   UNL     1       3.070  -1.980   0.035  0.00  0.00    -0.279 N 
ATOM      2  N   UNL     1       2.707   0.379   0.249  0.00  0.00    -0.316 NA
ATOM      3  N   UNL     1       4.154   1.931  -0.892  0.00  0.00    -0.336 NA
ATOM      4  N   UNL     1       2.392   2.677   0.430  0.00  0.00    -0.170 N 
ATOM      5  N   UNL     1       1.769   4.770   0.848  0.00  0.00    -0.224 NA
ATOM      6  C   UNL     1       2.059  -2.367   1.019  0.00  0.00    +0.151 C 
ATOM      7  C   UNL     1       2.365  -3.838   1.309  0.00  0.00    +0.031 C 
ATOM      8  C   UNL     1       2.975  -4.338   0.008  0.00  0.00    +0.024 C 
ATOM      9  C   UNL     1       3.790  -3.145  -0.482  0.00  0.00    +0.093 C 
ATOM     10  C   UNL     1       3.420  -0.678  -0.266  0.00  0.00    +0.181 C 
ATOM     11  C   UNL     1       4.519  -0.439  -1.108  0.00  0.00    +0.131 C 
ATOM     12  C   UNL     1       4.837   0.875  -1.383  0.00  0.00    +0.109 C 
ATOM     13  C   UNL     1       3.116   1.615  -0.095  0.00  0.00    +0.212 C 
ATOM     14  C   UNL     1       5.995   1.180  -2.273  0.00  0.00    +0.063 C 
ATOM     15  C   UNL     1       1.306   2.590   1.258  0.00  0.00    +0.104 C 
ATOM     16  C   UNL     1       2.631   4.008   0.213  0.00  0.00    +0.182 C 
ATOM     17  C   UNL     1       0.941   3.893   1.502  0.00  0.00    +0.118 C 
ENDROOT
BRANCH   6  20
ATOM     18  O   UNL     1       0.503  -2.314  -0.788  0.00  0.00    -0.273 OA
ATOM     19  N   UNL     1      -0.274  -1.976   1.381  0.00  0.00    -0.303 N 
ATOM     20  C   UNL     1       0.693  -2.228   0.422  0.00  0.00    +0.241 C 
ATOM     21  H   UNL     1       0.002  -1.929   2.324  0.00  0.00    +0.149 HD
BRANCH  19  22
ATOM     22  C   UNL     1      -1.670  -1.779   1.062  0.00  0.00    +0.094 C 
BRANCH  22  23
ATOM     23  C   UNL     1      -2.009  -0.314   0.798  0.00  0.00    +0.048 C 
BRANCH  23  26
ATOM     24  O   UNL     1      -5.860   0.033  -2.273  0.00  0.00    -0.435 OA
ATOM     25  O   UNL     1      -7.400   0.484  -0.475  0.00  0.00    -0.435 OA
ATOM     26  C   UNL     1      -3.470  -0.094   0.491  0.00  0.00    -0.017 C 
ATOM     27  C   UNL     1      -3.901  -0.156  -0.828  0.00  0.00    +0.036 C 
ATOM     28  C   UNL     1      -4.353   0.167   1.543  0.00  0.00    -0.001 C 
ATOM     29  C   UNL     1      -5.246   0.052  -1.058  0.00  0.00    +0.176 C 
ATOM     30  C   UNL     1      -6.125   0.309  -0.032  0.00  0.00    +0.176 C 
ATOM     31  C   UNL     1      -5.709   0.374   1.282  0.00  0.00    +0.040 C 
ATOM     32  C   UNL     1      -7.224   0.307  -1.896  0.00  0.00    +0.429 C 
ENDBRANCH  23  26
ENDBRANCH  22  23
ENDBRANCH  19  22
ENDBRANCH   6  20
TORSDOF 4
