REMARK  Name = 24941249
REMARK  6 active torsions:
REMARK  status: ('A' for Active; 'I' for Inactive)
REMARK    1  A    between atoms: N_1  and  C_13
REMARK    2  A    between atoms: N_2  and  C_26
REMARK    3  A    between atoms: C_14  and  C_19
REMARK    4  A    between atoms: C_19  and  C_20
REMARK    5  A    between atoms: C_20  and  C_23
REMARK    6  A    between atoms: C_26  and  C_28
REMARK                            x       y       z     vdW  Elec       q    Type
REMARK                         _______ _______ _______ _____ _____    ______ ____
ROOT
ATOM      1  N   UNL     1       1.477   2.341   0.085  0.00  0.00    -0.230 N 
ATOM      2  N   UNL     1      -1.998  -0.829  -1.240  0.00  0.00    -0.316 N 
ATOM      3  N   UNL     1       1.472   3.654   0.374  0.00  0.00    -0.169 NA
ATOM      4  N   UNL     1      -2.412   1.474  -0.806  0.00  0.00    -0.229 NA
ATOM      5  C   UNL     1       0.250   1.836  -0.247  0.00  0.00    +0.088 A 
ATOM      6  C   UNL     1      -0.624   2.913  -0.166  0.00  0.00    +0.052 A 
ATOM      7  C   UNL     1       0.191   3.998   0.220  0.00  0.00    +0.082 A 
ATOM      8  C   UNL     1      -0.162   0.557  -0.604  0.00  0.00    +0.053 C 
ATOM      9  C   UNL     1      -1.519   0.456  -0.870  0.00  0.00    +0.130 C 
ATOM     10  C   UNL     1      -1.973   2.708  -0.454  0.00  0.00    +0.103 C 
ATOM     11  C   UNL     1      -0.219   5.393   0.455  0.00  0.00    +0.054 C 
ATOM     12  H   UNL     1      -1.358  -1.575  -1.291  0.00  0.00    +0.148 HD
ENDROOT
BRANCH   1  13
ATOM     13  C   UNL     1       2.675   1.628   0.144  0.00  0.00    +0.082 C 
ATOM     14  C   UNL     1       3.862  -0.441   0.530  0.00  0.00    -0.020 C 
ATOM     15  C   UNL     1       2.664   0.272   0.471  0.00  0.00    +0.015 C 
ATOM     16  C   UNL     1       3.883   2.271  -0.125  0.00  0.00    +0.019 C 
ATOM     17  C   UNL     1       5.070   0.202   0.261  0.00  0.00    -0.004 C 
ATOM     18  C   UNL     1       5.081   1.558  -0.067  0.00  0.00    +0.001 C 
BRANCH  14  19
ATOM     19  C   UNL     1       3.851  -1.890   0.881  0.00  0.00    +0.036 C 
BRANCH  19  20
ATOM     20  C   UNL     1       3.717  -2.786  -0.356  0.00  0.00    +0.089 C 
BRANCH  20  23
ATOM     21  O   UNL     1       3.756  -4.702   1.132  0.00  0.00    -0.275 OA
ATOM     22  N   UNL     1       3.562  -5.058  -1.132  0.00  0.00    -0.329 N 
ATOM     23  C   UNL     1       3.683  -4.263  -0.012  0.00  0.00    +0.220 C 
ATOM     24  H   UNL     1       3.529  -6.037  -1.038  0.00  0.00    +0.145 HD
ATOM     25  H   UNL     1       3.509  -4.646  -2.024  0.00  0.00    +0.145 HD
ENDBRANCH  20  23
ENDBRANCH  19  20
ENDBRANCH  14  19
ENDBRANCH   1  13
BRANCH   2  26
ATOM     26  C   UNL     1      -3.368  -1.080  -1.540  0.00  0.00    +0.093 C 
ATOM     27  C   UNL     1      -3.474  -2.316  -2.432  0.00  0.00    +0.026 C 
BRANCH  26  28
ATOM     28  C   UNL     1      -4.169  -1.203  -0.262  0.00  0.00    -0.005 C 
ATOM     29  C   UNL     1      -5.497  -0.777  -0.227  0.00  0.00    -0.003 C 
ATOM     30  C   UNL     1      -3.580  -1.743   0.881  0.00  0.00    -0.003 C 
ATOM     31  C   UNL     1      -6.235  -0.890   0.951  0.00  0.00    -0.000 C 
ATOM     32  C   UNL     1      -4.318  -1.856   2.059  0.00  0.00    -0.000 C 
ATOM     33  C   UNL     1      -5.646  -1.430   2.094  0.00  0.00    -0.000 C 
ENDBRANCH  26  28
ENDBRANCH   2  26
TORSDOF 6
