REMARK  Name = 4775
REMARK  5 active torsions:
REMARK  status: ('A' for Active; 'I' for Inactive)
REMARK    1  A    between atoms: C_1  and  C_2
REMARK    2  A    between atoms: C_1  and  C_8
REMARK    3  A    between atoms: C_8  and  C_9
REMARK    4  A    between atoms: C_9  and  C_11
REMARK    5  A    between atoms: C_11  and  O_12
REMARK                            x       y       z     vdW  Elec       q    Type
REMARK                         _______ _______ _______ _____ _____    ______ ____
ROOT
ATOM      1  C   UNL     1      -0.338  -0.374  -0.454  0.00  0.00    +0.027 C 
ENDROOT
BRANCH   1   2
ATOM      2  C   UNL     1       1.136  -0.139  -0.253  0.00  0.00    -0.022 C 
ATOM      3  C   UNL     1       1.597   1.151  -0.033  0.00  0.00    -0.004 C 
ATOM      4  C   UNL     1       2.010  -1.215  -0.290  0.00  0.00    -0.004 C 
ATOM      5  C   UNL     1       2.962   1.369   0.154  0.00  0.00    -0.000 C 
ATOM      6  C   UNL     1       3.375  -0.997  -0.104  0.00  0.00    -0.000 C 
ATOM      7  C   UNL     1       3.851   0.296   0.118  0.00  0.00    -0.000 C 
ENDBRANCH   1   2
BRANCH   1   8
ATOM      8  C   UNL     1      -1.121  -0.652   0.837  0.00  0.00    +0.016 C 
BRANCH   8   9
ATOM      9  C   UNL     1      -2.612  -0.923   0.614  0.00  0.00    +0.110 C 
BRANCH   9  11
ATOM     10  O   UNL     1      -3.038   1.416   0.091  0.00  0.00    -0.250 OA
ATOM     11  C   UNL     1      -3.355   0.239  -0.009  0.00  0.00    +0.314 C 
BRANCH  11  12
ATOM     12  O   UNL     1      -4.467  -0.172  -0.671  0.00  0.00    -0.480 OA
ATOM     13  H   UNL     1      -4.671  -1.085  -0.723  0.00  0.00    +0.295 HD
ENDBRANCH  11  12
ENDBRANCH   9  11
ENDBRANCH   8   9
ENDBRANCH   1   8
TORSDOF 5
