REMARK  Name = 25113128
REMARK  7 active torsions:
REMARK  status: ('A' for Active; 'I' for Inactive)
REMARK    1  A    between atoms: N_2  and  C_19
REMARK    2  A    between atoms: C_3  and  C_7
REMARK    3  A    between atoms: C_11  and  C_12
REMARK    4  A    between atoms: C_12  and  N_13
REMARK    5  A    between atoms: C_12  and  C_17
REMARK    6  A    between atoms: C_19  and  C_20
REMARK    7  A    between atoms: C_25  and  C_28
REMARK                            x       y       z     vdW  Elec       q    Type
REMARK                         _______ _______ _______ _____ _____    ______ ____
ROOT
ATOM      1  O   UNL     1       0.755  -0.050  -1.152  0.00  0.00    -0.273 OA
ATOM      2  N   UNL     1      -0.066  -1.292   0.637  0.00  0.00    -0.299 N 
ATOM      3  C   UNL     1       0.763  -0.361   0.036  0.00  0.00    +0.241 C 
ATOM      4  H   UNL     1       0.036  -1.456   1.602  0.00  0.00    +0.150 HD
ENDROOT
BRANCH   3   7
ATOM      5  O   UNL     1       3.790  -1.474   0.121  0.00  0.00    -0.277 OA
ATOM      6  N   UNL     1       2.900   0.656   0.279  0.00  0.00    -0.275 N 
ATOM      7  C   UNL     1       1.699   0.281   1.015  0.00  0.00    +0.152 C 
ATOM      8  C   UNL     1       1.145   1.597   1.548  0.00  0.00    +0.031 C 
ATOM      9  C   UNL     1       1.608   2.622   0.515  0.00  0.00    +0.024 C 
ATOM     10  C   UNL     1       2.976   2.104   0.098  0.00  0.00    +0.094 C 
ATOM     11  C   UNL     1       3.890  -0.258  -0.046  0.00  0.00    +0.205 C 
BRANCH  11  12
ATOM     12  C   UNL     1       5.141   0.328  -0.650  0.00  0.00    +0.013 C 
BRANCH  12  13
ATOM     13  N   UNL     1       4.873   0.417  -2.079  0.00  0.00    +0.387 N 
ATOM     14  H   UNL     1       4.059   1.011  -2.236  0.00  0.00    -0.089 HD
ATOM     15  H   UNL     1       4.690  -0.516  -2.449  0.00  0.00    -0.089 HD
ATOM     16  H   UNL     1       5.683   0.818  -2.552  0.00  0.00    -0.089 HD
ENDBRANCH  12  13
BRANCH  12  17
ATOM     17  C   UNL     1       6.354  -0.553  -0.364  0.00  0.00    -0.013 C 
ATOM     18  C   UNL     1       6.616  -0.717   1.128  0.00  0.00    -0.002 C 
ENDBRANCH  12  17
ENDBRANCH  11  12
ENDBRANCH   3   7
BRANCH   2  19
ATOM     19  C   UNL     1      -1.074  -2.035  -0.084  0.00  0.00    +0.116 C 
BRANCH  19  20
ATOM     20  C   UNL     1      -2.396  -1.322  -0.096  0.00  0.00    -0.003 C 
ATOM     21  C   UNL     1      -3.192  -1.312   1.049  0.00  0.00    -0.003 C 
ATOM     22  C   UNL     1      -2.827  -0.672  -1.252  0.00  0.00    -0.003 C 
ATOM     23  C   UNL     1      -4.421  -0.651   1.038  0.00  0.00    +0.002 C 
ATOM     24  C   UNL     1      -4.056  -0.011  -1.263  0.00  0.00    +0.002 C 
ATOM     25  C   UNL     1      -4.853  -0.001  -0.118  0.00  0.00    +0.031 C 
BRANCH  25  28
ATOM     26  N   UNL     1      -6.951   0.716   0.999  0.00  0.00    -0.343 N 
ATOM     27  N   UNL     1      -6.542   1.300  -1.227  0.00  0.00    -0.285 NA
ATOM     28  C   UNL     1      -6.133   0.688  -0.129  0.00  0.00    +0.117 C 
ATOM     29  H   UNL     1      -7.814   1.189   0.969  0.00  0.00    +0.144 HD
ATOM     30  H   UNL     1      -6.666   0.263   1.825  0.00  0.00    +0.144 HD
ATOM     31  H   UNL     1      -7.408   1.767  -1.236  0.00  0.00    +0.188 HD
ENDBRANCH  25  28
ENDBRANCH  19  20
ENDBRANCH   2  19
TORSDOF 7
