REMARK  Name = 5311236
REMARK  18 active torsions:
REMARK  status: ('A' for Active; 'I' for Inactive)
REMARK    1  A    between atoms: C_1  and  C_10
REMARK    2  A    between atoms: C_2  and  C_21
REMARK    3  A    between atoms: C_3  and  O_6
REMARK    4  A    between atoms: C_4  and  O_8
REMARK    5  A    between atoms: C_10  and  C_11
REMARK    6  A    between atoms: C_11  and  C_13
REMARK    7  A    between atoms: C_13  and  C_14
REMARK    8  A    between atoms: C_14  and  C_15
REMARK    9  A    between atoms: C_15  and  C_16
REMARK   10  A    between atoms: C_16  and  C_17
REMARK   11  A    between atoms: C_17  and  C_18
REMARK   12  A    between atoms: C_18  and  C_19
REMARK   13  A    between atoms: C_21  and  C_22
REMARK   14  A    between atoms: C_23  and  C_24
REMARK   15  A    between atoms: C_24  and  C_25
REMARK   16  A    between atoms: C_25  and  C_26
REMARK   17  A    between atoms: C_26  and  C_28
REMARK   18  A    between atoms: C_28  and  O_29
REMARK                            x       y       z     vdW  Elec       q    Type
REMARK                         _______ _______ _______ _____ _____    ______ ____
ROOT
ATOM      1  C   UNL     1       1.792  -1.846   0.091  0.00  0.00    +0.030 C 
ATOM      2  C   UNL     1       3.189  -1.211   0.143  0.00  0.00    +0.034 C 
ATOM      3  C   UNL     1       1.800  -2.597  -1.248  0.00  0.00    +0.113 C 
ATOM      4  C   UNL     1       4.077  -2.343  -0.389  0.00  0.00    +0.113 C 
ATOM      5  C   UNL     1       3.268  -2.937  -1.545  0.00  0.00    +0.058 C 
ENDROOT
BRANCH   3   6
ATOM      6  O   UNL     1       1.013  -3.774  -1.144  0.00  0.00    -0.384 OA
ATOM      7  H   UNL     1       0.092  -3.533  -0.957  0.00  0.00    +0.210 HD
ENDBRANCH   3   6
BRANCH   4   8
ATOM      8  O   UNL     1       4.277  -3.362   0.584  0.00  0.00    -0.384 OA
ATOM      9  H   UNL     1       4.789  -3.003   1.326  0.00  0.00    +0.210 HD
ENDBRANCH   4   8
BRANCH   1  10
ATOM     10  C   UNL     1       0.655  -0.836   0.181  0.00  0.00    +0.010 C 
BRANCH  10  11
ATOM     11  C   UNL     1      -0.707  -1.517   0.080  0.00  0.00    +0.065 C 
BRANCH  11  13
ATOM     12  O   UNL     1      -1.684   0.687   0.252  0.00  0.00    -0.296 OA
ATOM     13  C   UNL     1      -1.858  -0.525   0.136  0.00  0.00    +0.151 C 
BRANCH  13  14
ATOM     14  C   UNL     1      -3.257  -1.104   0.072  0.00  0.00    +0.065 C 
BRANCH  14  15
ATOM     15  C   UNL     1      -4.304  -0.001   0.174  0.00  0.00    +0.008 C 
BRANCH  15  16
ATOM     16  C   UNL     1      -5.721  -0.575   0.152  0.00  0.00    +0.000 C 
BRANCH  16  17
ATOM     17  C   UNL     1      -6.772   0.534   0.221  0.00  0.00    +0.000 C 
BRANCH  17  18
ATOM     18  C   UNL     1      -8.189  -0.039   0.166  0.00  0.00    +0.000 C 
BRANCH  18  19
ATOM     19  C   UNL     1      -9.239   1.071   0.201  0.00  0.00    +0.000 C 
ATOM     20  C   UNL     1     -10.650   0.504   0.180  0.00  0.00    +0.000 C 
ENDBRANCH  18  19
ENDBRANCH  17  18
ENDBRANCH  16  17
ENDBRANCH  15  16
ENDBRANCH  14  15
ENDBRANCH  13  14
ENDBRANCH  11  13
ENDBRANCH  10  11
ENDBRANCH   1  10
BRANCH   2  21
ATOM     21  C   UNL     1       3.573  -0.709   1.528  0.00  0.00    +0.028 C 
BRANCH  21  22
ATOM     22  C   UNL     1       4.945  -0.111   1.678  0.00  0.00    -0.031 C 
ATOM     23  C   UNL     1       5.299   1.167   1.469  0.00  0.00    -0.031 C 
BRANCH  23  24
ATOM     24  C   UNL     1       4.338   2.236   1.036  0.00  0.00    +0.026 C 
BRANCH  24  25
ATOM     25  C   UNL     1       4.702   2.884  -0.307  0.00  0.00    +0.016 C 
BRANCH  25  26
ATOM     26  C   UNL     1       3.736   3.990  -0.745  0.00  0.00    +0.110 C 
BRANCH  26  28
ATOM     27  O   UNL     1       1.986   2.390  -1.296  0.00  0.00    -0.250 OA
ATOM     28  C   UNL     1       2.314   3.514  -0.944  0.00  0.00    +0.314 C 
BRANCH  28  29
ATOM     29  O   UNL     1       1.416   4.510  -0.725  0.00  0.00    -0.480 OA
ATOM     30  H   UNL     1       1.713   5.357  -0.456  0.00  0.00    +0.295 HD
ENDBRANCH  28  29
ENDBRANCH  26  28
ENDBRANCH  25  26
ENDBRANCH  24  25
ENDBRANCH  23  24
ENDBRANCH  21  22
ENDBRANCH   2  21
TORSDOF 18
