REMARK  Name = 11840906
REMARK  7 active torsions:
REMARK  status: ('A' for Active; 'I' for Inactive)
REMARK    1  A    between atoms: O_1  and  C_3
REMARK    2  A    between atoms: O_1  and  C_18
REMARK    3  A    between atoms: C_5  and  C_9
REMARK    4  A    between atoms: C_18  and  C_19
REMARK    5  A    between atoms: C_19  and  N_20
REMARK    6  A    between atoms: C_19  and  C_24
REMARK    7  A    between atoms: C_24  and  C_26
REMARK                            x       y       z     vdW  Elec       q    Type
REMARK                         _______ _______ _______ _____ _____    ______ ____
ROOT
ATOM      1  O   UNL     1      -1.083  -2.527  -0.821  0.00  0.00    -0.476 OA
ENDROOT
BRANCH   1   3
ATOM      2  N   UNL     1       1.705  -4.095   0.927  0.00  0.00    -0.239 NA
ATOM      3  C   UNL     1       0.167  -2.697  -0.284  0.00  0.00    +0.158 C 
ATOM      4  C   UNL     1       1.121  -1.702  -0.396  0.00  0.00    +0.040 C 
ATOM      5  C   UNL     1       2.380  -1.904   0.159  0.00  0.00    +0.022 C 
ATOM      6  C   UNL     1       0.493  -3.863   0.375  0.00  0.00    +0.136 C 
ATOM      7  C   UNL     1       2.619  -3.106   0.804  0.00  0.00    +0.099 C 
BRANCH   5   9
ATOM      8  N   UNL     1       6.053   3.413  -0.263  0.00  0.00    -0.242 NA
ATOM      9  C   UNL     1       3.405  -0.891   0.066  0.00  0.00    +0.002 C 
ATOM     10  C   UNL     1       4.037   1.456  -0.080  0.00  0.00    +0.003 C 
ATOM     11  C   UNL     1       3.051   0.460   0.012  0.00  0.00    +0.000 C 
ATOM     12  C   UNL     1       5.394   1.077  -0.117  0.00  0.00    +0.019 C 
ATOM     13  C   UNL     1       4.749  -1.260   0.028  0.00  0.00    +0.000 C 
ATOM     14  C   UNL     1       5.741  -0.283  -0.063  0.00  0.00    +0.002 C 
ATOM     15  C   UNL     1       3.712   2.817  -0.135  0.00  0.00    +0.021 C 
ATOM     16  C   UNL     1       6.346   2.094  -0.208  0.00  0.00    +0.099 C 
ATOM     17  C   UNL     1       4.743   3.739  -0.224  0.00  0.00    +0.099 C 
ENDBRANCH   5   9
ENDBRANCH   1   3
BRANCH   1  18
ATOM     18  C   UNL     1      -2.156  -3.193  -0.168  0.00  0.00    +0.184 C 
BRANCH  18  19
ATOM     19  C   UNL     1      -3.459  -2.417  -0.387  0.00  0.00    -0.021 C 
BRANCH  19  20
ATOM     20  N   UNL     1      -4.556  -3.160   0.234  0.00  0.00    +0.384 N 
ATOM     21  H   UNL     1      -5.431  -2.653   0.096  0.00  0.00    -0.089 HD
ATOM     22  H   UNL     1      -4.376  -3.261   1.233  0.00  0.00    -0.089 HD
ATOM     23  H   UNL     1      -4.627  -4.083  -0.194  0.00  0.00    -0.089 HD
ENDBRANCH  19  20
BRANCH  19  24
ATOM     24  C   UNL     1      -3.366  -0.986   0.184  0.00  0.00    -0.012 C 
BRANCH  24  26
ATOM     25  N   UNL     1      -4.882   1.375  -1.835  0.00  0.00    -0.270 NA
ATOM     26  C   UNL     1      -4.622  -0.160  -0.020  0.00  0.00    +0.046 C 
ATOM     27  C   UNL     1      -4.508   1.250   0.462  0.00  0.00    -0.007 C 
ATOM     28  C   UNL     1      -4.856   0.120  -1.501  0.00  0.00    +0.130 C 
ATOM     29  C   UNL     1      -4.673   2.093  -0.644  0.00  0.00    +0.071 C 
ATOM     30  C   UNL     1      -4.294   1.752   1.731  0.00  0.00    -0.024 C 
ATOM     31  C   UNL     1      -4.620   3.469  -0.500  0.00  0.00    +0.014 C 
ATOM     32  C   UNL     1      -4.239   3.139   1.884  0.00  0.00    +0.052 C 
ATOM     33  C   UNL     1      -4.400   3.990   0.778  0.00  0.00    -0.020 C 
ENDBRANCH  24  26
ENDBRANCH  19  24
ENDBRANCH  18  19
ENDBRANCH   1  18
TORSDOF 7
