REMARK  Name = 159326
REMARK  3 active torsions:
REMARK  status: ('A' for Active; 'I' for Inactive)
REMARK    1  A    between atoms: C_1  and  C_16
REMARK    2  A    between atoms: C_2  and  O_21
REMARK    3  A    between atoms: O_21  and  C_22
REMARK                            x       y       z     vdW  Elec       q    Type
REMARK                         _______ _______ _______ _____ _____    ______ ____
ROOT
ATOM      1  C   UNL     1      -1.103   2.334  -0.199  0.00  0.00    +0.061 C 
ATOM      2  C   UNL     1      -1.631   1.177  -0.776  0.00  0.00    +0.147 C 
ATOM      3  C   UNL     1      -1.796   3.542  -0.312  0.00  0.00    +0.005 C 
ATOM      4  C   UNL     1      -2.845   1.227  -1.462  0.00  0.00    +0.038 C 
ATOM      5  C   UNL     1      -3.009   3.592  -0.998  0.00  0.00    +0.000 C 
ATOM      6  C   UNL     1      -3.534   2.435  -1.573  0.00  0.00    +0.003 C 
ENDROOT
BRANCH   1  16
ATOM      7  S   UNL     1       1.994   2.836   2.159  0.00  0.00    -0.059 S 
ATOM      8  N   UNL     1       4.928  -0.639   0.340  0.00  0.00    -0.306 N 
ATOM      9  N   UNL     1       2.853  -0.564  -0.839  0.00  0.00    -0.243 NA
ATOM     10  N   UNL     1       3.321   0.884   0.932  0.00  0.00    -0.257 N 
ATOM     11  N   UNL     1       1.142   1.409   0.180  0.00  0.00    -0.384 NA
ATOM     12  C   UNL     1       4.341  -2.560  -0.979  0.00  0.00    +0.048 C 
ATOM     13  C   UNL     1       5.488  -1.731  -0.421  0.00  0.00    +0.091 C 
ATOM     14  C   UNL     1       3.350  -1.649  -1.700  0.00  0.00    +0.130 C 
ATOM     15  C   UNL     1       3.666  -0.138   0.083  0.00  0.00    +0.183 C 
ATOM     16  C   UNL     1       0.143   2.304   0.510  0.00  0.00    +0.125 C 
ATOM     17  C   UNL     1       2.169   1.595   0.983  0.00  0.00    +0.213 C 
ATOM     18  C   UNL     1       0.421   3.158   1.557  0.00  0.00    +0.125 C 
ATOM     19  H   UNL     1       5.461  -0.239   1.065  0.00  0.00    +0.149 HD
ATOM     20  H   UNL     1       4.004   1.134   1.596  0.00  0.00    +0.158 HD
ENDBRANCH   1  16
BRANCH   2  21
ATOM     21  O   UNL     1      -0.979  -0.018  -0.684  0.00  0.00    -0.454 OA
BRANCH  21  22
ATOM     22  C   UNL     1      -1.639  -1.062  -0.060  0.00  0.00    +0.141 C 
ATOM     23  C   UNL     1      -1.899  -2.230  -0.755  0.00  0.00    +0.012 C 
ATOM     24  C   UNL     1      -2.957  -3.132   1.221  0.00  0.00    -0.022 C 
ATOM     25  C   UNL     1      -2.563  -3.273  -0.109  0.00  0.00    -0.006 C 
ATOM     26  C   UNL     1      -2.022  -0.904   1.261  0.00  0.00    +0.037 C 
ATOM     27  C   UNL     1      -2.686  -1.948   1.907  0.00  0.00    -0.001 C 
ATOM     28  C   UNL     1      -1.487  -2.398  -2.180  0.00  0.00    +0.034 C 
ATOM     29  C   UNL     1      -3.666  -4.247   1.913  0.00  0.00    +0.031 C 
ENDBRANCH  21  22
ENDBRANCH   2  21
TORSDOF 3
