REMARK  Name = 6914625
REMARK  5 active torsions:
REMARK  status: ('A' for Active; 'I' for Inactive)
REMARK    1  A    between atoms: N_3  and  C_28
REMARK    2  A    between atoms: C_11  and  C_18
REMARK    3  A    between atoms: C_19  and  C_26
REMARK    4  A    between atoms: C_28  and  C_29
REMARK    5  A    between atoms: C_29  and  N_31
REMARK                            x       y       z     vdW  Elec       q    Type
REMARK                         _______ _______ _______ _____ _____    ______ ____
ROOT
ATOM      1  S   UNL     1       2.244   3.273  -0.052  0.00  0.00    -0.105 S 
ATOM      2  O   UNL     1       4.211   0.273   1.088  0.00  0.00    -0.274 OA
ATOM      3  N   UNL     1       1.919   0.287   0.760  0.00  0.00    -0.256 N 
ATOM      4  C   UNL     1       3.403   1.931  -0.437  0.00  0.00    +0.112 C 
ATOM      5  C   UNL     1       0.719   0.975   0.362  0.00  0.00    +0.059 C 
ATOM      6  C   UNL     1       3.215   0.786   0.562  0.00  0.00    +0.238 C 
ATOM      7  C   UNL     1       0.742   2.326  -0.021  0.00  0.00    +0.039 C 
ATOM      8  C   UNL     1       3.213   1.424  -1.874  0.00  0.00    +0.020 C 
ATOM      9  C   UNL     1       4.816   2.526  -0.310  0.00  0.00    +0.020 C 
ATOM     10  C   UNL     1      -0.530   0.324   0.390  0.00  0.00    +0.012 C 
ATOM     11  C   UNL     1      -1.708   0.989   0.041  0.00  0.00    -0.007 C 
ATOM     12  C   UNL     1      -0.448   2.992  -0.360  0.00  0.00    +0.007 C 
ATOM     13  C   UNL     1      -1.668   2.324  -0.334  0.00  0.00    -0.003 C 
ENDROOT
BRANCH  11  18
ATOM     14  N   UNL     1      -4.632  -1.054  -1.045  0.00  0.00    -0.337 NA
ATOM     15  N   UNL     1      -4.953  -0.408   1.254  0.00  0.00    -0.317 NA
ATOM     16  N   UNL     1      -3.337   0.907   2.371  0.00  0.00    -0.335 N 
ATOM     17  N   UNL     1      -6.550  -1.714   0.135  0.00  0.00    -0.283 N 
ATOM     18  C   UNL     1      -2.973   0.286   0.073  0.00  0.00    +0.138 C 
ATOM     19  C   UNL     1      -3.460  -0.386  -1.030  0.00  0.00    +0.112 C 
ATOM     20  C   UNL     1      -3.772   0.240   1.199  0.00  0.00    +0.178 C 
ATOM     21  C   UNL     1      -5.318  -1.025   0.114  0.00  0.00    +0.196 C 
ATOM     22  H   UNL     1      -3.892   0.886   3.184  0.00  0.00    +0.144 HD
ATOM     23  H   UNL     1      -2.480   1.392   2.373  0.00  0.00    +0.144 HD
ATOM     24  H   UNL     1      -6.866  -2.183  -0.671  0.00  0.00    +0.156 HD
ATOM     25  H   UNL     1      -7.093  -1.726   0.956  0.00  0.00    +0.156 HD
BRANCH  19  26
ATOM     26  C   UNL     1      -2.693  -0.415  -2.313  0.00  0.00    +0.056 C 
ATOM     27  C   UNL     1      -1.735  -1.599  -2.386  0.00  0.00    +0.008 C 
ENDBRANCH  19  26
ENDBRANCH  11  18
BRANCH   3  28
ATOM     28  C   UNL     1       1.775  -0.987   1.470  0.00  0.00    +0.119 C 
BRANCH  28  29
ATOM     29  C   UNL     1       1.667  -2.165   0.517  0.00  0.00    +0.111 C 
BRANCH  29  31
ATOM     30  O   UNL     1       4.062  -3.701   1.090  0.00  0.00    -0.275 OA
ATOM     31  N   UNL     1       2.836  -2.300  -0.308  0.00  0.00    -0.303 N 
ATOM     32  C   UNL     1       3.941  -3.060   0.050  0.00  0.00    +0.223 C 
ATOM     33  C   UNL     1       5.014  -3.050  -1.006  0.00  0.00    +0.095 C 
ATOM     34  H   UNL     1       2.854  -1.828  -1.172  0.00  0.00    +0.149 HD
ENDBRANCH  29  31
ENDBRANCH  28  29
ENDBRANCH   3  28
TORSDOF 5
