208901
  -OEChem-10051720503D

 52 53  0     1  0  0  0  0  0999 V2000
    4.4315   -2.7631   -0.5297 S   0  0  0  0  0  0  0  0  0  0  0  0
   -3.8299   -1.8236   -0.2364 O   0  0  0  0  0  0  0  0  0  0  0  0
    0.6715    2.9920   -0.7564 O   0  0  0  0  0  0  0  0  0  0  0  0
    4.6574   -1.6859    0.6838 O   0  0  0  0  0  0  0  0  0  0  0  0
   -6.5998   -0.0278    1.1636 O   0  0  0  0  0  0  0  0  0  0  0  0
   -6.4212   -2.1281    0.3210 O   0  0  0  0  0  0  0  0  0  0  0  0
    3.0316   -2.7869   -0.9038 O   0  0  0  0  0  0  0  0  0  0  0  0
    5.4909   -2.6215   -1.5084 O   0  0  0  0  0  0  0  0  0  0  0  0
   -4.3803    0.4592   -0.7489 C   0  0  0  0  0  0  0  0  0  0  0  0
   -4.4745   -0.6701    0.2901 C   0  0  1  0  0  0  0  0  0  0  0  0
   -3.0475    1.1280   -0.7507 C   0  0  0  0  0  0  0  0  0  0  0  0
    2.6063    3.5686    0.5664 C   0  0  0  0  0  0  0  0  0  0  0  0
    1.0791    3.6118    0.4565 C   0  0  0  0  0  0  0  0  0  0  0  0
   -2.0290    0.6497   -1.5751 C   0  0  0  0  0  0  0  0  0  0  0  0
   -2.8189    2.2312    0.0716 C   0  0  0  0  0  0  0  0  0  0  0  0
    3.1487    2.1799    0.5979 C   0  0  0  0  0  0  0  0  0  0  0  0
   -0.5537    2.3781   -0.7549 C   0  0  0  0  0  0  0  0  0  0  0  0
   -0.7821    1.2748   -1.5773 C   0  0  0  0  0  0  0  0  0  0  0  0
   -1.5721    2.8564    0.0696 C   0  0  0  0  0  0  0  0  0  0  0  0
   -5.9163   -1.0417    0.5724 C   0  0  0  0  0  0  0  0  0  0  0  0
    3.3156    1.5232    1.8172 C   0  0  0  0  0  0  0  0  0  0  0  0
    3.4889    1.5374   -0.5926 C   0  0  0  0  0  0  0  0  0  0  0  0
   -3.4600   -2.7291    0.7940 C   0  0  0  0  0  0  0  0  0  0  0  0
    4.1631   -0.4182    0.6555 C   0  0  0  0  0  0  0  0  0  0  0  0
    3.8228    0.2242    1.8461 C   0  0  0  0  0  0  0  0  0  0  0  0
    3.9962    0.2384   -0.5638 C   0  0  0  0  0  0  0  0  0  0  0  0
   -2.7814   -3.9317    0.1734 C   0  0  0  0  0  0  0  0  0  0  0  0
    4.7632   -4.2254    0.4191 C   0  0  0  0  0  0  0  0  0  0  0  0
   -4.5915    0.0641   -1.7521 H   0  0  0  0  0  0  0  0  0  0  0  0
   -5.1523    1.2182   -0.5680 H   0  0  0  0  0  0  0  0  0  0  0  0
   -4.0071   -0.3676    1.2366 H   0  0  0  0  0  0  0  0  0  0  0  0
    3.0457    4.1044   -0.2853 H   0  0  0  0  0  0  0  0  0  0  0  0
    2.9239    4.1154    1.4629 H   0  0  0  0  0  0  0  0  0  0  0  0
    0.6643    3.1033    1.3371 H   0  0  0  0  0  0  0  0  0  0  0  0
    0.7458    4.6559    0.4532 H   0  0  0  0  0  0  0  0  0  0  0  0
   -2.1930   -0.2099   -2.2196 H   0  0  0  0  0  0  0  0  0  0  0  0
   -3.6059    2.6154    0.7154 H   0  0  0  0  0  0  0  0  0  0  0  0
    0.0084    0.8975   -2.2202 H   0  0  0  0  0  0  0  0  0  0  0  0
   -1.4451    3.7292    0.7031 H   0  0  0  0  0  0  0  0  0  0  0  0
    3.0522    2.0122    2.7513 H   0  0  0  0  0  0  0  0  0  0  0  0
    3.3676    2.0387   -1.5493 H   0  0  0  0  0  0  0  0  0  0  0  0
   -4.3317   -3.0617    1.3662 H   0  0  0  0  0  0  0  0  0  0  0  0
   -2.7589   -2.2388    1.4793 H   0  0  0  0  0  0  0  0  0  0  0  0
    3.9497   -0.2829    2.7986 H   0  0  0  0  0  0  0  0  0  0  0  0
    4.2660   -0.2198   -1.5097 H   0  0  0  0  0  0  0  0  0  0  0  0
   -3.4568   -4.4369   -0.5249 H   0  0  0  0  0  0  0  0  0  0  0  0
   -1.9012   -3.6243   -0.4009 H   0  0  0  0  0  0  0  0  0  0  0  0
   -2.4699   -4.6451    0.9415 H   0  0  0  0  0  0  0  0  0  0  0  0
   -7.5302   -0.2750    1.3518 H   0  0  0  0  0  0  0  0  0  0  0  0
    4.6591   -5.0896   -0.2403 H   0  0  0  0  0  0  0  0  0  0  0  0
    4.0405   -4.2891    1.2349 H   0  0  0  0  0  0  0  0  0  0  0  0
    5.7823   -4.1721    0.8066 H   0  0  0  0  0  0  0  0  0  0  0  0
  1  4  1  0  0  0  0
  1  7  2  0  0  0  0
  1  8  2  0  0  0  0
  1 28  1  0  0  0  0
  2 10  1  0  0  0  0
  2 23  1  0  0  0  0
  3 13  1  0  0  0  0
  3 17  1  0  0  0  0
  4 24  1  0  0  0  0
  5 20  1  0  0  0  0
  5 49  1  0  0  0  0
  6 20  2  0  0  0  0
  9 10  1  0  0  0  0
  9 11  1  0  0  0  0
  9 29  1  0  0  0  0
  9 30  1  0  0  0  0
 10 20  1  0  0  0  0
 10 31  1  0  0  0  0
 11 14  2  0  0  0  0
 11 15  1  0  0  0  0
 12 13  1  0  0  0  0
 12 16  1  0  0  0  0
 12 32  1  0  0  0  0
 12 33  1  0  0  0  0
 13 34  1  0  0  0  0
 13 35  1  0  0  0  0
 14 18  1  0  0  0  0
 14 36  1  0  0  0  0
 15 19  2  0  0  0  0
 15 37  1  0  0  0  0
 16 21  2  0  0  0  0
 16 22  1  0  0  0  0
 17 18  2  0  0  0  0
 17 19  1  0  0  0  0
 18 38  1  0  0  0  0
 19 39  1  0  0  0  0
 21 25  1  0  0  0  0
 21 40  1  0  0  0  0
 22 26  2  0  0  0  0
 22 41  1  0  0  0  0
 23 27  1  0  0  0  0
 23 42  1  0  0  0  0
 23 43  1  0  0  0  0
 24 25  2  0  0  0  0
 24 26  1  0  0  0  0
 25 44  1  0  0  0  0
 26 45  1  0  0  0  0
 27 46  1  0  0  0  0
 27 47  1  0  0  0  0
 27 48  1  0  0  0  0
 28 50  1  0  0  0  0
 28 51  1  0  0  0  0
 28 52  1  0  0  0  0
M  END
> <DATABASE_ID>
DB06536

> <DATABASE_NAME>
drugbank

> <ORIGINAL_SOURCE>
PUBCHEM

> <ORIGINAL_SOURCE_URL>
https://pubchem.ncbi.nlm.nih.gov/rest/pug/compound/inchikey/CXGTZJYQWSUFET-IBGZPJMESA-N/SDF?record_type=3d

> <SMILES>
CCO[C@@H](CC1=CC=C(OCCC2=CC=C(OS(C)(=O)=O)C=C2)C=C1)C(O)=O

> <INCHI_IDENTIFIER>
InChI=1S/C20H24O7S/c1-3-25-19(20(21)22)14-16-6-8-17(9-7-16)26-13-12-15-4-10-18(11-5-15)27-28(2,23)24/h4-11,19H,3,12-14H2,1-2H3,(H,21,22)/t19-/m0/s1

> <INCHI_KEY>
CXGTZJYQWSUFET-IBGZPJMESA-N

> <FORMULA>
C20H24O7S

> <MOLECULAR_WEIGHT>
408.465

> <EXACT_MASS>
408.124273812

> <JCHEM_ACCEPTOR_COUNT>
6

> <JCHEM_AVERAGE_POLARIZABILITY>
42.56202987241062

> <JCHEM_BIOAVAILABILITY>
1

> <JCHEM_DONOR_COUNT>
1

> <JCHEM_FORMAL_CHARGE>
0

> <JCHEM_GHOSE_FILTER>
1

> <JCHEM_IUPAC>
(2S)-2-ethoxy-3-(4-{2-[4-(methanesulfonyloxy)phenyl]ethoxy}phenyl)propanoic acid

> <ALOGPS_LOGP>
3.18

> <JCHEM_LOGP>
3.142194150999999

> <ALOGPS_LOGS>
-5.07

> <JCHEM_MDDR_LIKE_RULE>
0

> <JCHEM_NUMBER_OF_RINGS>
2

> <JCHEM_PHYSIOLOGICAL_CHARGE>
-1

> <JCHEM_PKA_STRONGEST_ACIDIC>
3.730182447999135

> <JCHEM_PKA_STRONGEST_BASIC>
-4.123135970669264

> <JCHEM_POLAR_SURFACE_AREA>
99.13

> <JCHEM_REFRACTIVITY>
103.52280000000002

> <JCHEM_ROTATABLE_BOND_COUNT>
11

> <JCHEM_RULE_OF_FIVE>
1

> <ALOGPS_SOLUBILITY>
3.51e-03 g/l

> <JCHEM_TRADITIONAL_IUPAC>
galida

> <JCHEM_VEBER_RULE>
0

> <DRUGBANK_ID>
DB06536

> <SECONDARY_ACCESSION_NUMBERS>
DB07399

> <DRUG_GROUPS>
investigational

> <GENERIC_NAME>
Tesaglitazar

> <INTERNATIONAL_BRANDS>
Galida

$$$$
