REMARK  Name = 28145931
REMARK  8 active torsions:
REMARK  status: ('A' for Active; 'I' for Inactive)
REMARK    1  A    between atoms: N_1  and  C_9
REMARK    2  A    between atoms: N_2  and  C_16
REMARK    3  A    between atoms: C_9  and  C_10
REMARK    4  A    between atoms: C_10  and  O_11
REMARK    5  A    between atoms: O_11  and  C_12
REMARK    6  A    between atoms: C_12  and  C_15
REMARK    7  A    between atoms: C_16  and  C_18
REMARK    8  A    between atoms: C_16  and  C_24
REMARK                            x       y       z     vdW  Elec       q    Type
REMARK                         _______ _______ _______ _____ _____    ______ ____
ROOT
ATOM      1  N   UNL     1      -2.337  -0.022   1.296  0.00  0.00    +0.386 N 
ATOM      2  N   UNL     1       0.433  -0.114   0.515  0.00  0.00    +0.390 N 
ATOM      3  C   UNL     1      -1.460  -1.186   1.684  0.00  0.00    -0.101 C 
ATOM      4  C   UNL     1      -1.530   1.243   1.149  0.00  0.00    -0.101 C 
ATOM      5  C   UNL     1      -0.355  -1.347   0.645  0.00  0.00    -0.100 C 
ATOM      6  C   UNL     1      -0.423   1.014   0.126  0.00  0.00    -0.100 C 
ATOM      7  H   UNL     1      -2.740  -0.234   0.384  0.00  0.00    -0.080 HD
ATOM      8  H   UNL     1       0.845   0.097   1.424  0.00  0.00    -0.079 HD
ENDROOT
BRANCH   1   9
ATOM      9  C   UNL     1      -3.491   0.152   2.242  0.00  0.00    -0.045 C 
BRANCH   9  10
ATOM     10  C   UNL     1      -4.561   0.995   1.576  0.00  0.00    +0.120 C 
BRANCH  10  11
ATOM     11  O   UNL     1      -5.035   0.330   0.413  0.00  0.00    -0.345 OA
BRANCH  11  12
ATOM     12  C   UNL     1      -6.049   1.082  -0.241  0.00  0.00    +0.256 C 
BRANCH  12  15
ATOM     13  O   UNL     1      -6.934  -0.866  -1.220  0.00  0.00    -0.243 OA
ATOM     14  O   UNL     1      -6.348   0.888  -2.567  0.00  0.00    -0.243 OA
ATOM     15  C   UNL     1      -6.484   0.289  -1.463  0.00  0.00    +0.394 C 
ENDBRANCH  12  15
ENDBRANCH  11  12
ENDBRANCH  10  11
ENDBRANCH   9  10
ENDBRANCH   1   9
BRANCH   2  16
ATOM     16  C   UNL     1       1.515  -0.296  -0.452  0.00  0.00    -0.012 C 
BRANCH  16  18
ATOM     17 CL   UNL     1       5.566   4.168  -0.233  0.00  0.00    -0.082 Cl
ATOM     18  C   UNL     1       2.537   0.830  -0.397  0.00  0.00    -0.038 C 
ATOM     19  C   UNL     1       3.236   1.194  -1.548  0.00  0.00    -0.005 C 
ATOM     20  C   UNL     1       2.775   1.498   0.805  0.00  0.00    -0.005 C 
ATOM     21  C   UNL     1       4.173   2.226  -1.497  0.00  0.00    +0.011 C 
ATOM     22  C   UNL     1       3.712   2.530   0.855  0.00  0.00    +0.011 C 
ATOM     23  C   UNL     1       4.411   2.894  -0.296  0.00  0.00    +0.058 C 
ENDBRANCH  16  18
BRANCH  16  24
ATOM     24  C   UNL     1       2.172  -1.663  -0.338  0.00  0.00    -0.038 C 
ATOM     25  C   UNL     1       3.262  -1.844   0.514  0.00  0.00    -0.006 C 
ATOM     26  C   UNL     1       1.684  -2.736  -1.083  0.00  0.00    -0.006 C 
ATOM     27  C   UNL     1       3.865  -3.098   0.619  0.00  0.00    -0.000 C 
ATOM     28  C   UNL     1       2.287  -3.990  -0.978  0.00  0.00    -0.000 C 
ATOM     29  C   UNL     1       3.377  -4.171  -0.127  0.00  0.00    -0.000 C 
ENDBRANCH  16  24
ENDBRANCH   2  16
TORSDOF 8
