REMARK  Name = 6918456
REMARK  6 active torsions:
REMARK  status: ('A' for Active; 'I' for Inactive)
REMARK    1  A    between atoms: N_2  and  C_15
REMARK    2  A    between atoms: C_9  and  O_11
REMARK    3  A    between atoms: O_11  and  C_13
REMARK    4  A    between atoms: C_15  and  C_17
REMARK    5  A    between atoms: C_15  and  C_24
REMARK    6  A    between atoms: C_24  and  C_25
REMARK                            x       y       z     vdW  Elec       q    Type
REMARK                         _______ _______ _______ _____ _____    ______ ____
ROOT
ATOM      1  S   UNL     1       3.593  -2.113  -0.138  0.00  0.00    -0.055 S 
ATOM      2  N   UNL     1      -0.483  -0.297  -0.120  0.00  0.00    +0.398 N 
ATOM      3  C   UNL     1      -0.370  -1.498   0.734  0.00  0.00    -0.070 C 
ATOM      4  C   UNL     1       0.664   0.619   0.073  0.00  0.00    -0.048 C 
ATOM      5  C   UNL     1       0.833  -2.367   0.316  0.00  0.00    +0.010 C 
ATOM      6  C   UNL     1       1.953  -0.130  -0.082  0.00  0.00    -0.038 C 
ATOM      7  C   UNL     1       2.022  -1.501   0.058  0.00  0.00    +0.002 C 
ATOM      8  C   UNL     1       3.240   0.426  -0.350  0.00  0.00    +0.038 C 
ATOM      9  C   UNL     1       4.221  -0.542  -0.408  0.00  0.00    +0.177 C 
ATOM     10  H   UNL     1      -0.476  -0.610  -1.091  0.00  0.00    -0.078 HD
ENDROOT
BRANCH   9  11
ATOM     11  O   UNL     1       5.519  -0.373  -0.641  0.00  0.00    -0.417 OA
BRANCH  11  13
ATOM     12  O   UNL     1       5.670   0.974   1.244  0.00  0.00    -0.250 OA
ATOM     13  C   UNL     1       6.156   0.424   0.264  0.00  0.00    +0.323 C 
ATOM     14  C   UNL     1       7.606   0.534  -0.109  0.00  0.00    +0.122 C 
ENDBRANCH  11  13
ENDBRANCH   9  11
BRANCH   2  15
ATOM     15  C   UNL     1      -1.737   0.407   0.148  0.00  0.00    +0.027 C 
BRANCH  15  17
ATOM     16  F   UNL     1      -3.538  -0.177   2.246  0.00  0.00    -0.205 F 
ATOM     17  C   UNL     1      -2.949  -0.481  -0.033  0.00  0.00    -0.007 C 
ATOM     18  C   UNL     1      -3.784  -0.719   1.045  0.00  0.00    +0.135 C 
ATOM     19  C   UNL     1      -3.195  -1.038  -1.276  0.00  0.00    -0.004 C 
ATOM     20  C   UNL     1      -4.900  -1.538   0.875  0.00  0.00    +0.029 C 
ATOM     21  C   UNL     1      -4.311  -1.857  -1.447  0.00  0.00    -0.000 C 
ATOM     22  C   UNL     1      -5.163  -2.107  -0.371  0.00  0.00    +0.002 C 
ENDBRANCH  15  17
BRANCH  15  24
ATOM     23  O   UNL     1      -1.869   1.612  -1.965  0.00  0.00    -0.298 OA
ATOM     24  C   UNL     1      -1.790   1.638  -0.742  0.00  0.00    +0.135 C 
BRANCH  24  25
ATOM     25  C   UNL     1      -1.757   2.955  -0.035  0.00  0.00    +0.056 C 
ATOM     26  C   UNL     1      -2.852   3.928  -0.303  0.00  0.00    +0.008 C 
ATOM     27  C   UNL     1      -2.778   3.218   1.017  0.00  0.00    +0.008 C 
ENDBRANCH  24  25
ENDBRANCH  15  24
ENDBRANCH   2  15
TORSDOF 6
