REMARK  Name = 24768549
REMARK  6 active torsions:
REMARK  status: ('A' for Active; 'I' for Inactive)
REMARK    1  A    between atoms: C_2  and  C_11
REMARK    2  A    between atoms: C_11  and  C_13
REMARK    3  A    between atoms: C_11  and  C_16
REMARK    4  A    between atoms: C_13  and  O_14
REMARK    5  A    between atoms: C_16  and  C_17
REMARK    6  A    between atoms: C_17  and  C_18
REMARK                            x       y       z     vdW  Elec       q    Type
REMARK                         _______ _______ _______ _____ _____    ______ ____
ROOT
ATOM      1  N   UNL     1       1.562   0.306  -1.968  0.00  0.00    -0.312 N 
ATOM      2  C   UNL     1       0.094   0.532  -0.318  0.00  0.00    +0.004 C 
ATOM      3  C   UNL     1       1.289  -0.020   0.223  0.00  0.00    +0.011 C 
ATOM      4  C   UNL     1       2.194  -0.152  -0.833  0.00  0.00    +0.048 C 
ATOM      5  C   UNL     1       0.293   0.722  -1.666  0.00  0.00    +0.058 C 
ATOM      6  C   UNL     1       1.689  -0.421   1.513  0.00  0.00    +0.001 C 
ATOM      7  C   UNL     1       3.484  -0.667  -0.662  0.00  0.00    +0.015 C 
ATOM      8  C   UNL     1       2.976  -0.939   1.698  0.00  0.00    +0.000 C 
ATOM      9  C   UNL     1       3.858  -1.059   0.626  0.00  0.00    +0.001 C 
ATOM     10  H   UNL     1       1.965   0.331  -2.866  0.00  0.00    +0.152 HD
ENDROOT
BRANCH   2  11
ATOM     11  C   UNL     1      -1.182   0.859   0.448  0.00  0.00    +0.122 C 
BRANCH  11  13
ATOM     12  O   UNL     1      -0.804   3.163  -0.262  0.00  0.00    -0.250 OA
ATOM     13  C   UNL     1      -1.466   2.354   0.378  0.00  0.00    +0.317 C 
BRANCH  13  14
ATOM     14  O   UNL     1      -2.537   2.717   1.130  0.00  0.00    -0.480 OA
ATOM     15  H   UNL     1      -3.017   2.069   1.605  0.00  0.00    +0.295 HD
ENDBRANCH  13  14
ENDBRANCH  11  13
BRANCH  11  16
ATOM     16  C   UNL     1      -2.406   0.061  -0.049  0.00  0.00    +0.016 C 
BRANCH  16  17
ATOM     17  C   UNL     1      -2.238  -1.454   0.125  0.00  0.00    +0.001 C 
BRANCH  17  18
ATOM     18  C   UNL     1      -3.470  -2.252  -0.309  0.00  0.00    +0.000 C 
ATOM     19  C   UNL     1      -3.338  -3.749  -0.074  0.00  0.00    +0.000 C 
ENDBRANCH  17  18
ENDBRANCH  16  17
ENDBRANCH  11  16
ENDBRANCH   2  11
TORSDOF 6
