REMARK  Name = 11688894
REMARK  7 active torsions:
REMARK  status: ('A' for Active; 'I' for Inactive)
REMARK    1  A    between atoms: N_1  and  C_4
REMARK    2  A    between atoms: N_1  and  C_17
REMARK    3  A    between atoms: C_5  and  C_13
REMARK    4  A    between atoms: C_13  and  O_14
REMARK    5  A    between atoms: O_14  and  C_15
REMARK    6  A    between atoms: C_17  and  C_21
REMARK    7  A    between atoms: C_22  and  C_27
REMARK                            x       y       z     vdW  Elec       q    Type
REMARK                         _______ _______ _______ _____ _____    ______ ____
ROOT
ATOM      1  N   UNL     1      -0.365  -1.284   0.138  0.00  0.00    +0.392 N 
ATOM      2  H   UNL     1      -0.406  -1.805   1.014  0.00  0.00    -0.084 HD
ATOM      3  H   UNL     1      -0.609  -1.888  -0.647  0.00  0.00    -0.084 HD
ENDROOT
BRANCH   1   4
ATOM      4  C   UNL     1       0.994  -0.787  -0.060  0.00  0.00    -0.045 C 
ATOM      5  C   UNL     1       3.424   0.092  -0.395  0.00  0.00    +0.089 C 
ATOM      6  C   UNL     1       1.987  -1.966  -0.127  0.00  0.00    -0.019 C 
ATOM      7  C   UNL     1       1.400   0.130   1.113  0.00  0.00    -0.019 C 
ATOM      8  C   UNL     1       1.098   0.020  -1.373  0.00  0.00    -0.019 C 
ATOM      9  C   UNL     1       3.418  -1.446  -0.327  0.00  0.00    +0.009 C 
ATOM     10  C   UNL     1       2.833   0.647   0.913  0.00  0.00    +0.009 C 
ATOM     11  C   UNL     1       2.531   0.537  -1.568  0.00  0.00    +0.009 C 
BRANCH   5  13
ATOM     12  O   UNL     1       5.169   1.276  -1.562  0.00  0.00    -0.250 OA
ATOM     13  C   UNL     1       4.820   0.605  -0.600  0.00  0.00    +0.316 C 
BRANCH  13  14
ATOM     14  O   UNL     1       5.609   0.205   0.437  0.00  0.00    -0.449 OA
BRANCH  14  15
ATOM     15  C   UNL     1       6.975   0.626   0.369  0.00  0.00    +0.209 C 
ATOM     16  C   UNL     1       7.713   0.106   1.584  0.00  0.00    +0.051 C 
ENDBRANCH  14  15
ENDBRANCH  13  14
ENDBRANCH   5  13
ENDBRANCH   1   4
BRANCH   1  17
ATOM     17  C   UNL     1      -1.316  -0.184   0.193  0.00  0.00    +0.006 C 
BRANCH  17  21
ATOM     18  F   UNL     1      -5.518   2.078  -0.906  0.00  0.00    -0.235 F 
ATOM     19  O   UNL     1      -2.814  -2.013   0.474  0.00  0.00    -0.277 OA
ATOM     20  N   UNL     1      -3.733   0.112   0.462  0.00  0.00    -0.267 N 
ATOM     21  C   UNL     1      -2.682  -0.790   0.391  0.00  0.00    +0.205 C 
ATOM     22  C   UNL     1      -5.107  -0.302   0.750  0.00  0.00    +0.170 C 
ATOM     23  C   UNL     1      -3.621   1.568   0.369  0.00  0.00    +0.129 C 
ATOM     24  C   UNL     1      -5.805   0.997   1.161  0.00  0.00    +0.073 C 
ATOM     25  C   UNL     1      -5.056   2.064   0.373  0.00  0.00    +0.183 C 
BRANCH  22  27
ATOM     26  N   UNL     1      -6.224  -1.385  -1.373  0.00  0.00    -0.194 NA
ATOM     27  C   UNL     1      -5.731  -0.907  -0.437  0.00  0.00    +0.093 C 
ENDBRANCH  22  27
ENDBRANCH  17  21
ENDBRANCH   1  17
TORSDOF 7
