REMARK  Name = 7558
REMARK  3 active torsions:
REMARK  status: ('A' for Active; 'I' for Inactive)
REMARK    1  A    between atoms: C_1  and  C_2
REMARK    2  A    between atoms: C_1  and  C_8
REMARK    3  A    between atoms: C_8  and  N_10
REMARK                            x       y       z     vdW  Elec       q    Type
REMARK                         _______ _______ _______ _____ _____    ______ ____
ROOT
ATOM      1  C   UNL     1      -0.732  -1.094   0.227  0.00  0.00    -0.021 C 
ENDROOT
BRANCH   1   2
ATOM      2  C   UNL     1       0.523  -0.334  -0.198  0.00  0.00    -0.002 C 
ATOM      3  C   UNL     1       0.904   0.716   0.855  0.00  0.00    -0.000 C 
ATOM      4  C   UNL     1       1.686  -1.304  -0.447  0.00  0.00    -0.000 C 
ATOM      5  C   UNL     1       2.187   1.454   0.478  0.00  0.00    -0.000 C 
ATOM      6  C   UNL     1       2.968  -0.563  -0.822  0.00  0.00    -0.000 C 
ATOM      7  C   UNL     1       3.338   0.486   0.223  0.00  0.00    -0.000 C 
ENDBRANCH   1   2
BRANCH   1   8
ATOM      8  C   UNL     1      -1.966  -0.195   0.389  0.00  0.00    -0.062 C 
ATOM      9  C   UNL     1      -3.170  -1.023   0.836  0.00  0.00    -0.023 C 
BRANCH   8  10
ATOM     10  N   UNL     1      -2.300   0.485  -0.863  0.00  0.00    +0.384 N 
ATOM     11  C   UNL     1      -3.438   1.371  -0.678  0.00  0.00    -0.106 C 
ATOM     12  H   UNL     1      -2.530  -0.212  -1.571  0.00  0.00    -0.085 HD
ATOM     13  H   UNL     1      -1.497   1.040  -1.159  0.00  0.00    -0.085 HD
ENDBRANCH   8  10
ENDBRANCH   1   8
TORSDOF 3
