REMARK  Name = 9690109
REMARK  5 active torsions:
REMARK  status: ('A' for Active; 'I' for Inactive)
REMARK    1  A    between atoms: C_1  and  C_2
REMARK    2  A    between atoms: C_1  and  C_8
REMARK    3  A    between atoms: C_1  and  S_14
REMARK    4  A    between atoms: S_14  and  C_16
REMARK    5  A    between atoms: C_16  and  C_19
REMARK                            x       y       z     vdW  Elec       q    Type
REMARK                         _______ _______ _______ _____ _____    ______ ____
ROOT
ATOM      1  C   UNL     1      -0.289  -0.248   0.501  0.00  0.00    +0.124 C 
ENDROOT
BRANCH   1   2
ATOM      2  C   UNL     1      -1.732  -0.515   0.236  0.00  0.00    -0.006 C 
ATOM      3  C   UNL     1      -2.675  -0.318   1.245  0.00  0.00    -0.003 C 
ATOM      4  C   UNL     1      -2.139  -0.963  -1.021  0.00  0.00    -0.003 C 
ATOM      5  C   UNL     1      -4.025  -0.569   0.997  0.00  0.00    -0.000 C 
ATOM      6  C   UNL     1      -3.489  -1.214  -1.269  0.00  0.00    -0.000 C 
ATOM      7  C   UNL     1      -4.431  -1.016  -0.260  0.00  0.00    -0.000 C 
ENDBRANCH   1   2
BRANCH   1   8
ATOM      8  C   UNL     1       0.147   1.187   0.210  0.00  0.00    -0.006 C 
ATOM      9  C   UNL     1       0.684   1.936   1.233  0.00  0.00    -0.003 C 
ATOM     10  C   UNL     1      -0.013   1.680  -1.066  0.00  0.00    -0.003 C 
ATOM     11  C   UNL     1       1.081   3.246   0.967  0.00  0.00    -0.000 C 
ATOM     12  C   UNL     1       0.384   2.991  -1.332  0.00  0.00    -0.000 C 
ATOM     13  C   UNL     1       0.931   3.773  -0.316  0.00  0.00    -0.000 C 
ENDBRANCH   1   8
BRANCH   1  14
ATOM     14  S   UNL     1       0.842  -1.476  -0.298  0.00  0.00    +0.058 S 
ATOM     15  O   UNL     1       0.638  -2.756   0.433  0.00  0.00    -0.255 OA
BRANCH  14  16
ATOM     16  C   UNL     1       2.350  -0.703   0.325  0.00  0.00    +0.177 C 
BRANCH  16  19
ATOM     17  O   UNL     1       3.845  -1.603  -1.330  0.00  0.00    -0.274 OA
ATOM     18  N   UNL     1       4.325  -1.970   0.887  0.00  0.00    -0.328 N 
ATOM     19  C   UNL     1       3.566  -1.462  -0.142  0.00  0.00    +0.233 C 
ATOM     20  H   UNL     1       5.142  -2.483   0.689  0.00  0.00    +0.145 HD
ATOM     21  H   UNL     1       4.053  -1.821   1.821  0.00  0.00    +0.145 HD
ENDBRANCH  16  19
ENDBRANCH  14  16
ENDBRANCH   1  14
TORSDOF 5
