REMARK  Name = 6623
REMARK  4 active torsions:
REMARK  status: ('A' for Active; 'I' for Inactive)
REMARK    1  A    between atoms: C_1  and  C_4
REMARK    2  A    between atoms: C_1  and  C_12
REMARK    3  A    between atoms: C_9  and  O_10
REMARK    4  A    between atoms: C_17  and  O_18
REMARK                            x       y       z     vdW  Elec       q    Type
REMARK                         _______ _______ _______ _____ _____    ______ ____
ROOT
ATOM      1  C   UNL     1       0.007  -1.390   0.000  0.00  0.00    +0.038 C 
ATOM      2  C   UNL     1      -0.139  -2.359   1.234  0.00  0.00    +0.009 C 
ATOM      3  C   UNL     1       0.027  -2.363  -1.232  0.00  0.00    +0.009 C 
ENDROOT
BRANCH   1   4
ATOM      4  C   UNL     1       1.248  -0.564  -0.029  0.00  0.00    -0.019 C 
ATOM      5  C   UNL     1       1.470   0.325  -1.080  0.00  0.00    -0.001 C 
ATOM      6  C   UNL     1       2.187  -0.681   0.996  0.00  0.00    -0.001 C 
ATOM      7  C   UNL     1       2.632   1.097  -1.107  0.00  0.00    +0.036 C 
ATOM      8  C   UNL     1       3.349   0.091   0.970  0.00  0.00    +0.036 C 
ATOM      9  C   UNL     1       3.571   0.981  -0.082  0.00  0.00    +0.134 C 
BRANCH   9  10
ATOM     10  O   UNL     1       4.704   1.734  -0.108  0.00  0.00    -0.506 OA
ATOM     11  H   UNL     1       4.853   2.331  -0.815  0.00  0.00    +0.292 HD
ENDBRANCH   9  10
ENDBRANCH   1   4
BRANCH   1  12
ATOM     12  C   UNL     1      -1.291  -0.516   0.029  0.00  0.00    -0.019 C 
ATOM     13  C   UNL     1      -1.447   0.333   1.080  0.00  0.00    -0.001 C 
ATOM     14  C   UNL     1      -2.170  -0.669  -0.997  0.00  0.00    -0.001 C 
ATOM     15  C   UNL     1      -2.604   1.111   1.106  0.00  0.00    +0.036 C 
ATOM     16  C   UNL     1      -3.326   0.110  -0.970  0.00  0.00    +0.036 C 
ATOM     17  C   UNL     1      -3.544   1.000   0.081  0.00  0.00    +0.134 C 
BRANCH  17  18
ATOM     18  O   UNL     1      -4.673   1.760   0.108  0.00  0.00    -0.506 OA
ATOM     19  H   UNL     1      -4.818   2.358   0.815  0.00  0.00    +0.292 HD
ENDBRANCH  17  18
ENDBRANCH   1  12
TORSDOF 4
