REMARK  Name = 216385
REMARK  5 active torsions:
REMARK  status: ('A' for Active; 'I' for Inactive)
REMARK    1  A    between atoms: O_1  and  C_4
REMARK    2  A    between atoms: O_1  and  C_18
REMARK    3  A    between atoms: C_15  and  O_20
REMARK    4  A    between atoms: C_16  and  O_22
REMARK    5  A    between atoms: C_17  and  O_24
REMARK                            x       y       z     vdW  Elec       q    Type
REMARK                         _______ _______ _______ _____ _____    ______ ____
ROOT
ATOM      1  O   UNL     1       1.311  -0.677   0.405  0.00  0.00    -0.466 OA
ENDROOT
BRANCH   1   4
ATOM      2  O   UNL     1      -2.868   1.601   0.067  0.00  0.00    -0.421 OA
ATOM      3  O   UNL     1      -4.862   2.707  -0.095  0.00  0.00    -0.244 OA
ATOM      4  C   UNL     1      -0.043  -0.727   0.283  0.00  0.00    +0.143 C 
ATOM      5  C   UNL     1      -0.784   0.450   0.235  0.00  0.00    +0.074 C 
ATOM      6  C   UNL     1      -2.850  -0.842   0.030  0.00  0.00    +0.031 C 
ATOM      7  C   UNL     1      -0.693  -1.957   0.206  0.00  0.00    +0.037 C 
ATOM      8  C   UNL     1      -2.172   0.376   0.110  0.00  0.00    +0.151 C 
ATOM      9  C   UNL     1      -2.085  -2.015   0.080  0.00  0.00    +0.006 C 
ATOM     10  C   UNL     1      -4.313  -0.826  -0.101  0.00  0.00    -0.012 C 
ATOM     11  C   UNL     1      -4.948   0.354  -0.140  0.00  0.00    +0.078 C 
ATOM     12  C   UNL     1      -5.070  -2.118  -0.189  0.00  0.00    +0.031 C 
ATOM     13  C   UNL     1      -4.247   1.647  -0.057  0.00  0.00    +0.346 C 
ENDBRANCH   1   4
BRANCH   1  18
ATOM     14  S   UNL     1       3.121  -1.148  -1.522  0.00  0.00    -0.093 S 
ATOM     15  C   UNL     1       3.945   0.813   0.918  0.00  0.00    +0.169 C 
ATOM     16  C   UNL     1       2.790   1.188  -0.024  0.00  0.00    +0.191 C 
ATOM     17  C   UNL     1       4.973  -0.153   0.313  0.00  0.00    +0.151 C 
ATOM     18  C   UNL     1       2.030  -0.003  -0.621  0.00  0.00    +0.243 C 
ATOM     19  C   UNL     1       4.364  -1.446  -0.229  0.00  0.00    +0.093 C 
BRANCH  15  20
ATOM     20  O   UNL     1       3.401   0.242   2.106  0.00  0.00    -0.379 OA
ATOM     21  H   UNL     1       2.751   0.851   2.489  0.00  0.00    +0.211 HD
ENDBRANCH  15  20
BRANCH  16  22
ATOM     22  O   UNL     1       3.286   2.024  -1.068  0.00  0.00    -0.378 OA
ATOM     23  H   UNL     1       3.765   2.774  -0.682  0.00  0.00    +0.211 HD
ENDBRANCH  16  22
BRANCH  17  24
ATOM     24  O   UNL     1       5.713   0.512  -0.708  0.00  0.00    -0.381 OA
ATOM     25  H   UNL     1       6.094   1.330  -0.351  0.00  0.00    +0.210 HD
ENDBRANCH  17  24
ENDBRANCH   1  18
TORSDOF 5
