REMARK  Name = 130956
REMARK  9 active torsions:
REMARK  status: ('A' for Active; 'I' for Inactive)
REMARK    1  A    between atoms: C_1  and  P_2
REMARK    2  A    between atoms: C_1  and  P_8
REMARK    3  A    between atoms: C_1  and  O_14
REMARK    4  A    between atoms: C_1  and  C_16
REMARK    5  A    between atoms: P_2  and  O_4
REMARK    6  A    between atoms: P_2  and  O_6
REMARK    7  A    between atoms: P_8  and  O_10
REMARK    8  A    between atoms: P_8  and  O_12
REMARK    9  A    between atoms: C_16  and  C_19
REMARK                            x       y       z     vdW  Elec       q    Type
REMARK                         _______ _______ _______ _____ _____    ______ ____
ROOT
ATOM      1  C   UNL     1      -1.476   0.157   0.038  0.00  0.00    +0.280 C 
ENDROOT
BRANCH   1   2
ATOM      2  P   UNL     1      -2.912   1.240  -0.396  0.00  0.00    +0.372 P 
ATOM      3  O   UNL     1      -3.610   0.840  -1.661  0.00  0.00    -0.255 OA
BRANCH   2   4
ATOM      4  O   UNL     1      -2.296   2.735  -0.389  0.00  0.00    -0.322 OA
ATOM      5  H   UNL     1      -2.992   3.372  -0.610  0.00  0.00    +0.220 HD
ENDBRANCH   2   4
BRANCH   2   6
ATOM      6  O   UNL     1      -3.831   1.214   0.933  0.00  0.00    -0.322 OA
ATOM      7  H   UNL     1      -4.618   1.764   0.793  0.00  0.00    +0.220 HD
ENDBRANCH   2   6
ENDBRANCH   1   2
BRANCH   1   8
ATOM      8  P   UNL     1      -1.776  -1.549   0.624  0.00  0.00    +0.372 P 
ATOM      9  O   UNL     1      -0.574  -2.279   1.145  0.00  0.00    -0.255 OA
BRANCH   8  10
ATOM     10  O   UNL     1      -2.970  -1.372   1.699  0.00  0.00    -0.322 OA
ATOM     11  H   UNL     1      -3.202  -2.238   2.070  0.00  0.00    +0.220 HD
ENDBRANCH   8  10
BRANCH   8  12
ATOM     12  O   UNL     1      -2.519  -2.242  -0.633  0.00  0.00    -0.322 OA
ATOM     13  H   UNL     1      -2.724  -3.165  -0.419  0.00  0.00    +0.220 HD
ENDBRANCH   8  12
ENDBRANCH   1   8
BRANCH   1  14
ATOM     14  O   UNL     1      -0.929   0.808   1.184  0.00  0.00    -0.366 OA
ATOM     15  H   UNL     1      -1.563   0.760   1.916  0.00  0.00    +0.212 HD
ENDBRANCH   1  14
BRANCH   1  16
ATOM     16  C   UNL     1      -0.458   0.238  -1.125  0.00  0.00    +0.094 C 
BRANCH  16  19
ATOM     17  N   UNL     1       1.919   0.267  -0.315  0.00  0.00    -0.252 N 
ATOM     18  N   UNL     1       2.592  -1.833  -0.687  0.00  0.00    -0.228 NA
ATOM     19  C   UNL     1       0.880  -0.407  -0.857  0.00  0.00    +0.057 C 
ATOM     20  C   UNL     1       1.288  -1.677  -1.081  0.00  0.00    +0.111 C 
ATOM     21  C   UNL     1       2.959  -0.654  -0.228  0.00  0.00    +0.139 C 
ATOM     22  C   UNL     1       2.027   1.592   0.098  0.00  0.00    +0.071 C 
ATOM     23  C   UNL     1       4.192  -0.190   0.319  0.00  0.00    +0.035 C 
ATOM     24  C   UNL     1       3.191   2.022   0.612  0.00  0.00    +0.017 C 
ATOM     25  C   UNL     1       4.303   1.091   0.721  0.00  0.00    +0.004 C 
ENDBRANCH  16  19
ENDBRANCH   1  16
TORSDOF 9
