REMARK  Name = 60860
REMARK  3 active torsions:
REMARK  status: ('A' for Active; 'I' for Inactive)
REMARK    1  A    between atoms: N_1  and  C_4
REMARK    2  A    between atoms: N_1  and  C_9
REMARK    3  A    between atoms: C_9  and  C_11
REMARK                            x       y       z     vdW  Elec       q    Type
REMARK                         _______ _______ _______ _____ _____    ______ ____
ROOT
ATOM      1  N   UNL     1       1.918   0.129  -0.405  0.00  0.00    -0.235 NA
ENDROOT
BRANCH   1   4
ATOM      2  N   UNL     1       4.054   0.512  -1.208  0.00  0.00    -0.370 N 
ATOM      3  N   UNL     1       3.844   0.140   1.030  0.00  0.00    -0.370 N 
ATOM      4  C   UNL     1       3.187   0.247  -0.175  0.00  0.00    +0.189 C 
ATOM      5  H   UNL     1       3.711   0.612  -2.126  0.00  0.00    +0.159 HD
ATOM      6  H   UNL     1       5.018   0.601  -1.031  0.00  0.00    +0.159 HD
ATOM      7  H   UNL     1       3.336  -0.049   1.853  0.00  0.00    +0.159 HD
ATOM      8  H   UNL     1       4.821   0.252   1.070  0.00  0.00    +0.159 HD
ENDBRANCH   1   4
BRANCH   1   9
ATOM      9  C   UNL     1       1.063  -0.154   0.755  0.00  0.00    +0.155 C 
BRANCH   9  11
ATOM     10  I   UNL     1      -3.850   2.213  -0.070  0.00  0.00    -0.043 I 
ATOM     11  C   UNL     1      -0.366  -0.340   0.371  0.00  0.00    +0.003 C 
ATOM     12  C   UNL     1      -1.228   0.756   0.338  0.00  0.00    +0.003 C 
ATOM     13  C   UNL     1      -0.840  -1.610   0.046  0.00  0.00    -0.002 C 
ATOM     14  C   UNL     1      -2.565   0.582  -0.021  0.00  0.00    +0.030 C 
ATOM     15  C   UNL     1      -2.177  -1.785  -0.313  0.00  0.00    +0.000 C 
ATOM     16  C   UNL     1      -3.039  -0.689  -0.347  0.00  0.00    +0.006 C 
ENDBRANCH   9  11
ENDBRANCH   1   9
TORSDOF 3
