REMARK  Name = 23653508
REMARK  13 active torsions:
REMARK  status: ('A' for Active; 'I' for Inactive)
REMARK    1  A    between atoms: P_1  and  O_3
REMARK    2  A    between atoms: P_1  and  C_5
REMARK    3  A    between atoms: P_1  and  C_20
REMARK    4  A    between atoms: C_5  and  C_6
REMARK    5  A    between atoms: C_5  and  N_9
REMARK    6  A    between atoms: N_9  and  S_11
REMARK    7  A    between atoms: S_11  and  C_14
REMARK    8  A    between atoms: C_20  and  C_21
REMARK    9  A    between atoms: C_21  and  C_22
REMARK   10  A    between atoms: C_21  and  C_34
REMARK   11  A    between atoms: C_25  and  C_28
REMARK   12  A    between atoms: C_28  and  N_29
REMARK   13  A    between atoms: C_34  and  O_35
REMARK                            x       y       z     vdW  Elec       q    Type
REMARK                         _______ _______ _______ _____ _____    ______ ____
ROOT
ATOM      1  P   UNL     1      -0.641   1.281   0.630  0.00  0.00    +0.236 P 
ATOM      2  O   UNL     1      -0.710   1.819   2.029  0.00  0.00    -0.288 OA
ENDROOT
BRANCH   1   3
ATOM      3  O   UNL     1      -0.220  -0.280   0.567  0.00  0.00    -0.342 OA
ATOM      4  H   UNL     1      -0.845  -0.805   1.091  0.00  0.00    +0.218 HD
ENDBRANCH   1   3
BRANCH   1   5
ATOM      5  C   UNL     1      -2.185   1.339  -0.289  0.00  0.00    +0.152 C 
BRANCH   5   6
ATOM      6  C   UNL     1      -2.678   2.758  -0.645  0.00  0.00    +0.025 C 
ATOM      7  C   UNL     1      -3.919   2.726  -1.541  0.00  0.00    +0.002 C 
ATOM      8  C   UNL     1      -2.942   3.650   0.570  0.00  0.00    +0.002 C 
ENDBRANCH   5   6
BRANCH   5   9
ATOM      9  N   UNL     1      -3.180   0.638   0.552  0.00  0.00    -0.171 NA
ATOM     10  H   UNL     1      -2.711   0.435   1.435  0.00  0.00    +0.149 HD
BRANCH   9  11
ATOM     11  S   UNL     1      -3.925  -0.811   0.071  0.00  0.00    +0.061 S 
ATOM     12  O   UNL     1      -4.539  -0.642  -1.232  0.00  0.00    -0.153 OA
ATOM     13  O   UNL     1      -4.705  -1.328   1.179  0.00  0.00    -0.153 OA
BRANCH  11  14
ATOM     14  C   UNL     1      -2.541  -1.892  -0.123  0.00  0.00    +0.122 C 
ATOM     15  C   UNL     1      -2.109  -2.639   0.959  0.00  0.00    +0.020 C 
ATOM     16  C   UNL     1      -1.913  -1.972  -1.355  0.00  0.00    +0.020 C 
ATOM     17  C   UNL     1      -1.016  -3.492   0.805  0.00  0.00    +0.001 C 
ATOM     18  C   UNL     1      -0.820  -2.825  -1.508  0.00  0.00    +0.001 C 
ATOM     19  C   UNL     1      -0.371  -3.585  -0.428  0.00  0.00    +0.000 C 
ENDBRANCH  11  14
ENDBRANCH   9  11
ENDBRANCH   5   9
ENDBRANCH   1   5
BRANCH   1  20
ATOM     20  C   UNL     1       0.612   2.047  -0.378  0.00  0.00    +0.104 C 
BRANCH  20  21
ATOM     21  C   UNL     1       1.992   2.066   0.290  0.00  0.00    +0.131 C 
BRANCH  21  22
ATOM     22  C   UNL     1       2.520   0.673   0.597  0.00  0.00    -0.012 C 
ATOM     23  C   UNL     1       2.737  -0.205  -0.446  0.00  0.00    -0.010 C 
ATOM     24  C   UNL     1       2.765   0.327   1.911  0.00  0.00    -0.004 C 
ATOM     25  C   UNL     1       3.221  -1.482  -0.163  0.00  0.00    -0.045 C 
ATOM     26  C   UNL     1       3.248  -0.950   2.194  0.00  0.00    -0.001 C 
ATOM     27  C   UNL     1       3.476  -1.855   1.157  0.00  0.00    -0.006 C 
BRANCH  25  28
ATOM     28  C   UNL     1       3.463  -2.450  -1.271  0.00  0.00    -0.059 C 
BRANCH  28  29
ATOM     29  N   UNL     1       4.824  -2.359  -1.803  0.00  0.00    +0.383 N 
ATOM     30  H   UNL     1       4.941  -3.037  -2.556  0.00  0.00    -0.089 HD
ATOM     31  H   UNL     1       5.494  -2.557  -1.060  0.00  0.00    -0.089 HD
ATOM     32  H   UNL     1       4.985  -1.419  -2.165  0.00  0.00    -0.089 HD
ENDBRANCH  28  29
ENDBRANCH  25  28
ENDBRANCH  21  22
BRANCH  21  34
ATOM     33  O   UNL     1       4.036   2.444  -0.996  0.00  0.00    -0.250 OA
ATOM     34  C   UNL     1       2.975   2.865  -0.555  0.00  0.00    +0.318 C 
BRANCH  34  35
ATOM     35  O   UNL     1       2.542   4.134  -0.780  0.00  0.00    -0.480 OA
ATOM     36  H   UNL     1       1.724   4.420  -0.426  0.00  0.00    +0.295 HD
ENDBRANCH  34  35
ENDBRANCH  21  34
ENDBRANCH  20  21
ENDBRANCH   1  20
TORSDOF 13
