REMARK  Name = 54671008
REMARK  7 active torsions:
REMARK  status: ('A' for Active; 'I' for Inactive)
REMARK    1  A    between atoms: C_4  and  C_21
REMARK    2  A    between atoms: C_6  and  C_11
REMARK    3  A    between atoms: C_8  and  O_34
REMARK    4  A    between atoms: N_10  and  C_13
REMARK    5  A    between atoms: C_13  and  C_15
REMARK    6  A    between atoms: C_21  and  N_25
REMARK    7  A    between atoms: C_26  and  C_31
REMARK                            x       y       z     vdW  Elec       q    Type
REMARK                         _______ _______ _______ _____ _____    ______ ____
ROOT
ATOM      1  O   UNL     1      -1.113  -4.407  -1.238  0.00  0.00    -0.271 OA
ATOM      2  N   UNL     1      -1.368  -2.510   0.110  0.00  0.00    -0.232 N 
ATOM      3  N   UNL     1       0.533  -1.164   0.586  0.00  0.00    -0.386 NA
ATOM      4  C   UNL     1      -0.733  -1.422   0.704  0.00  0.00    +0.182 C 
ATOM      5  C   UNL     1      -0.650  -3.417  -0.674  0.00  0.00    +0.265 C 
ATOM      6  C   UNL     1       1.274  -2.026  -0.175  0.00  0.00    +0.199 C 
ATOM      7  C   UNL     1      -2.803  -2.704   0.309  0.00  0.00    +0.122 C 
ATOM      8  C   UNL     1       0.801  -3.111  -0.804  0.00  0.00    +0.245 C 
ENDROOT
BRANCH   6  11
ATOM      9  O   UNL     1       3.334  -2.023  -1.303  0.00  0.00    -0.268 OA
ATOM     10  N   UNL     1       3.206  -1.062   0.817  0.00  0.00    -0.295 N 
ATOM     11  C   UNL     1       2.705  -1.712  -0.295  0.00  0.00    +0.275 C 
ATOM     12  H   UNL     1       2.593  -0.870   1.563  0.00  0.00    +0.150 HD
BRANCH  10  13
ATOM     13  C   UNL     1       4.586  -0.649   0.938  0.00  0.00    +0.117 C 
BRANCH  13  15
ATOM     14  F   UNL     1       5.412   4.555  -1.046  0.00  0.00    -0.204 F 
ATOM     15  C   UNL     1       4.806   0.739   0.409  0.00  0.00    -0.002 C 
ATOM     16  C   UNL     1       5.140   0.929  -0.932  0.00  0.00    -0.000 C 
ATOM     17  C   UNL     1       4.677   1.838   1.258  0.00  0.00    -0.000 C 
ATOM     18  C   UNL     1       5.345   2.218  -1.423  0.00  0.00    +0.029 C 
ATOM     19  C   UNL     1       4.882   3.127   0.767  0.00  0.00    +0.029 C 
ATOM     20  C   UNL     1       5.216   3.317  -0.574  0.00  0.00    +0.140 C 
ENDBRANCH  13  15
ENDBRANCH  10  13
ENDBRANCH   6  11
BRANCH   4  21
ATOM     21  C   UNL     1      -1.567  -0.480   1.539  0.00  0.00    +0.117 C 
ATOM     22  C   UNL     1      -2.255  -1.254   2.655  0.00  0.00    +0.028 C 
ATOM     23  C   UNL     1      -0.688   0.633   2.093  0.00  0.00    +0.028 C 
BRANCH  21  25
ATOM     24  O   UNL     1      -3.594   1.486   2.057  0.00  0.00    -0.265 OA
ATOM     25  N   UNL     1      -2.526   0.035   0.596  0.00  0.00    -0.293 N 
ATOM     26  C   UNL     1      -3.473   0.990   0.940  0.00  0.00    +0.302 C 
ATOM     27  H   UNL     1      -2.508  -0.303  -0.329  0.00  0.00    +0.150 HD
BRANCH  26  31
ATOM     28  O   UNL     1      -5.369   2.330   0.107  0.00  0.00    -0.416 OA
ATOM     29  N   UNL     1      -4.419   0.947  -1.373  0.00  0.00    -0.102 NA
ATOM     30  N   UNL     1      -5.452   1.609  -2.009  0.00  0.00    -0.111 NA
ATOM     31  C   UNL     1      -4.407   1.399  -0.141  0.00  0.00    +0.304 A 
ATOM     32  C   UNL     1      -5.978   2.405  -1.108  0.00  0.00    +0.227 A 
ATOM     33  C   UNL     1      -7.103   3.341  -1.227  0.00  0.00    +0.097 C 
ENDBRANCH  26  31
ENDBRANCH  21  25
ENDBRANCH   4  21
BRANCH   8  34
ATOM     34  O   UNL     1       1.581  -3.955  -1.561  0.00  0.00    -0.370 OA
ATOM     35  H   UNL     1       1.196  -4.700  -1.979  0.00  0.00    +0.211 HD
ENDBRANCH   8  34
TORSDOF 7
