REMARK  Name = 54686843
REMARK  8 active torsions:
REMARK  status: ('A' for Active; 'I' for Inactive)
REMARK    1  A    between atoms: N_2  and  C_5
REMARK    2  A    between atoms: C_3  and  C_16
REMARK    3  A    between atoms: C_6  and  C_14
REMARK    4  A    between atoms: C_15  and  O_17
REMARK    5  A    between atoms: C_15  and  C_21
REMARK    6  A    between atoms: C_16  and  C_20
REMARK    7  A    between atoms: C_21  and  C_22
REMARK    8  A    between atoms: C_22  and  C_23
REMARK                            x       y       z     vdW  Elec       q    Type
REMARK                         _______ _______ _______ _____ _____    ______ ____
ROOT
ATOM      1  O   UNL     1       0.854   2.123   0.525  0.00  0.00    -0.269 OA
ATOM      2  N   UNL     1       0.336   0.058  -0.460  0.00  0.00    -0.280 N 
ATOM      3  C   UNL     1       1.172   1.090  -0.054  0.00  0.00    +0.262 C 
ATOM      4  H   UNL     1       0.768  -0.700  -0.916  0.00  0.00    +0.155 HD
ENDROOT
BRANCH   2   5
ATOM      5  C   UNL     1      -1.068  -0.027  -0.293  0.00  0.00    +0.051 C 
ATOM      6  C   UNL     1      -3.834  -0.196   0.034  0.00  0.00    +0.072 C 
ATOM      7  C   UNL     1      -1.762   1.014   0.323  0.00  0.00    +0.015 C 
ATOM      8  C   UNL     1      -1.757  -1.153  -0.746  0.00  0.00    +0.015 C 
ATOM      9  C   UNL     1      -3.145   0.930   0.487  0.00  0.00    +0.005 C 
ATOM     10  C   UNL     1      -3.139  -1.237  -0.582  0.00  0.00    +0.005 C 
BRANCH   6  14
ATOM     11  F   UNL     1      -5.835   0.814   0.828  0.00  0.00    -0.166 F 
ATOM     12  F   UNL     1      -5.996  -0.403  -0.967  0.00  0.00    -0.166 F 
ATOM     13  F   UNL     1      -5.710  -1.353   0.962  0.00  0.00    -0.166 F 
ATOM     14  C   UNL     1      -5.312  -0.285   0.209  0.00  0.00    +0.419 C 
ENDBRANCH   6  14
ENDBRANCH   2   5
BRANCH   3  16
ATOM     15  C   UNL     1       3.522   0.769   0.590  0.00  0.00    +0.126 C 
ATOM     16  C   UNL     1       2.613   0.828  -0.406  0.00  0.00    +0.151 C 
BRANCH  15  17
ATOM     17  O   UNL     1       3.135   0.925   1.913  0.00  0.00    -0.509 OA
ATOM     18  H   UNL     1       3.774   0.882   2.596  0.00  0.00    +0.292 HD
ENDBRANCH  15  17
BRANCH  16  20
ATOM     19  N   UNL     1       3.258   0.508  -2.892  0.00  0.00    -0.191 NA
ATOM     20  C   UNL     1       2.973   0.652  -1.776  0.00  0.00    +0.108 C 
ENDBRANCH  16  20
BRANCH  15  21
ATOM     21  C   UNL     1       5.009   0.540   0.399  0.00  0.00    +0.078 C 
BRANCH  21  22
ATOM     22  C   UNL     1       5.521  -0.725   1.097  0.00  0.00    +0.085 C 
BRANCH  22  23
ATOM     23  C   UNL     1       4.855  -1.940   0.604  0.00  0.00    -0.077 C 
ATOM     24  C   UNL     1       4.311  -2.933   0.205  0.00  0.00    -0.014 C 
ENDBRANCH  22  23
ENDBRANCH  21  22
ENDBRANCH  15  21
ENDBRANCH   3  16
TORSDOF 8
