REMARK  Name = 33039
REMARK  3 active torsions:
REMARK  status: ('A' for Active; 'I' for Inactive)
REMARK    1  A    between atoms: N_3  and  C_13
REMARK    2  A    between atoms: C_16  and  C_17
REMARK    3  A    between atoms: C_17  and  O_18
REMARK                            x       y       z     vdW  Elec       q    Type
REMARK                         _______ _______ _______ _____ _____    ______ ____
ROOT
ATOM      1  O   UNL     1       1.179   2.795   0.381  0.00  0.00    -0.252 OA
ATOM      2  O   UNL     1       4.361  -0.473  -0.204  0.00  0.00    -0.270 OA
ATOM      3  N   UNL     1       0.475   0.581   0.173  0.00  0.00    -0.219 N 
ATOM      4  N   UNL     1       2.755   1.155   0.088  0.00  0.00    -0.236 N 
ATOM      5  C   UNL     1       0.827  -0.742  -0.002  0.00  0.00    +0.071 C 
ATOM      6  C   UNL     1       1.435   1.599   0.226  0.00  0.00    +0.315 C 
ATOM      7  C   UNL     1       2.091  -1.163  -0.134  0.00  0.00    +0.047 C 
ATOM      8  C   UNL     1       3.181  -0.152  -0.090  0.00  0.00    +0.250 C 
ATOM      9  C   UNL     1       2.469  -2.597  -0.324  0.00  0.00    +0.037 C 
ATOM     10  H   UNL     1       3.457   1.845   0.121  0.00  0.00    +0.159 HD
ENDROOT
BRANCH   3  13
ATOM     11  F   UNL     1      -3.634   1.688  -0.078  0.00  0.00    -0.234 F 
ATOM     12  O   UNL     1      -1.589  -0.197   0.959  0.00  0.00    -0.334 OA
ATOM     13  C   UNL     1      -0.919   0.889   0.301  0.00  0.00    +0.202 C 
ATOM     14  C   UNL     1      -1.605   1.086  -1.038  0.00  0.00    +0.089 C 
ATOM     15  C   UNL     1      -3.015   0.659  -0.724  0.00  0.00    +0.195 C 
ATOM     16  C   UNL     1      -2.822  -0.474   0.267  0.00  0.00    +0.179 C 
BRANCH  16  17
ATOM     17  C   UNL     1      -2.688  -1.835  -0.403  0.00  0.00    +0.170 C 
BRANCH  17  18
ATOM     18  O   UNL     1      -2.502  -2.818   0.600  0.00  0.00    -0.379 OA
ATOM     19  H   UNL     1      -2.415  -3.691   0.186  0.00  0.00    +0.211 HD
ENDBRANCH  17  18
ENDBRANCH  16  17
ENDBRANCH   3  13
TORSDOF 3
