REMARK  Name = 62930
REMARK  5 active torsions:
REMARK  status: ('A' for Active; 'I' for Inactive)
REMARK    1  A    between atoms: N_1  and  C_18
REMARK    2  A    between atoms: N_1  and  O_21
REMARK    3  A    between atoms: C_2  and  C_23
REMARK    4  A    between atoms: C_6  and  O_19
REMARK    5  A    between atoms: C_6  and  C_25
REMARK                            x       y       z     vdW  Elec       q    Type
REMARK                         _______ _______ _______ _____ _____    ______ ____
ROOT
ATOM      1  C   UNL     1      -2.379  -0.235   0.367  0.00  0.00    +0.033 C 
ATOM      2  C   UNL     1      -1.568   0.833  -0.403  0.00  0.00    +0.003 C 
ATOM      3  C   UNL     1      -0.238   1.173   0.276  0.00  0.00    +0.000 C 
ATOM      4  C   UNL     1       0.627  -0.129   0.373  0.00  0.00    +0.000 C 
ATOM      5  C   UNL     1      -3.681  -0.271  -0.492  0.00  0.00    +0.142 C 
ATOM      6  C   UNL     1      -1.541  -1.526   0.423  0.00  0.00    +0.003 C 
ATOM      7  C   UNL     1      -2.580   1.951  -0.638  0.00  0.00    +0.004 C 
ATOM      8  C   UNL     1      -0.149  -1.288   1.040  0.00  0.00    +0.000 C 
ATOM      9  C   UNL     1       1.968   0.205   1.082  0.00  0.00    +0.004 C 
ATOM     10  C   UNL     1      -3.932   1.228  -0.811  0.00  0.00    +0.039 C 
ATOM     11  C   UNL     1       0.520   2.292  -0.466  0.00  0.00    +0.000 C 
ATOM     12  C   UNL     1       1.890   2.567   0.159  0.00  0.00    +0.004 C 
ATOM     13  C   UNL     1       2.661   1.278   0.259  0.00  0.00    +0.023 C 
ATOM     14  C   UNL     1       2.905  -0.982   1.358  0.00  0.00    +0.007 C 
ATOM     15  C   UNL     1       3.667  -1.419   0.120  0.00  0.00    +0.048 C 
ATOM     16  C   UNL     1       3.813   1.095  -0.405  0.00  0.00    -0.010 C 
ATOM     17  C   UNL     1       4.442  -0.248  -0.441  0.00  0.00    +0.081 C 
ENDROOT
BRANCH   5  18
ATOM     18  O   UNL     1      -4.781  -0.839   0.203  0.00  0.00    -0.375 OA
ATOM     19  H   UNL     1      -4.913  -0.367   1.040  0.00  0.00    +0.211 HD
ENDBRANCH   5  18
BRANCH   1  20
ATOM     20  C   UNL     1      -2.724   0.183   1.827  0.00  0.00    +0.003 C 
ATOM     21  C   UNL     1      -3.483  -0.918   2.519  0.00  0.00    +0.000 C 
ENDBRANCH   1  20
BRANCH   5  22
ATOM     22  C   UNL     1      -3.527  -1.025  -1.753  0.00  0.00    -0.053 C 
ATOM     23  C   UNL     1      -3.403  -1.638  -2.777  0.00  0.00    -0.012 C 
ENDBRANCH   5  22
BRANCH  17  24
ATOM     24  N   UNL     1       5.599  -0.465  -0.977  0.00  0.00    -0.139 NA
BRANCH  24  25
ATOM     25  O   UNL     1       5.896  -1.821  -0.843  0.00  0.00    -0.266 OA
ATOM     26  H   UNL     1       6.703  -2.159  -1.177  0.00  0.00    +0.247 HD
ENDBRANCH  24  25
ENDBRANCH  17  24
TORSDOF 5
