REMARK  Name = 5720
REMARK  3 active torsions:
REMARK  status: ('A' for Active; 'I' for Inactive)
REMARK    1  A    between atoms: C_4  and  C_17
REMARK    2  A    between atoms: C_17  and  C_20
REMARK    3  A    between atoms: C_20  and  O_21
REMARK                            x       y       z     vdW  Elec       q    Type
REMARK                         _______ _______ _______ _____ _____    ______ ____
ROOT
ATOM      1  S   UNL     1       1.898  -2.135   0.668  0.00  0.00    -0.087 S 
ATOM      2  O   UNL     1       1.927   2.251   1.864  0.00  0.00    -0.291 OA
ATOM      3  C   UNL     1      -0.264  -0.460   1.079  0.00  0.00    -0.009 C 
ATOM      4  C   UNL     1      -2.401  -0.742  -0.042  0.00  0.00    -0.012 C 
ATOM      5  C   UNL     1       0.608   0.295   2.046  0.00  0.00    +0.096 C 
ATOM      6  C   UNL     1       0.214  -1.604   0.423  0.00  0.00    +0.026 C 
ATOM      7  C   UNL     1      -1.577  -0.033   0.832  0.00  0.00    -0.007 C 
ATOM      8  C   UNL     1      -1.924  -1.885  -0.677  0.00  0.00    -0.003 C 
ATOM      9  C   UNL     1       1.703   1.124   1.415  0.00  0.00    +0.178 C 
ATOM     10  C   UNL     1      -0.619  -2.317  -0.448  0.00  0.00    +0.006 C 
ATOM     11  C   UNL     1       2.573   0.613   0.302  0.00  0.00    +0.041 C 
ATOM     12  C   UNL     1       2.737  -0.736  -0.069  0.00  0.00    +0.032 C 
ATOM     13  C   UNL     1       3.300   1.599  -0.395  0.00  0.00    +0.003 C 
ATOM     14  C   UNL     1       3.628  -1.059  -1.111  0.00  0.00    +0.007 C 
ATOM     15  C   UNL     1       4.173   1.261  -1.430  0.00  0.00    +0.000 C 
ATOM     16  C   UNL     1       4.340  -0.069  -1.786  0.00  0.00    +0.001 C 
ENDROOT
BRANCH   4  17
ATOM     17  C   UNL     1      -3.796  -0.277  -0.292  0.00  0.00    +0.121 C 
ATOM     18  C   UNL     1      -4.684  -0.252   0.969  0.00  0.00    +0.016 C 
BRANCH  17  20
ATOM     19  O   UNL     1      -2.867   1.784  -1.217  0.00  0.00    -0.250 OA
ATOM     20  C   UNL     1      -3.852   1.109  -0.944  0.00  0.00    +0.317 C 
BRANCH  20  21
ATOM     21  O   UNL     1      -5.120   1.534  -1.187  0.00  0.00    -0.480 OA
ATOM     22  H   UNL     1      -5.848   0.988  -0.964  0.00  0.00    +0.295 HD
ENDBRANCH  20  21
ENDBRANCH  17  20
ENDBRANCH   4  17
TORSDOF 3
