REMARK  Name = 213043
REMARK  5 active torsions:
REMARK  status: ('A' for Active; 'I' for Inactive)
REMARK    1  A    between atoms: C_2  and  C_11
REMARK    2  A    between atoms: C_7  and  C_18
REMARK    3  A    between atoms: C_8  and  O_14
REMARK    4  A    between atoms: C_10  and  O_16
REMARK    5  A    between atoms: C_18  and  C_23
REMARK                            x       y       z     vdW  Elec       q    Type
REMARK                         _______ _______ _______ _____ _____    ______ ____
ROOT
ATOM      1  O   UNL     1      -2.980  -0.294   0.359  0.00  0.00    -0.471 OA
ATOM      2  C   UNL     1      -2.920  -1.718   0.583  0.00  0.00    +0.117 C 
ATOM      3  C   UNL     1      -1.690  -2.218   1.296  0.00  0.00    +0.032 C 
ATOM      4  C   UNL     1      -1.833   0.437   0.497  0.00  0.00    +0.246 C 
ATOM      5  C   UNL     1      -0.622  -1.450   1.522  0.00  0.00    +0.002 C 
ATOM      6  C   UNL     1      -0.658  -0.074   1.056  0.00  0.00    +0.021 C 
ATOM      7  C   UNL     1       0.464   0.753   1.177  0.00  0.00    -0.015 C 
ATOM      8  C   UNL     1      -1.888   1.766   0.071  0.00  0.00    +0.194 C 
ATOM      9  C   UNL     1       0.410   2.079   0.743  0.00  0.00    +0.036 C 
ATOM     10  C   UNL     1      -0.766   2.585   0.191  0.00  0.00    +0.172 C 
ENDROOT
BRANCH   2  11
ATOM     11  C   UNL     1      -3.173  -2.406  -0.733  0.00  0.00    +0.057 C 
ATOM     12  C   UNL     1      -4.567  -2.448  -1.255  0.00  0.00    +0.008 C 
ATOM     13  C   UNL     1      -3.920  -3.695  -0.728  0.00  0.00    +0.008 C 
ENDBRANCH   2  11
BRANCH   8  14
ATOM     14  O   UNL     1      -3.036   2.269  -0.467  0.00  0.00    -0.469 OA
ATOM     15  C   UNL     1      -3.529   1.636  -1.645  0.00  0.00    +0.252 C 
ENDBRANCH   8  14
BRANCH  10  16
ATOM     16  O   UNL     1      -0.806   3.882  -0.225  0.00  0.00    -0.469 OA
ATOM     17  C   UNL     1      -0.439   4.139  -1.579  0.00  0.00    +0.253 C 
ENDBRANCH  10  16
BRANCH   7  18
ATOM     18  C   UNL     1       1.752   0.269   1.765  0.00  0.00    +0.058 C 
BRANCH  18  23
ATOM     19  N   UNL     1       4.479  -0.098  -0.826  0.00  0.00    -0.323 NA
ATOM     20  N   UNL     1       3.465  -2.249  -0.434  0.00  0.00    -0.170 NA
ATOM     21  N   UNL     1       3.717   1.815   0.351  0.00  0.00    -0.332 N 
ATOM     22  N   UNL     1       5.216  -2.005  -1.977  0.00  0.00    -0.293 N 
ATOM     23  C   UNL     1       2.702  -0.323   0.746  0.00  0.00    +0.047 C 
ATOM     24  C   UNL     1       3.631   0.426   0.083  0.00  0.00    +0.188 C 
ATOM     25  C   UNL     1       2.647  -1.659   0.462  0.00  0.00    +0.112 C 
ATOM     26  C   UNL     1       4.344  -1.422  -1.033  0.00  0.00    +0.143 C 
ATOM     27  H   UNL     1       4.382   2.367  -0.120  0.00  0.00    +0.145 HD
ATOM     28  H   UNL     1       3.111   2.228   1.009  0.00  0.00    +0.145 HD
ATOM     29  H   UNL     1       5.879  -1.447  -2.445  0.00  0.00    +0.155 HD
ATOM     30  H   UNL     1       5.161  -2.969  -2.168  0.00  0.00    +0.155 HD
ENDBRANCH  18  23
ENDBRANCH   7  18
TORSDOF 5
