REMARK  Name = 25113124
REMARK  4 active torsions:
REMARK  status: ('A' for Active; 'I' for Inactive)
REMARK    1  A    between atoms: C_14  and  C_25
REMARK    2  A    between atoms: C_15  and  C_17
REMARK    3  A    between atoms: C_18  and  C_19
REMARK    4  A    between atoms: C_25  and  N_26
REMARK                            x       y       z     vdW  Elec       q    Type
REMARK                         _______ _______ _______ _____ _____    ______ ____
ROOT
ATOM      1  O   UNL     1      -3.894  -1.740  -1.646  0.00  0.00    -0.475 OA
ATOM      2  O   UNL     1       2.251  -1.990   2.110  0.00  0.00    -0.270 OA
ATOM      3  N   UNL     1       0.669  -1.716   0.425  0.00  0.00    -0.276 N 
ATOM      4  C   UNL     1      -2.139  -1.073  -0.090  0.00  0.00    +0.065 C 
ATOM      5  C   UNL     1      -1.628  -1.489   1.299  0.00  0.00    +0.029 C 
ATOM      6  C   UNL     1      -0.992  -0.432  -0.899  0.00  0.00    +0.029 C 
ATOM      7  C   UNL     1      -2.800  -2.251  -0.847  0.00  0.00    +0.209 C 
ATOM      8  C   UNL     1      -3.327  -0.164  -0.057  0.00  0.00    +0.014 C 
ATOM      9  C   UNL     1      -0.388  -2.373   1.198  0.00  0.00    +0.094 C 
ATOM     10  C   UNL     1       0.275  -1.293  -0.926  0.00  0.00    +0.094 C 
ATOM     11  C   UNL     1      -4.265  -0.598  -0.985  0.00  0.00    +0.135 C 
ATOM     12  C   UNL     1      -3.555   0.984   0.684  0.00  0.00    -0.008 C 
ATOM     13  C   UNL     1      -5.442   0.088  -1.218  0.00  0.00    +0.036 C 
ATOM     14  C   UNL     1      -4.745   1.686   0.475  0.00  0.00    -0.044 C 
ATOM     15  C   UNL     1       1.937  -1.588   0.989  0.00  0.00    +0.249 C 
ATOM     16  C   UNL     1      -5.682   1.242  -0.472  0.00  0.00    -0.003 C 
ENDROOT
BRANCH  15  17
ATOM     17  C   UNL     1       2.984  -0.927   0.184  0.00  0.00    +0.058 C 
ATOM     18  C   UNL     1       3.950  -0.256   0.823  0.00  0.00    +0.005 C 
BRANCH  18  19
ATOM     19  C   UNL     1       5.056   0.460   0.163  0.00  0.00    +0.000 C 
ATOM     20  C   UNL     1       5.404   0.145  -1.151  0.00  0.00    +0.000 C 
ATOM     21  C   UNL     1       5.755   1.452   0.851  0.00  0.00    +0.000 C 
ATOM     22  C   UNL     1       6.451   0.822  -1.776  0.00  0.00    +0.000 C 
ATOM     23  C   UNL     1       6.802   2.129   0.225  0.00  0.00    +0.000 C 
ATOM     24  C   UNL     1       7.149   1.814  -1.089  0.00  0.00    +0.000 C 
ENDBRANCH  18  19
ENDBRANCH  15  17
BRANCH  14  25
ATOM     25  C   UNL     1      -5.020   2.926   1.259  0.00  0.00    -0.059 C 
BRANCH  25  26
ATOM     26  N   UNL     1      -4.805   4.141   0.472  0.00  0.00    +0.383 N 
ATOM     27  H   UNL     1      -5.004   4.959   1.048  0.00  0.00    -0.089 HD
ATOM     28  H   UNL     1      -5.425   4.136  -0.338  0.00  0.00    -0.089 HD
ATOM     29  H   UNL     1      -3.835   4.175   0.158  0.00  0.00    -0.089 HD
ENDBRANCH  25  26
ENDBRANCH  14  25
TORSDOF 4
