REMARK  Name = 5276507
REMARK  14 active torsions:
REMARK  status: ('A' for Active; 'I' for Inactive)
REMARK    1  A    between atoms: C_1  and  P_2
REMARK    2  A    between atoms: C_1  and  P_8
REMARK    3  A    between atoms: C_1  and  O_14
REMARK    4  A    between atoms: C_1  and  C_16
REMARK    5  A    between atoms: P_2  and  O_4
REMARK    6  A    between atoms: P_2  and  O_6
REMARK    7  A    between atoms: P_8  and  O_10
REMARK    8  A    between atoms: P_8  and  O_12
REMARK    9  A    between atoms: C_16  and  C_17
REMARK   10  A    between atoms: C_17  and  C_18
REMARK   11  A    between atoms: C_18  and  C_19
REMARK   12  A    between atoms: C_19  and  C_20
REMARK   13  A    between atoms: C_20  and  C_21
REMARK   14  A    between atoms: C_21  and  C_22
REMARK                            x       y       z     vdW  Elec       q    Type
REMARK                         _______ _______ _______ _____ _____    ______ ____
ROOT
ATOM      1  C   UNL     1      -2.148   0.124   0.323  0.00  0.00    +0.275 C 
ENDROOT
BRANCH   1   2
ATOM      2  P   UNL     1      -2.320  -1.645  -0.103  0.00  0.00    +0.372 P 
ATOM      3  O   UNL     1      -1.274  -2.554   0.470  0.00  0.00    -0.255 OA
BRANCH   2   4
ATOM      4  O   UNL     1      -3.831  -2.003   0.342  0.00  0.00    -0.322 OA
ATOM      5  H   UNL     1      -4.012  -2.937   0.149  0.00  0.00    +0.220 HD
ENDBRANCH   2   4
BRANCH   2   6
ATOM      6  O   UNL     1      -2.409  -1.630  -1.718  0.00  0.00    -0.322 OA
ATOM      7  H   UNL     1      -2.503  -2.539  -2.045  0.00  0.00    +0.220 HD
ENDBRANCH   2   6
ENDBRANCH   1   2
BRANCH   1   8
ATOM      8  P   UNL     1      -3.482   1.334  -0.065  0.00  0.00    +0.372 P 
ATOM      9  O   UNL     1      -3.320   2.678   0.581  0.00  0.00    -0.255 OA
BRANCH   8  10
ATOM     10  O   UNL     1      -3.499   1.345  -1.681  0.00  0.00    -0.322 OA
ATOM     11  H   UNL     1      -4.180   1.961  -1.993  0.00  0.00    +0.220 HD
ENDBRANCH   8  10
BRANCH   8  12
ATOM     12  O   UNL     1      -4.843   0.553   0.319  0.00  0.00    -0.322 OA
ATOM     13  H   UNL     1      -5.606   1.126   0.143  0.00  0.00    +0.220 HD
ENDBRANCH   8  12
ENDBRANCH   1   8
BRANCH   1  14
ATOM     14  O   UNL     1      -2.164   0.101   1.751  0.00  0.00    -0.367 OA
ATOM     15  H   UNL     1      -3.006  -0.269   2.059  0.00  0.00    +0.212 HD
ENDBRANCH   1  14
BRANCH   1  16
ATOM     16  C   UNL     1      -0.802   0.715  -0.164  0.00  0.00    +0.051 C 
BRANCH  16  17
ATOM     17  C   UNL     1       0.446  -0.055   0.275  0.00  0.00    +0.004 C 
BRANCH  17  18
ATOM     18  C   UNL     1       1.748   0.549  -0.265  0.00  0.00    +0.000 C 
BRANCH  18  19
ATOM     19  C   UNL     1       3.040  -0.133   0.197  0.00  0.00    +0.000 C 
BRANCH  19  20
ATOM     20  C   UNL     1       4.310   0.549  -0.320  0.00  0.00    +0.000 C 
BRANCH  20  21
ATOM     21  C   UNL     1       5.566  -0.168   0.182  0.00  0.00    +0.000 C 
BRANCH  21  22
ATOM     22  C   UNL     1       6.866   0.494  -0.281  0.00  0.00    +0.000 C 
ATOM     23  C   UNL     1       8.117  -0.252   0.157  0.00  0.00    +0.000 C 
ENDBRANCH  21  22
ENDBRANCH  20  21
ENDBRANCH  19  20
ENDBRANCH  18  19
ENDBRANCH  17  18
ENDBRANCH  16  17
ENDBRANCH   1  16
TORSDOF 14
