REMARK  Name = 9905633
REMARK  7 active torsions:
REMARK  status: ('A' for Active; 'I' for Inactive)
REMARK    1  A    between atoms: C_1  and  C_4
REMARK    2  A    between atoms: C_1  and  C_15
REMARK    3  A    between atoms: N_3  and  C_6
REMARK    4  A    between atoms: C_6  and  C_7
REMARK    5  A    between atoms: C_7  and  C_8
REMARK    6  A    between atoms: C_8  and  N_10
REMARK    7  A    between atoms: C_15  and  N_17
REMARK                            x       y       z     vdW  Elec       q    Type
REMARK                         _______ _______ _______ _____ _____    ______ ____
ROOT
ATOM      1  C   UNL     1       1.328  -2.975   0.904  0.00  0.00    +0.102 C 
ENDROOT
BRANCH   1   4
ATOM      2  O   UNL     1       1.236  -2.803  -1.507  0.00  0.00    -0.275 OA
ATOM      3  N   UNL     1      -0.606  -2.129  -0.260  0.00  0.00    -0.304 N 
ATOM      4  C   UNL     1       0.678  -2.638  -0.426  0.00  0.00    +0.224 C 
ATOM      5  H   UNL     1      -0.959  -2.038   0.655  0.00  0.00    +0.149 HD
BRANCH   3   6
ATOM      6  C   UNL     1      -1.443  -1.731  -1.358  0.00  0.00    +0.091 C 
BRANCH   6   7
ATOM      7  C   UNL     1      -1.258  -0.262  -1.733  0.00  0.00    +0.043 C 
BRANCH   7   8
ATOM      8  C   UNL     1      -1.605   0.710  -0.608  0.00  0.00    +0.095 C 
BRANCH   8  10
ATOM      9  O   UNL     1      -2.759   0.111   2.093  0.00  0.00    -0.275 OA
ATOM     10  N   UNL     1      -2.989   0.613  -0.196  0.00  0.00    -0.279 N 
ATOM     11  C   UNL     1      -4.071   0.927  -1.099  0.00  0.00    +0.094 C 
ATOM     12  C   UNL     1      -5.284   0.356  -0.393  0.00  0.00    +0.031 C 
ATOM     13  C   UNL     1      -4.935   0.471   1.086  0.00  0.00    +0.087 C 
ATOM     14  C   UNL     1      -3.429   0.350   1.099  0.00  0.00    +0.226 C 
ENDBRANCH   8  10
ENDBRANCH   7   8
ENDBRANCH   6   7
ENDBRANCH   3   6
ENDBRANCH   1   4
BRANCH   1  15
ATOM     15  C   UNL     1       2.613  -2.187   1.137  0.00  0.00    +0.085 C 
BRANCH  15  17
ATOM     16  O   UNL     1       1.848   3.621   0.170  0.00  0.00    -0.221 OA
ATOM     17  N   UNL     1       2.379  -0.748   1.156  0.00  0.00    -0.235 NA
ATOM     18  N   UNL     1       2.666  -0.127  -1.177  0.00  0.00    -0.259 NA
ATOM     19  N   UNL     1       1.923   1.280   1.965  0.00  0.00    -0.242 NA
ATOM     20  N   UNL     1       2.363   2.223  -1.609  0.00  0.00    -0.183 NA
ATOM     21  C   UNL     1       2.416   0.101   0.117  0.00  0.00    +0.171 C 
ATOM     22  C   UNL     1       2.136   1.342   0.617  0.00  0.00    +0.167 C 
ATOM     23  C   UNL     1       2.078   0.000   2.261  0.00  0.00    +0.203 C 
ATOM     24  C   UNL     1       2.097   2.501  -0.260  0.00  0.00    +0.168 C 
ATOM     25  C   UNL     1       2.619   0.997  -1.979  0.00  0.00    +0.211 C 
ATOM     26  H   UNL     1       2.866  -1.024  -1.529  0.00  0.00    +0.127 HD
ENDBRANCH  15  17
ENDBRANCH   1  15
TORSDOF 7
