REMARK  Name = 21081761
REMARK  5 active torsions:
REMARK  status: ('A' for Active; 'I' for Inactive)
REMARK    1  A    between atoms: N_2  and  C_6
REMARK    2  A    between atoms: C_3  and  C_25
REMARK    3  A    between atoms: C_7  and  O_12
REMARK    4  A    between atoms: O_12  and  C_16
REMARK    5  A    between atoms: N_24  and  C_31
REMARK                            x       y       z     vdW  Elec       q    Type
REMARK                         _______ _______ _______ _____ _____    ______ ____
ROOT
ATOM      1  O   UNL     1       0.697   2.399   1.283  0.00  0.00    -0.270 OA
ATOM      2  N   UNL     1       0.686   1.014  -0.627  0.00  0.00    -0.280 N 
ATOM      3  C   UNL     1       1.260   1.797   0.377  0.00  0.00    +0.254 C 
ATOM      4  H   UNL     1       1.311   0.609  -1.271  0.00  0.00    +0.155 HD
ENDROOT
BRANCH   2   6
ATOM      5  F   UNL     1      -2.785  -1.129  -3.123  0.00  0.00    -0.201 F 
ATOM      6  C   UNL     1      -0.666   0.736  -0.829  0.00  0.00    +0.053 C 
ATOM      7  C   UNL     1      -3.370   0.182  -1.234  0.00  0.00    +0.173 C 
ATOM      8  C   UNL     1      -1.061  -0.073  -1.895  0.00  0.00    +0.047 C 
ATOM      9  C   UNL     1      -1.624   1.267   0.035  0.00  0.00    +0.018 C 
ATOM     10  C   UNL     1      -2.413  -0.350  -2.098  0.00  0.00    +0.176 C 
ATOM     11  C   UNL     1      -2.976   0.991  -0.168  0.00  0.00    +0.041 C 
BRANCH   7  12
ATOM     12  O   UNL     1      -4.710  -0.091  -1.435  0.00  0.00    -0.451 OA
BRANCH  12  16
ATOM     13  N   UNL     1      -8.157  -0.145   1.694  0.00  0.00    -0.297 N 
ATOM     14  N   UNL     1      -6.752  -2.101   1.667  0.00  0.00    -0.229 NA
ATOM     15  C   UNL     1      -6.494  -0.150   0.204  0.00  0.00    +0.067 C 
ATOM     16  C   UNL     1      -5.382  -0.728  -0.430  0.00  0.00    +0.150 C 
ATOM     17  C   UNL     1      -7.106  -0.883   1.216  0.00  0.00    +0.135 C 
ATOM     18  C   UNL     1      -7.215   1.068   0.084  0.00  0.00    +0.022 C 
ATOM     19  C   UNL     1      -8.232   1.043   1.013  0.00  0.00    +0.063 C 
ATOM     20  C   UNL     1      -4.972  -1.990  -0.002  0.00  0.00    +0.058 C 
ATOM     21  C   UNL     1      -5.676  -2.609   1.022  0.00  0.00    +0.103 C 
ATOM     22  H   UNL     1      -8.766  -0.424   2.416  0.00  0.00    +0.154 HD
ENDBRANCH  12  16
ENDBRANCH   7  12
ENDBRANCH   2   6
BRANCH   3  25
ATOM     23  O   UNL     1       3.055  -0.431   0.618  0.00  0.00    -0.269 OA
ATOM     24  N   UNL     1       4.992   0.857   0.192  0.00  0.00    -0.233 N 
ATOM     25  C   UNL     1       2.722   1.861   0.271  0.00  0.00    +0.108 C 
ATOM     26  C   UNL     1       3.598   0.644   0.362  0.00  0.00    +0.261 C 
ATOM     27  C   UNL     1       5.480   2.154   0.029  0.00  0.00    +0.072 C 
ATOM     28  C   UNL     1       3.264   3.073   0.104  0.00  0.00    +0.010 C 
ATOM     29  C   UNL     1       4.684   3.227  -0.011  0.00  0.00    +0.017 C 
BRANCH  24  31
ATOM     30  F   UNL     1       8.493  -3.486   0.274  0.00  0.00    -0.204 F 
ATOM     31  C   UNL     1       5.902  -0.272   0.213  0.00  0.00    +0.059 C 
ATOM     32  C   UNL     1       7.203  -0.110   0.690  0.00  0.00    +0.018 C 
ATOM     33  C   UNL     1       5.476  -1.520  -0.243  0.00  0.00    +0.018 C 
ATOM     34  C   UNL     1       8.078  -1.196   0.711  0.00  0.00    +0.031 C 
ATOM     35  C   UNL     1       6.351  -2.606  -0.222  0.00  0.00    +0.031 C 
ATOM     36  C   UNL     1       7.652  -2.444   0.255  0.00  0.00    +0.140 C 
ENDBRANCH  24  31
ENDBRANCH   3  25
TORSDOF 5
