REMARK  Name = 11955716
REMARK  6 active torsions:
REMARK  status: ('A' for Active; 'I' for Inactive)
REMARK    1  A    between atoms: C_4  and  C_25
REMARK    2  A    between atoms: C_11  and  C_12
REMARK    3  A    between atoms: C_13  and  C_18
REMARK    4  A    between atoms: C_15  and  O_21
REMARK    5  A    between atoms: C_16  and  O_23
REMARK    6  A    between atoms: C_25  and  N_26
REMARK                            x       y       z     vdW  Elec       q    Type
REMARK                         _______ _______ _______ _____ _____    ______ ____
ROOT
ATOM      1  O   UNL     1      -2.521  -0.089  -2.974  0.00  0.00    -0.269 OA
ATOM      2  N   UNL     1      -1.153   0.325  -1.140  0.00  0.00    -0.231 N 
ATOM      3  C   UNL     1       1.093   0.881  -0.886  0.00  0.00    +0.016 C 
ATOM      4  C   UNL     1       3.220   1.380   0.070  0.00  0.00    -0.043 C 
ATOM      5  C   UNL     1       0.550   0.732   0.397  0.00  0.00    +0.016 C 
ATOM      6  C   UNL     1       0.047   0.643  -1.923  0.00  0.00    +0.072 C 
ATOM      7  C   UNL     1      -0.900   0.389   0.311  0.00  0.00    +0.072 C 
ATOM      8  C   UNL     1       2.425   1.205  -1.065  0.00  0.00    -0.005 C 
ATOM      9  C   UNL     1       2.676   1.231   1.357  0.00  0.00    -0.006 C 
ATOM     10  C   UNL     1       1.329   0.904   1.527  0.00  0.00    +0.001 C 
ATOM     11  C   UNL     1      -2.338  -0.045  -1.760  0.00  0.00    +0.259 C 
ENDROOT
BRANCH  11  12
ATOM     12  C   UNL     1      -3.460  -0.429  -0.892  0.00  0.00    +0.088 C 
ATOM     13  C   UNL     1      -5.422   0.209   0.359  0.00  0.00    +0.012 C 
ATOM     14  C   UNL     1      -4.351   0.553  -0.466  0.00  0.00    +0.006 C 
ATOM     15  C   UNL     1      -3.634  -1.753  -0.498  0.00  0.00    +0.141 C 
ATOM     16  C   UNL     1      -5.599  -1.117   0.755  0.00  0.00    +0.133 C 
ATOM     17  C   UNL     1      -4.705  -2.098   0.327  0.00  0.00    +0.073 C 
BRANCH  13  18
ATOM     18  C   UNL     1      -6.370   1.272   0.808  0.00  0.00    +0.025 C 
ATOM     19  C   UNL     1      -6.374   1.448   2.337  0.00  0.00    +0.005 C 
ATOM     20  C   UNL     1      -7.805   1.030   0.304  0.00  0.00    +0.005 C 
ENDBRANCH  13  18
BRANCH  15  21
ATOM     21  O   UNL     1      -2.770  -2.726  -0.905  0.00  0.00    -0.505 OA
ATOM     22  H   UNL     1      -2.047  -2.508  -1.459  0.00  0.00    +0.292 HD
ENDBRANCH  15  21
BRANCH  16  23
ATOM     23  O   UNL     1      -6.639  -1.470   1.561  0.00  0.00    -0.506 OA
ATOM     24  H   UNL     1      -7.246  -0.820   1.855  0.00  0.00    +0.292 HD
ENDBRANCH  16  23
ENDBRANCH  11  12
BRANCH   4  25
ATOM     25  C   UNL     1       4.668   1.729  -0.084  0.00  0.00    -0.050 C 
BRANCH  25  26
ATOM     26  N   UNL     1       5.510   0.537  -0.160  0.00  0.00    +0.387 N 
ATOM     27  N   UNL     1       7.666  -1.156   0.758  0.00  0.00    +0.383 N 
ATOM     28  C   UNL     1       6.914   0.905  -0.380  0.00  0.00    -0.100 C 
ATOM     29  C   UNL     1       5.378  -0.273   1.057  0.00  0.00    -0.100 C 
ATOM     30  C   UNL     1       7.799  -0.344  -0.457  0.00  0.00    -0.101 C 
ATOM     31  C   UNL     1       6.261  -1.523   0.979  0.00  0.00    -0.101 C 
ATOM     32  C   UNL     1       8.507  -2.349   0.681  0.00  0.00    -0.101 C 
ATOM     33  H   UNL     1       5.195  -0.021  -0.953  0.00  0.00    -0.079 HD
ATOM     34  H   UNL     1       7.981  -0.599   1.553  0.00  0.00    -0.080 HD
ENDBRANCH  25  26
ENDBRANCH   4  25
TORSDOF 6
