REMARK  Name = 71234
REMARK  5 active torsions:
REMARK  status: ('A' for Active; 'I' for Inactive)
REMARK    1  A    between atoms: C_1  and  N_4
REMARK    2  A    between atoms: C_1  and  C_13
REMARK    3  A    between atoms: C_5  and  C_8
REMARK    4  A    between atoms: C_13  and  N_15
REMARK    5  A    between atoms: C_16  and  C_19
REMARK                            x       y       z     vdW  Elec       q    Type
REMARK                         _______ _______ _______ _____ _____    ______ ____
ROOT
ATOM      1  C   UNL     1       0.583  -2.757  -0.301  0.00  0.00    +0.091 C 
ATOM      2  C   UNL     1       0.043  -3.284  -1.627  0.00  0.00    +0.023 C 
ENDROOT
BRANCH   1   4
ATOM      3  O   UNL     1       2.853  -1.776   1.158  0.00  0.00    -0.270 OA
ATOM      4  N   UNL     1       1.247  -1.489  -0.490  0.00  0.00    -0.301 N 
ATOM      5  C   UNL     1       2.342  -1.102   0.268  0.00  0.00    +0.247 C 
ATOM      6  H   UNL     1       0.909  -0.876  -1.182  0.00  0.00    +0.150 HD
BRANCH   5   8
ATOM      7  N   UNL     1       4.081   2.171   0.737  0.00  0.00    -0.242 NA
ATOM      8  C   UNL     1       2.894   0.245  -0.032  0.00  0.00    +0.072 C 
ATOM      9  C   UNL     1       2.740   0.784  -1.286  0.00  0.00    +0.008 C 
ATOM     10  C   UNL     1       3.555   0.943   0.943  0.00  0.00    +0.103 C 
ATOM     11  C   UNL     1       3.268   2.045  -1.536  0.00  0.00    +0.021 C 
ATOM     12  C   UNL     1       3.923   2.691  -0.501  0.00  0.00    +0.099 C 
ENDBRANCH   5   8
ENDBRANCH   1   4
BRANCH   1  13
ATOM     13  C   UNL     1      -0.497  -2.657   0.778  0.00  0.00    +0.109 C 
BRANCH  13  15
ATOM     14  O   UNL     1      -0.658   0.159   1.313  0.00  0.00    -0.270 OA
ATOM     15  N   UNL     1      -1.575  -1.775   0.420  0.00  0.00    -0.299 N 
ATOM     16  C   UNL     1      -1.566  -0.419   0.722  0.00  0.00    +0.247 C 
ATOM     17  H   UNL     1      -2.351  -2.148  -0.059  0.00  0.00    +0.150 HD
BRANCH  16  19
ATOM     18  N   UNL     1      -4.617   0.580  -1.188  0.00  0.00    -0.242 NA
ATOM     19  C   UNL     1      -2.767   0.351   0.307  0.00  0.00    +0.072 C 
ATOM     20  C   UNL     1      -3.124   1.484   0.995  0.00  0.00    +0.008 C 
ATOM     21  C   UNL     1      -3.514  -0.073  -0.759  0.00  0.00    +0.103 C 
ATOM     22  C   UNL     1      -4.253   2.184   0.584  0.00  0.00    +0.021 C 
ATOM     23  C   UNL     1      -4.958   1.695  -0.503  0.00  0.00    +0.099 C 
ENDBRANCH  16  19
ENDBRANCH  13  15
ENDBRANCH   1  13
TORSDOF 5
