REMARK  Name = 6450551
REMARK  5 active torsions:
REMARK  status: ('A' for Active; 'I' for Inactive)
REMARK    1  A    between atoms: C_5  and  C_11
REMARK    2  A    between atoms: C_7  and  S_19
REMARK    3  A    between atoms: C_12  and  C_14
REMARK    4  A    between atoms: S_19  and  C_20
REMARK    5  A    between atoms: C_21  and  C_28
REMARK                            x       y       z     vdW  Elec       q    Type
REMARK                         _______ _______ _______ _____ _____    ______ ____
ROOT
ATOM      1  N   UNL     1       0.526  -1.630  -1.191  0.00  0.00    -0.276 N 
ATOM      2  N   UNL     1       1.862  -1.516  -1.281  0.00  0.00    -0.173 NA
ATOM      3  C   UNL     1       1.025  -0.198   0.393  0.00  0.00    +0.036 A 
ATOM      4  C   UNL     1      -0.038  -0.864  -0.206  0.00  0.00    +0.076 A 
ATOM      5  C   UNL     1       2.162  -0.644  -0.315  0.00  0.00    +0.102 A 
ATOM      6  C   UNL     1      -1.364  -0.704   0.202  0.00  0.00    +0.025 C 
ATOM      7  C   UNL     1      -1.599   0.174   1.264  0.00  0.00    +0.031 C 
ATOM      8  C   UNL     1       0.773   0.681   1.460  0.00  0.00    +0.004 C 
ATOM      9  C   UNL     1      -0.550   0.856   1.884  0.00  0.00    +0.007 C 
ATOM     10  H   UNL     1      -0.002  -2.213  -1.783  0.00  0.00    +0.189 HD
ENDROOT
BRANCH   5  11
ATOM     11  C   UNL     1       3.490  -0.222  -0.044  0.00  0.00    +0.022 C 
ATOM     12  C   UNL     1       4.635  -0.622  -0.658  0.00  0.00    +0.021 C 
BRANCH  12  14
ATOM     13  N   UNL     1       6.051   0.770   0.655  0.00  0.00    -0.244 NA
ATOM     14  C   UNL     1       5.991  -0.153  -0.320  0.00  0.00    +0.081 C 
ATOM     15  C   UNL     1       7.070  -0.668  -0.999  0.00  0.00    +0.019 C 
ATOM     16  C   UNL     1       8.329  -0.195  -0.646  0.00  0.00    +0.003 C 
ATOM     17  C   UNL     1       7.290   1.207   0.971  0.00  0.00    +0.099 C 
ATOM     18  C   UNL     1       8.450   0.761   0.356  0.00  0.00    +0.021 C 
ENDBRANCH  12  14
ENDBRANCH   5  11
BRANCH   7  19
ATOM     19  S   UNL     1      -3.272   0.426   1.836  0.00  0.00    -0.087 S 
BRANCH  19  20
ATOM     20  C   UNL     1      -4.051   1.058   0.357  0.00  0.00    +0.034 C 
ATOM     21  C   UNL     1      -5.128   0.406  -0.248  0.00  0.00    +0.059 C 
ATOM     22  C   UNL     1      -3.555   2.239  -0.198  0.00  0.00    +0.007 C 
ATOM     23  C   UNL     1      -5.706   0.935  -1.402  0.00  0.00    +0.005 C 
ATOM     24  C   UNL     1      -4.133   2.768  -1.352  0.00  0.00    +0.001 C 
ATOM     25  C   UNL     1      -5.209   2.115  -1.954  0.00  0.00    +0.000 C 
BRANCH  21  28
ATOM     26  O   UNL     1      -6.623  -0.794   1.101  0.00  0.00    -0.270 OA
ATOM     27  N   UNL     1      -5.138  -2.026  -0.183  0.00  0.00    -0.299 N 
ATOM     28  C   UNL     1      -5.688  -0.830   0.286  0.00  0.00    +0.246 C 
ATOM     29  C   UNL     1      -5.600  -3.332   0.232  0.00  0.00    +0.111 C 
ATOM     30  H   UNL     1      -4.397  -1.977  -0.830  0.00  0.00    +0.150 HD
ENDBRANCH  21  28
ENDBRANCH  19  20
ENDBRANCH   7  19
TORSDOF 5
