REMARK  Name = 3038498
REMARK  8 active torsions:
REMARK  status: ('A' for Active; 'I' for Inactive)
REMARK    1  A    between atoms: C_1  and  C_7
REMARK    2  A    between atoms: C_2  and  C_10
REMARK    3  A    between atoms: C_3  and  O_13
REMARK    4  A    between atoms: O_13  and  C_14
REMARK    5  A    between atoms: C_14  and  O_15
REMARK    6  A    between atoms: O_15  and  P_16
REMARK    7  A    between atoms: P_16  and  O_18
REMARK    8  A    between atoms: P_16  and  O_20
REMARK                            x       y       z     vdW  Elec       q    Type
REMARK                         _______ _______ _______ _____ _____    ______ ____
ROOT
ATOM      1  C   UNL     1      -1.655   1.222   0.011  0.00  0.00    +0.011 C 
ATOM      2  C   UNL     1      -1.695  -1.194   0.009  0.00  0.00    +0.011 C 
ATOM      3  C   UNL     1      -1.043   0.004   0.305  0.00  0.00    +0.133 C 
ATOM      4  C   UNL     1      -2.918   1.243  -0.580  0.00  0.00    -0.001 C 
ATOM      5  C   UNL     1      -2.958  -1.173  -0.582  0.00  0.00    -0.001 C 
ATOM      6  C   UNL     1      -3.570   0.046  -0.876  0.00  0.00    -0.000 C 
ENDROOT
BRANCH   1   7
ATOM      7  C   UNL     1      -0.974   2.514   0.321  0.00  0.00    +0.025 C 
ATOM      8  C   UNL     1      -1.758   3.361   1.340  0.00  0.00    +0.005 C 
ATOM      9  C   UNL     1      -0.690   3.346  -0.944  0.00  0.00    +0.005 C 
ENDBRANCH   1   7
BRANCH   2  10
ATOM     10  C   UNL     1      -1.057  -2.508   0.318  0.00  0.00    +0.025 C 
ATOM     11  C   UNL     1      -0.801  -3.348  -0.947  0.00  0.00    +0.005 C 
ATOM     12  C   UNL     1      -1.868  -3.329   1.337  0.00  0.00    +0.005 C 
ENDBRANCH   2  10
BRANCH   3  13
ATOM     13  O   UNL     1       0.192  -0.017   0.884  0.00  0.00    -0.448 OA
BRANCH  13  14
ATOM     14  C   UNL     1       1.335  -0.035   0.022  0.00  0.00    +0.369 C 
BRANCH  14  15
ATOM     15  O   UNL     1       2.561  -0.009   0.741  0.00  0.00    -0.231 OA
BRANCH  15  16
ATOM     16  P   UNL     1       3.968  -0.024  -0.058  0.00  0.00    +0.476 P 
ATOM     17  O   UNL     1       5.191   0.007   0.813  0.00  0.00    -0.227 OA
BRANCH  16  18
ATOM     18  O   UNL     1       3.863   1.215  -1.094  0.00  0.00    -0.303 OA
ATOM     19  H   UNL     1       3.053   1.129  -1.620  0.00  0.00    +0.222 HD
ENDBRANCH  16  18
BRANCH  16  20
ATOM     20  O   UNL     1       3.878  -1.321  -1.021  0.00  0.00    -0.303 OA
ATOM     21  H   UNL     1       3.068  -1.274  -1.551  0.00  0.00    +0.222 HD
ENDBRANCH  16  20
ENDBRANCH  15  16
ENDBRANCH  14  15
ENDBRANCH  13  14
ENDBRANCH   3  13
TORSDOF 8
