REMARK  Name = 1727
REMARK  1 active torsions:
REMARK  status: ('A' for Active; 'I' for Inactive)
REMARK    1  A    between atoms: C_2  and  N_7
REMARK                            x       y       z     vdW  Elec       q    Type
REMARK                         _______ _______ _______ _____ _____    ______ ____
ROOT
ATOM      1  N   UNL     1      -1.803   0.000   0.000  0.00  0.00    -0.242 NA
ATOM      2  C   UNL     1       0.992   0.000   0.000  0.00  0.00    +0.045 C 
ATOM      3  C   UNL     1       0.294   1.203   0.000  0.00  0.00    +0.035 C 
ATOM      4  C   UNL     1       0.294  -1.203   0.000  0.00  0.00    +0.035 C 
ATOM      5  C   UNL     1      -1.090   1.149   0.000  0.00  0.00    +0.100 C 
ATOM      6  C   UNL     1      -1.090  -1.149   0.000  0.00  0.00    +0.100 C 
ENDROOT
BRANCH   2   7
ATOM      7  N   UNL     1       2.402   0.000   0.000  0.00  0.00    -0.357 N 
ATOM      8  H   UNL     1       2.894   0.853   0.000  0.00  0.00    +0.142 HD
ATOM      9  H   UNL     1       2.894  -0.853  -0.001  0.00  0.00    +0.142 HD
ENDBRANCH   2   7
TORSDOF 1
