REMARK  Name = 28360827
REMARK  0 active torsions:
REMARK  status: ('A' for Active; 'I' for Inactive)
REMARK                            x       y       z     vdW  Elec       q    Type
REMARK                         _______ _______ _______ _____ _____    ______ ____
ROOT
ATOM      1  O   UNL     1      -0.849  -1.690   0.062  0.00  0.00    -0.350 OA
ATOM      2  O   UNL     1      -2.503   1.424  -0.052  0.00  0.00    -0.219 OA
ATOM      3  N   UNL     1       2.524  -0.171  -0.297  0.00  0.00    +0.389 N 
ATOM      4  N   UNL     1      -2.021  -0.929   0.045  0.00  0.00    -0.001 NA
ATOM      5  C   UNL     1       2.144   1.145   0.354  0.00  0.00    -0.076 C 
ATOM      6  C   UNL     1       0.739   1.588  -0.105  0.00  0.00    +0.018 C 
ATOM      7  C   UNL     1       1.591  -1.325   0.031  0.00  0.00    -0.012 C 
ATOM      8  C   UNL     1      -0.216   0.457  -0.035  0.00  0.00    +0.092 C 
ATOM      9  C   UNL     1       0.204  -0.846   0.009  0.00  0.00    +0.139 C 
ATOM     10  C   UNL     1      -1.614   0.348  -0.013  0.00  0.00    +0.188 C 
ATOM     11  H   UNL     1       3.463  -0.422   0.014  0.00  0.00    -0.084 HD
ATOM     12  H   UNL     1       2.465  -0.026  -1.304  0.00  0.00    -0.084 HD
ENDROOT
TORSDOF 0
