REMARK  Name = 24199
REMARK  5 active torsions:
REMARK  status: ('A' for Active; 'I' for Inactive)
REMARK    1  A    between atoms: C_1  and  C_2
REMARK    2  A    between atoms: C_1  and  C_8
REMARK    3  A    between atoms: C_1  and  O_14
REMARK    4  A    between atoms: C_1  and  C_16
REMARK    5  A    between atoms: C_16  and  N_18
REMARK                            x       y       z     vdW  Elec       q    Type
REMARK                         _______ _______ _______ _____ _____    ______ ____
ROOT
ATOM      1  C   UNL     1       0.675  -0.321   0.367  0.00  0.00    +0.088 C 
ENDROOT
BRANCH   1   2
ATOM      2  C   UNL     1       0.824   1.189   0.190  0.00  0.00    +0.027 C 
ATOM      3  C   UNL     1       1.814   1.760   1.214  0.00  0.00    +0.003 C 
ATOM      4  C   UNL     1       1.262   1.527  -1.242  0.00  0.00    +0.003 C 
ATOM      5  C   UNL     1       2.021   3.261   1.023  0.00  0.00    +0.000 C 
ATOM      6  C   UNL     1       1.470   3.028  -1.429  0.00  0.00    +0.000 C 
ATOM      7  C   UNL     1       2.448   3.593  -0.404  0.00  0.00    +0.000 C 
ENDBRANCH   1   2
BRANCH   1   8
ATOM      8  C   UNL     1       2.010  -1.036   0.135  0.00  0.00    -0.000 C 
ATOM      9  C   UNL     1       2.846  -1.231   1.209  0.00  0.00    -0.002 C 
ATOM     10  C   UNL     1       2.318  -1.455  -1.138  0.00  0.00    -0.002 C 
ATOM     11  C   UNL     1       4.061  -1.883   0.998  0.00  0.00    -0.000 C 
ATOM     12  C   UNL     1       3.534  -2.107  -1.349  0.00  0.00    -0.000 C 
ATOM     13  C   UNL     1       4.405  -2.321  -0.281  0.00  0.00    -0.000 C 
ENDBRANCH   1   8
BRANCH   1  14
ATOM     14  O   UNL     1       0.251  -0.537   1.720  0.00  0.00    -0.385 OA
ATOM     15  H   UNL     1      -0.594  -0.085   1.869  0.00  0.00    +0.211 HD
ENDBRANCH   1  14
BRANCH   1  16
ATOM     16  C   UNL     1      -0.393  -0.926  -0.573  0.00  0.00    -0.046 C 
BRANCH  16  18
ATOM     17  N   UNL     1      -4.582  -0.214   0.096  0.00  0.00    +0.384 N 
ATOM     18  N   UNL     1      -1.701  -0.285  -0.445  0.00  0.00    +0.386 N 
ATOM     19  C   UNL     1      -4.009  -0.160  -1.321  0.00  0.00    -0.097 C 
ATOM     20  C   UNL     1      -3.543   0.307   1.092  0.00  0.00    -0.097 C 
ATOM     21  C   UNL     1      -2.653  -0.856  -1.404  0.00  0.00    -0.100 C 
ATOM     22  C   UNL     1      -2.203  -0.406   0.927  0.00  0.00    -0.100 C 
ATOM     23  C   UNL     1      -5.812   0.698   0.157  0.00  0.00    -0.096 C 
ATOM     24  C   UNL     1      -5.042  -1.626   0.458  0.00  0.00    -0.096 C 
ATOM     25  H   UNL     1      -1.596   0.707  -0.657  0.00  0.00    -0.080 HD
ENDBRANCH  16  18
ENDBRANCH   1  16
TORSDOF 5
