REMARK  Name = 5511
REMARK  4 active torsions:
REMARK  status: ('A' for Active; 'I' for Inactive)
REMARK    1  A    between atoms: C_1  and  C_4
REMARK    2  A    between atoms: C_1  and  C_12
REMARK    3  A    between atoms: C_4  and  C_5
REMARK    4  A    between atoms: C_12  and  N_13
REMARK                            x       y       z     vdW  Elec       q    Type
REMARK                         _______ _______ _______ _____ _____    ______ ____
ROOT
ATOM      1  C   UNL     1      -0.510  -1.423   0.461  0.00  0.00    +0.041 C 
ATOM      2  C   UNL     1      -1.312  -2.727   0.529  0.00  0.00    +0.006 C 
ENDROOT
BRANCH   1   4
ATOM      3  O   UNL     1       1.308  -2.888  -0.140  0.00  0.00    -0.291 OA
ATOM      4  C   UNL     1       0.946  -1.740   0.117  0.00  0.00    +0.171 C 
BRANCH   4   5
ATOM      5  C   UNL     1       1.956  -0.642   0.075  0.00  0.00    +0.035 C 
ATOM      6  C   UNL     1       1.778   0.448   0.897  0.00  0.00    +0.003 C 
ATOM      7  C   UNL     1       3.026  -0.761  -0.782  0.00  0.00    +0.003 C 
ATOM      8  C   UNL     1       2.723   1.474   0.859  0.00  0.00    -0.004 C 
ATOM      9  C   UNL     1       3.970   0.265  -0.820  0.00  0.00    -0.004 C 
ATOM     10  C   UNL     1       3.818   1.383   0.001  0.00  0.00    -0.022 C 
ATOM     11  C   UNL     1       4.829   2.479  -0.040  0.00  0.00    +0.031 C 
ENDBRANCH   4   5
ENDBRANCH   1   4
BRANCH   1  12
ATOM     12  C   UNL     1      -1.073  -0.453  -0.588  0.00  0.00    -0.070 C 
BRANCH  12  13
ATOM     13  N   UNL     1      -2.477  -0.133  -0.333  0.00  0.00    +0.387 N 
ATOM     14  C   UNL     1      -3.025   0.684  -1.425  0.00  0.00    -0.077 C 
ATOM     15  C   UNL     1      -2.622   0.545   0.963  0.00  0.00    -0.077 C 
ATOM     16  C   UNL     1      -4.507   0.987  -1.197  0.00  0.00    -0.023 C 
ATOM     17  C   UNL     1      -4.091   0.843   1.268  0.00  0.00    -0.023 C 
ATOM     18  C   UNL     1      -4.735   1.658   0.152  0.00  0.00    -0.004 C 
ATOM     19  H   UNL     1      -3.009  -1.003  -0.294  0.00  0.00    -0.080 HD
ENDBRANCH  12  13
ENDBRANCH   1  12
TORSDOF 4
