REMARK  Name = 208901
REMARK  12 active torsions:
REMARK  status: ('A' for Active; 'I' for Inactive)
REMARK    1  A    between atoms: C_1  and  C_21
REMARK    2  A    between atoms: C_4  and  O_7
REMARK    3  A    between atoms: O_7  and  C_8
REMARK    4  A    between atoms: C_8  and  C_9
REMARK    5  A    between atoms: C_9  and  C_10
REMARK    6  A    between atoms: C_13  and  O_16
REMARK    7  A    between atoms: O_16  and  S_17
REMARK    8  A    between atoms: C_21  and  C_22
REMARK    9  A    between atoms: C_22  and  C_24
REMARK   10  A    between atoms: C_22  and  O_27
REMARK   11  A    between atoms: C_24  and  O_25
REMARK   12  A    between atoms: O_27  and  C_28
REMARK                            x       y       z     vdW  Elec       q    Type
REMARK                         _______ _______ _______ _____ _____    ______ ____
ROOT
ATOM      1  C   UNL     1      -3.047   1.128  -0.751  0.00  0.00    -0.019 C 
ATOM      2  C   UNL     1      -2.029   0.650  -1.575  0.00  0.00    -0.001 C 
ATOM      3  C   UNL     1      -2.819   2.231   0.072  0.00  0.00    -0.001 C 
ATOM      4  C   UNL     1      -0.554   2.378  -0.755  0.00  0.00    +0.139 C 
ATOM      5  C   UNL     1      -0.782   1.275  -1.577  0.00  0.00    +0.037 C 
ATOM      6  C   UNL     1      -1.572   2.856   0.070  0.00  0.00    +0.037 C 
ENDROOT
BRANCH   4   7
ATOM      7  O   UNL     1       0.671   2.992  -0.756  0.00  0.00    -0.475 OA
BRANCH   7   8
ATOM      8  C   UNL     1       1.079   3.612   0.457  0.00  0.00    +0.210 C 
BRANCH   8   9
ATOM      9  C   UNL     1       2.606   3.569   0.566  0.00  0.00    +0.074 C 
BRANCH   9  10
ATOM     10  C   UNL     1       3.149   2.180   0.598  0.00  0.00    -0.018 C 
ATOM     11  C   UNL     1       3.316   1.523   1.817  0.00  0.00    -0.001 C 
ATOM     12  C   UNL     1       3.489   1.537  -0.593  0.00  0.00    -0.001 C 
ATOM     13  C   UNL     1       4.163  -0.418   0.655  0.00  0.00    +0.171 C 
ATOM     14  C   UNL     1       3.823   0.224   1.846  0.00  0.00    +0.039 C 
ATOM     15  C   UNL     1       3.996   0.238  -0.564  0.00  0.00    +0.039 C 
BRANCH  13  16
ATOM     16  O   UNL     1       4.657  -1.686   0.684  0.00  0.00    -0.360 OA
BRANCH  16  17
ATOM     17  S   UNL     1       4.431  -2.763  -0.530  0.00  0.00    +0.032 S 
ATOM     18  O   UNL     1       3.032  -2.787  -0.904  0.00  0.00    -0.062 OA
ATOM     19  O   UNL     1       5.491  -2.622  -1.508  0.00  0.00    -0.062 OA
ATOM     20  C   UNL     1       4.763  -4.225   0.419  0.00  0.00    +0.194 C 
ENDBRANCH  16  17
ENDBRANCH  13  16
ENDBRANCH   9  10
ENDBRANCH   8   9
ENDBRANCH   7   8
ENDBRANCH   4   7
BRANCH   1  21
ATOM     21  C   UNL     1      -4.380   0.459  -0.749  0.00  0.00    +0.067 C 
BRANCH  21  22
ATOM     22  C   UNL     1      -4.474  -0.670   0.290  0.00  0.00    +0.217 C 
BRANCH  22  24
ATOM     23  O   UNL     1      -6.421  -2.128   0.321  0.00  0.00    -0.248 OA
ATOM     24  C   UNL     1      -5.916  -1.042   0.572  0.00  0.00    +0.342 C 
BRANCH  24  25
ATOM     25  O   UNL     1      -6.600  -0.028   1.164  0.00  0.00    -0.479 OA
ATOM     26  H   UNL     1      -6.172   0.787   1.337  0.00  0.00    +0.295 HD
ENDBRANCH  24  25
ENDBRANCH  22  24
BRANCH  22  27
ATOM     27  O   UNL     1      -3.830  -1.824  -0.236  0.00  0.00    -0.345 OA
BRANCH  27  28
ATOM     28  C   UNL     1      -3.460  -2.729   0.794  0.00  0.00    +0.143 C 
ATOM     29  C   UNL     1      -2.781  -3.932   0.173  0.00  0.00    +0.035 C 
ENDBRANCH  27  28
ENDBRANCH  22  27
ENDBRANCH  21  22
ENDBRANCH   1  21
TORSDOF 12
