REMARK  Name = 444650
REMARK  9 active torsions:
REMARK  status: ('A' for Active; 'I' for Inactive)
REMARK    1  A    between atoms: N_1  and  S_3
REMARK    2  A    between atoms: N_1  and  C_13
REMARK    3  A    between atoms: S_3  and  C_6
REMARK    4  A    between atoms: C_13  and  C_15
REMARK    5  A    between atoms: C_13  and  C_18
REMARK    6  A    between atoms: C_15  and  O_16
REMARK    7  A    between atoms: C_18  and  C_20
REMARK    8  A    between atoms: C_18  and  C_23
REMARK    9  A    between atoms: C_20  and  O_21
REMARK                            x       y       z     vdW  Elec       q    Type
REMARK                         _______ _______ _______ _____ _____    ______ ____
ROOT
ATOM      1  N   UNL     1       0.717   0.676   0.806  0.00  0.00    -0.169 NA
ATOM      2  H   UNL     1       0.390   0.142   1.611  0.00  0.00    +0.149 HD
ENDROOT
BRANCH   1   3
ATOM      3  S   UNL     1      -0.453   1.869   0.499  0.00  0.00    +0.061 S 
ATOM      4  O   UNL     1      -0.094   2.597  -0.703  0.00  0.00    -0.153 OA
ATOM      5  O   UNL     1      -0.729   2.584   1.730  0.00  0.00    -0.153 OA
BRANCH   3   6
ATOM      6  C   UNL     1      -1.882   0.893   0.139  0.00  0.00    +0.122 C 
ATOM      7  C   UNL     1      -2.728   0.527   1.172  0.00  0.00    +0.020 C 
ATOM      8  C   UNL     1      -2.129   0.512  -1.169  0.00  0.00    +0.020 C 
ATOM      9  C   UNL     1      -4.120  -0.636  -0.424  0.00  0.00    -0.022 C 
ATOM     10  C   UNL     1      -3.855  -0.244   0.888  0.00  0.00    -0.003 C 
ATOM     11  C   UNL     1      -3.256  -0.259  -1.453  0.00  0.00    -0.003 C 
ATOM     12  C   UNL     1      -5.325  -1.460  -0.728  0.00  0.00    +0.031 C 
ENDBRANCH   3   6
ENDBRANCH   1   3
BRANCH   1  13
ATOM     13  C   UNL     1       1.065  -0.306  -0.245  0.00  0.00    +0.184 C 
BRANCH  13  15
ATOM     14  O   UNL     1       0.199  -1.898   1.384  0.00  0.00    -0.249 OA
ATOM     15  C   UNL     1       0.638  -1.668   0.264  0.00  0.00    +0.330 C 
BRANCH  15  16
ATOM     16  O   UNL     1       0.792  -2.636  -0.677  0.00  0.00    -0.479 OA
ATOM     17  H   UNL     1       1.132  -2.418  -1.522  0.00  0.00    +0.295 HD
ENDBRANCH  15  16
ENDBRANCH  13  15
BRANCH  13  18
ATOM     18  C   UNL     1       2.559  -0.277  -0.622  0.00  0.00    +0.126 C 
BRANCH  18  20
ATOM     19  O   UNL     1       4.050   0.220   1.259  0.00  0.00    -0.250 OA
ATOM     20  C   UNL     1       3.513  -0.601   0.528  0.00  0.00    +0.315 C 
BRANCH  20  21
ATOM     21  O   UNL     1       3.711  -1.939   0.666  0.00  0.00    -0.480 OA
ATOM     22  H   UNL     1       3.282  -2.538   0.087  0.00  0.00    +0.295 HD
ENDBRANCH  20  21
ENDBRANCH  18  20
BRANCH  18  23
ATOM     23  C   UNL     1       2.977   1.027  -1.331  0.00  0.00    +0.013 C 
ATOM     24  C   UNL     1       4.352   1.020  -1.983  0.00  0.00    +0.001 C 
ENDBRANCH  18  23
ENDBRANCH  13  18
ENDBRANCH   1  13
TORSDOF 9
