REMARK  Name = 51397022
REMARK  9 active torsions:
REMARK  status: ('A' for Active; 'I' for Inactive)
REMARK    1  A    between atoms: N_1  and  C_18
REMARK    2  A    between atoms: C_2  and  C_10
REMARK    3  A    between atoms: C_13  and  O_16
REMARK    4  A    between atoms: C_18  and  C_19
REMARK    5  A    between atoms: C_19  and  C_22
REMARK    6  A    between atoms: C_19  and  C_28
REMARK    7  A    between atoms: N_21  and  C_24
REMARK    8  A    between atoms: C_24  and  C_27
REMARK    9  A    between atoms: C_28  and  C_29
REMARK                            x       y       z     vdW  Elec       q    Type
REMARK                         _______ _______ _______ _____ _____    ______ ____
ROOT
ATOM      1  N   UNL     1      -0.169  -1.487   0.772  0.00  0.00    +0.387 N 
ATOM      2  C   UNL     1      -3.045  -1.327  -0.019  0.00  0.00    +0.015 C 
ATOM      3  C   UNL     1      -1.883  -0.710  -0.882  0.00  0.00    -0.017 C 
ATOM      4  C   UNL     1      -0.554  -1.460  -0.685  0.00  0.00    -0.077 C 
ATOM      5  C   UNL     1      -2.555  -1.444   1.456  0.00  0.00    -0.019 C 
ATOM      6  C   UNL     1      -1.213  -2.150   1.628  0.00  0.00    -0.077 C 
ATOM      7  C   UNL     1      -3.452  -2.710  -0.559  0.00  0.00    +0.004 C 
ATOM      8  C   UNL     1      -1.675   0.798  -0.645  0.00  0.00    -0.002 C 
ATOM      9  H   UNL     1      -0.113  -0.515   1.077  0.00  0.00    -0.080 HD
ENDROOT
BRANCH   2  10
ATOM     10  C   UNL     1      -4.281  -0.474  -0.062  0.00  0.00    -0.020 C 
ATOM     11  C   UNL     1      -4.911  -0.220  -1.280  0.00  0.00    +0.032 C 
ATOM     12  C   UNL     1      -4.798   0.065   1.116  0.00  0.00    -0.004 C 
ATOM     13  C   UNL     1      -6.058   0.572  -1.321  0.00  0.00    +0.133 C 
ATOM     14  C   UNL     1      -5.945   0.858   1.076  0.00  0.00    +0.003 C 
ATOM     15  C   UNL     1      -6.575   1.111  -0.142  0.00  0.00    +0.037 C 
BRANCH  13  16
ATOM     16  O   UNL     1      -6.672   0.820  -2.510  0.00  0.00    -0.506 OA
ATOM     17  H   UNL     1      -6.324   0.458  -3.301  0.00  0.00    +0.292 HD
ENDBRANCH  13  16
ENDBRANCH   2  10
BRANCH   1  18
ATOM     18  C   UNL     1       1.187  -2.107   0.974  0.00  0.00    -0.068 C 
BRANCH  18  19
ATOM     19  C   UNL     1       2.313  -1.144   0.572  0.00  0.00    +0.060 C 
BRANCH  19  22
ATOM     20  O   UNL     1       2.443   0.110   2.651  0.00  0.00    -0.275 OA
ATOM     21  N   UNL     1       1.943   1.254   0.699  0.00  0.00    -0.295 N 
ATOM     22  C   UNL     1       2.255   0.121   1.436  0.00  0.00    +0.221 C 
ATOM     23  H   UNL     1       1.809   1.168  -0.273  0.00  0.00    +0.150 HD
BRANCH  21  24
ATOM     24  C   UNL     1       1.808   2.555   1.309  0.00  0.00    +0.205 C 
BRANCH  24  27
ATOM     25  O   UNL     1       2.311   3.788  -0.633  0.00  0.00    -0.244 OA
ATOM     26  O   UNL     1       0.377   4.240   0.500  0.00  0.00    -0.244 OA
ATOM     27  C   UNL     1       1.464   3.632   0.291  0.00  0.00    +0.385 C 
ENDBRANCH  24  27
ENDBRANCH  21  24
ENDBRANCH  19  22
BRANCH  19  28
ATOM     28  C   UNL     1       3.700  -1.817   0.615  0.00  0.00    +0.033 C 
BRANCH  28  29
ATOM     29  C   UNL     1       4.722  -1.122  -0.256  0.00  0.00    -0.022 C 
ATOM     30  C   UNL     1       4.880  -1.505  -1.588  0.00  0.00    -0.004 C 
ATOM     31  C   UNL     1       5.506  -0.097   0.273  0.00  0.00    -0.004 C 
ATOM     32  C   UNL     1       5.822  -0.863  -2.391  0.00  0.00    -0.000 C 
ATOM     33  C   UNL     1       6.449   0.545  -0.530  0.00  0.00    -0.000 C 
ATOM     34  C   UNL     1       6.606   0.163  -1.863  0.00  0.00    -0.000 C 
ENDBRANCH  28  29
ENDBRANCH  19  28
ENDBRANCH  18  19
ENDBRANCH   1  18
TORSDOF 9
