REMARK  Name = 446158
REMARK  10 active torsions:
REMARK  status: ('A' for Active; 'I' for Inactive)
REMARK    1  A    between atoms: N_2  and  C_27
REMARK    2  A    between atoms: N_3  and  C_30
REMARK    3  A    between atoms: C_4  and  C_13
REMARK    4  A    between atoms: C_5  and  C_20
REMARK    5  A    between atoms: C_6  and  O_9
REMARK    6  A    between atoms: C_7  and  O_11
REMARK    7  A    between atoms: C_13  and  C_14
REMARK    8  A    between atoms: C_20  and  C_21
REMARK    9  A    between atoms: C_27  and  C_28
REMARK   10  A    between atoms: C_30  and  C_31
REMARK                            x       y       z     vdW  Elec       q    Type
REMARK                         _______ _______ _______ _____ _____    ______ ____
ROOT
ATOM      1  O   UNL     1      -0.058  -0.893  -2.077  0.00  0.00    -0.252 OA
ATOM      2  N   UNL     1      -0.885  -0.899   0.074  0.00  0.00    -0.259 N 
ATOM      3  N   UNL     1       0.788   0.672  -0.613  0.00  0.00    -0.259 N 
ATOM      4  C   UNL     1      -1.529  -0.052   1.094  0.00  0.00    +0.111 C 
ATOM      5  C   UNL     1       1.435   0.837   0.702  0.00  0.00    +0.111 C 
ATOM      6  C   UNL     1      -0.588   0.384   2.220  0.00  0.00    +0.157 C 
ATOM      7  C   UNL     1       0.492   1.369   1.785  0.00  0.00    +0.157 C 
ATOM      8  C   UNL     1      -0.052  -0.402  -0.940  0.00  0.00    +0.308 C 
ENDROOT
BRANCH   6   9
ATOM      9  O   UNL     1      -1.384   1.002   3.239  0.00  0.00    -0.380 OA
ATOM     10  H   UNL     1      -2.076   0.386   3.526  0.00  0.00    +0.211 HD
ENDBRANCH   6   9
BRANCH   7  11
ATOM     11  O   UNL     1       1.270   1.739   2.931  0.00  0.00    -0.380 OA
ATOM     12  H   UNL     1       1.960   2.366   2.664  0.00  0.00    +0.211 HD
ENDBRANCH   7  11
BRANCH   4  13
ATOM     13  C   UNL     1      -2.322   1.095   0.452  0.00  0.00    +0.049 C 
BRANCH  13  14
ATOM     14  C   UNL     1      -3.595   0.598  -0.169  0.00  0.00    -0.020 C 
ATOM     15  C   UNL     1      -4.759   0.552   0.590  0.00  0.00    -0.004 C 
ATOM     16  C   UNL     1      -3.598   0.186  -1.497  0.00  0.00    -0.004 C 
ATOM     17  C   UNL     1      -5.941   0.089   0.013  0.00  0.00    -0.000 C 
ATOM     18  C   UNL     1      -4.780  -0.277  -2.074  0.00  0.00    -0.000 C 
ATOM     19  C   UNL     1      -5.952  -0.326  -1.319  0.00  0.00    -0.000 C 
ENDBRANCH  13  14
ENDBRANCH   4  13
BRANCH   5  20
ATOM     20  C   UNL     1       2.224  -0.421   1.095  0.00  0.00    +0.049 C 
BRANCH  20  21
ATOM     21  C   UNL     1       3.493  -0.539   0.303  0.00  0.00    -0.020 C 
ATOM     22  C   UNL     1       4.662   0.039   0.786  0.00  0.00    -0.004 C 
ATOM     23  C   UNL     1       3.488  -1.225  -0.906  0.00  0.00    -0.004 C 
ATOM     24  C   UNL     1       5.841  -0.071   0.049  0.00  0.00    -0.000 C 
ATOM     25  C   UNL     1       4.668  -1.335  -1.643  0.00  0.00    -0.000 C 
ATOM     26  C   UNL     1       5.844  -0.758  -1.165  0.00  0.00    -0.000 C 
ENDBRANCH  20  21
ENDBRANCH   5  20
BRANCH   2  27
ATOM     27  C   UNL     1      -1.462  -2.227  -0.102  0.00  0.00    +0.121 C 
BRANCH  27  28
ATOM     28  C   UNL     1      -1.011  -3.107   1.016  0.00  0.00    -0.005 C 
ATOM     29  C   UNL     1      -0.333  -4.247   0.840  0.00  0.00    -0.003 C 
ENDBRANCH  27  28
ENDBRANCH   2  27
BRANCH   3  30
ATOM     30  C   UNL     1       1.364   1.450  -1.704  0.00  0.00    +0.121 C 
BRANCH  30  31
ATOM     31  C   UNL     1       0.921   2.870  -1.579  0.00  0.00    -0.005 C 
ATOM     32  C   UNL     1       1.758   3.899  -1.400  0.00  0.00    -0.003 C 
ENDBRANCH  30  31
ENDBRANCH   3  30
TORSDOF 10
