REMARK  Name = 15897928
REMARK  2 active torsions:
REMARK  status: ('A' for Active; 'I' for Inactive)
REMARK    1  A    between atoms: C_6  and  C_14
REMARK    2  A    between atoms: C_19  and  O_20
REMARK                            x       y       z     vdW  Elec       q    Type
REMARK                         _______ _______ _______ _____ _____    ______ ____
ROOT
ATOM      1  N   UNL     1      -3.031   1.004   0.124  0.00  0.00    -0.240 N 
ATOM      2  N   UNL     1      -3.638  -1.125  -0.123  0.00  0.00    -0.319 NA
ATOM      3  N   UNL     1      -1.400  -2.058  -0.237  0.00  0.00    -0.181 NA
ATOM      4  N   UNL     1      -5.341   0.560   0.078  0.00  0.00    -0.320 N 
ATOM      5  C   UNL     1      -1.863   0.297   0.039  0.00  0.00    +0.130 C 
ATOM      6  C   UNL     1       0.385  -0.396  -0.047  0.00  0.00    +0.022 C 
ATOM      7  C   UNL     1      -2.269  -1.024  -0.114  0.00  0.00    +0.105 C 
ATOM      8  C   UNL     1      -0.520   0.655   0.078  0.00  0.00    +0.028 C 
ATOM      9  C   UNL     1      -4.064   0.111   0.022  0.00  0.00    +0.250 C 
ATOM     10  C   UNL     1      -0.096  -1.692  -0.197  0.00  0.00    +0.111 C 
ATOM     11  C   UNL     1      -3.138   2.437   0.293  0.00  0.00    +0.122 C 
ATOM     12  H   UNL     1      -5.520   1.522   0.191  0.00  0.00    +0.146 HD
ATOM     13  H   UNL     1      -6.090  -0.075   0.006  0.00  0.00    +0.146 HD
ENDROOT
BRANCH   6  14
ATOM     14  C   UNL     1       1.807  -0.141  -0.021  0.00  0.00    +0.002 C 
ATOM     15  C   UNL     1       2.307   1.075  -0.488  0.00  0.00    +0.003 C 
ATOM     16  C   UNL     1       2.682  -1.110   0.472  0.00  0.00    +0.003 C 
ATOM     17  C   UNL     1       3.679   1.322  -0.463  0.00  0.00    +0.037 C 
ATOM     18  C   UNL     1       4.055  -0.863   0.498  0.00  0.00    +0.037 C 
ATOM     19  C   UNL     1       4.553   0.353   0.030  0.00  0.00    +0.134 C 
BRANCH  19  20
ATOM     20  O   UNL     1       5.893   0.594   0.055  0.00  0.00    -0.506 OA
ATOM     21  H   UNL     1       6.228   1.411  -0.259  0.00  0.00    +0.292 HD
ENDBRANCH  19  20
ENDBRANCH   6  14
TORSDOF 2
