REMARK  Name = 5327152
REMARK  5 active torsions:
REMARK  status: ('A' for Active; 'I' for Inactive)
REMARK    1  A    between atoms: C_3  and  C_15
REMARK    2  A    between atoms: C_9  and  O_24
REMARK    3  A    between atoms: C_11  and  N_18
REMARK    4  A    between atoms: N_18  and  S_20
REMARK    5  A    between atoms: O_24  and  C_25
REMARK                            x       y       z     vdW  Elec       q    Type
REMARK                         _______ _______ _______ _____ _____    ______ ____
ROOT
ATOM      1  O   UNL     1       3.818  -0.242  -0.987  0.00  0.00    -0.226 OA
ATOM      2  N   UNL     1       1.602   0.116  -0.356  0.00  0.00    -0.235 N 
ATOM      3  C   UNL     1       1.609   1.524  -0.752  0.00  0.00    +0.159 C 
ATOM      4  C   UNL     1       0.341   1.927  -1.499  0.00  0.00    +0.055 C 
ATOM      5  C   UNL     1       0.404  -0.413   0.312  0.00  0.00    +0.124 C 
ATOM      6  C   UNL     1      -0.917   1.425  -0.842  0.00  0.00    -0.022 C 
ATOM      7  C   UNL     1      -0.882   0.304   0.001  0.00  0.00    -0.005 C 
ATOM      8  C   UNL     1      -2.074  -0.157   0.580  0.00  0.00    +0.013 C 
ATOM      9  C   UNL     1       2.787  -0.632  -0.441  0.00  0.00    +0.405 C 
ATOM     10  C   UNL     1      -2.142   2.050  -1.116  0.00  0.00    -0.003 C 
ATOM     11  C   UNL     1      -3.287   0.478   0.313  0.00  0.00    +0.065 C 
ATOM     12  C   UNL     1      -3.321   1.580  -0.537  0.00  0.00    +0.016 C 
ENDROOT
BRANCH   3  15
ATOM     13  O   UNL     1       1.395   1.964   1.587  0.00  0.00    -0.273 OA
ATOM     14  N   UNL     1       2.530   3.496   0.252  0.00  0.00    -0.301 N 
ATOM     15  C   UNL     1       1.827   2.329   0.497  0.00  0.00    +0.241 C 
ATOM     16  C   UNL     1       2.851   4.457   1.282  0.00  0.00    +0.111 C 
ATOM     17  H   UNL     1       2.826   3.681  -0.669  0.00  0.00    +0.150 HD
ENDBRANCH   3  15
BRANCH  11  18
ATOM     18  N   UNL     1      -4.492  -0.004   0.907  0.00  0.00    -0.213 N 
ATOM     19  H   UNL     1      -4.927   0.472   1.651  0.00  0.00    +0.174 HD
BRANCH  18  20
ATOM     20  S   UNL     1      -5.150  -1.467   0.253  0.00  0.00    +0.091 S 
ATOM     21  O   UNL     1      -5.823  -1.014  -1.162  0.00  0.00    -0.050 OA
ATOM     22  O   UNL     1      -4.059  -2.377  -0.048  0.00  0.00    -0.050 OA
ATOM     23  O   UNL     1      -6.231  -1.896   1.122  0.00  0.00    -0.050 OA
ENDBRANCH  18  20
ENDBRANCH  11  18
BRANCH   9  24
ATOM     24  O   UNL     1       2.676  -1.859   0.160  0.00  0.00    -0.442 OA
BRANCH  24  25
ATOM     25  C   UNL     1       3.845  -2.686   0.125  0.00  0.00    +0.138 C 
ATOM     26  C   UNL     1       4.202  -2.961  -1.335  0.00  0.00    +0.044 C 
ATOM     27  C   UNL     1       3.510  -3.988   0.850  0.00  0.00    +0.044 C 
ATOM     28  C   UNL     1       4.982  -1.953   0.835  0.00  0.00    +0.044 C 
ENDBRANCH  24  25
ENDBRANCH   9  24
TORSDOF 5
