REMARK  Name = 11980903
REMARK  4 active torsions:
REMARK  status: ('A' for Active; 'I' for Inactive)
REMARK    1  A    between atoms: C_1  and  C_19
REMARK    2  A    between atoms: C_2  and  C_6
REMARK    3  A    between atoms: C_8  and  N_14
REMARK    4  A    between atoms: N_17  and  C_24
REMARK                            x       y       z     vdW  Elec       q    Type
REMARK                         _______ _______ _______ _____ _____    ______ ____
ROOT
ATOM      1  C   UNL     1       1.113  -2.830  -0.025  0.00  0.00    +0.002 C 
ATOM      2  C   UNL     1      -0.178  -3.108  -0.323  0.00  0.00    +0.015 C 
ENDROOT
BRANCH   2   6
ATOM      3  N   UNL     1      -1.984  -1.708   0.493  0.00  0.00    -0.285 N 
ATOM      4  C   UNL     1      -2.963  -0.793   0.363  0.00  0.00    +0.048 C 
ATOM      5  C   UNL     1      -3.207  -0.228  -0.908  0.00  0.00    -0.003 C 
ATOM      6  C   UNL     1      -1.222  -2.114  -0.532  0.00  0.00    +0.052 C 
ATOM      7  C   UNL     1      -4.228   0.726  -1.040  0.00  0.00    +0.069 C 
ATOM      8  C   UNL     1      -4.987   1.107   0.068  0.00  0.00    +0.029 C 
ATOM      9  C   UNL     1      -2.417  -0.644  -1.988  0.00  0.00    -0.001 C 
ATOM     10  C   UNL     1      -1.418  -1.593  -1.800  0.00  0.00    +0.015 C 
ATOM     11  C   UNL     1      -3.727  -0.407   1.469  0.00  0.00    +0.015 C 
ATOM     12  C   UNL     1      -4.737   0.541   1.319  0.00  0.00    +0.012 C 
ATOM     13  C   UNL     1      -1.718  -2.307   1.815  0.00  0.00    +0.117 C 
BRANCH   8  14
ATOM     14  N   UNL     1      -6.012   2.066  -0.077  0.00  0.00    -0.307 N 
ATOM     15  C   UNL     1      -7.181   2.027   0.778  0.00  0.00    +0.112 C 
ATOM     16  C   UNL     1      -5.900   3.112  -1.075  0.00  0.00    +0.112 C 
ENDBRANCH   8  14
ENDBRANCH   2   6
BRANCH   1  19
ATOM     17  N   UNL     1       3.210   0.074   0.182  0.00  0.00    -0.273 N 
ATOM     18  C   UNL     1       3.028  -1.255  -0.099  0.00  0.00    +0.033 C 
ATOM     19  C   UNL     1       1.720  -1.531   0.147  0.00  0.00    +0.011 C 
ATOM     20  C   UNL     1       2.025   0.622   0.599  0.00  0.00    +0.033 C 
ATOM     21  C   UNL     1       1.072  -0.373   0.585  0.00  0.00    +0.012 C 
ATOM     22  C   UNL     1       4.133  -2.119  -0.576  0.00  0.00    +0.048 C 
ATOM     23  C   UNL     1       1.889   2.045   0.979  0.00  0.00    +0.048 C 
BRANCH  17  24
ATOM     24  C   UNL     1       4.419   0.767   0.061  0.00  0.00    +0.055 C 
ATOM     25  C   UNL     1       5.282   0.826   1.145  0.00  0.00    +0.015 C 
ATOM     26  C   UNL     1       4.736   1.380  -1.142  0.00  0.00    +0.015 C 
ATOM     27  C   UNL     1       6.489   1.514   1.024  0.00  0.00    +0.001 C 
ATOM     28  C   UNL     1       5.944   2.068  -1.263  0.00  0.00    +0.001 C 
ATOM     29  C   UNL     1       6.820   2.135  -0.180  0.00  0.00    +0.000 C 
ENDBRANCH  17  24
ENDBRANCH   1  19
TORSDOF 4
