4282
  -OEChem-10061700063D

 49 48  0     0  0  0  0  0  0999 V2000
   -2.4607    0.3021    0.0105 N   0  0  0  0  0  0  0  0  0  0  0  0
    2.4654    0.3280   -0.0119 N   0  0  0  0  0  0  0  0  0  0  0  0
   -7.3876    0.4244   -0.0055 N   0  0  0  0  0  0  0  0  0  0  0  0
    7.3916    0.4220    0.0066 N   0  0  0  0  0  0  0  0  0  0  0  0
   -0.0118    0.3159   -0.0014 C   0  0  0  0  0  0  0  0  0  0  0  0
   -1.2763   -0.5449    0.0131 C   0  0  0  0  0  0  0  0  0  0  0  0
    1.2746   -0.5129   -0.0164 C   0  0  0  0  0  0  0  0  0  0  0  0
   -3.6762   -0.5030    0.0154 C   0  0  0  0  0  0  0  0  0  0  0  0
    3.6747   -0.4834   -0.0158 C   0  0  0  0  0  0  0  0  0  0  0  0
   -4.9373    0.3637    0.0017 C   0  0  0  0  0  0  0  0  0  0  0  0
    4.9409    0.3759   -0.0018 C   0  0  0  0  0  0  0  0  0  0  0  0
   -6.2269   -0.4587    0.0255 C   0  0  0  0  0  0  0  0  0  0  0  0
    6.2257   -0.4542   -0.0246 C   0  0  0  0  0  0  0  0  0  0  0  0
   -8.6244   -0.3436    0.0061 C   0  0  0  0  0  0  0  0  0  0  0  0
    8.6237   -0.3534   -0.0040 C   0  0  0  0  0  0  0  0  0  0  0  0
   -9.8382    0.5696   -0.0260 C   0  0  0  0  0  0  0  0  0  0  0  0
    9.8428    0.5526    0.0283 C   0  0  0  0  0  0  0  0  0  0  0  0
   -0.0286    0.9715   -0.8823 H   0  0  0  0  0  0  0  0  0  0  0  0
   -0.0068    0.9709    0.8802 H   0  0  0  0  0  0  0  0  0  0  0  0
   -1.2753   -1.1943   -0.8705 H   0  0  0  0  0  0  0  0  0  0  0  0
   -1.2667   -1.1864    0.9026 H   0  0  0  0  0  0  0  0  0  0  0  0
    1.2797   -1.1663    0.8647 H   0  0  0  0  0  0  0  0  0  0  0  0
    1.2721   -1.1558   -0.9054 H   0  0  0  0  0  0  0  0  0  0  0  0
   -3.6962   -1.1447    0.9051 H   0  0  0  0  0  0  0  0  0  0  0  0
   -3.6916   -1.1572   -0.8649 H   0  0  0  0  0  0  0  0  0  0  0  0
    3.6922   -1.1258   -0.9050 H   0  0  0  0  0  0  0  0  0  0  0  0
    3.6865   -1.1374    0.8648 H   0  0  0  0  0  0  0  0  0  0  0  0
   -4.9208    1.0376    0.8688 H   0  0  0  0  0  0  0  0  0  0  0  0
   -4.9268    0.9999   -0.8934 H   0  0  0  0  0  0  0  0  0  0  0  0
    4.9290    1.0494   -0.8694 H   0  0  0  0  0  0  0  0  0  0  0  0
    4.9338    1.0127    0.8930 H   0  0  0  0  0  0  0  0  0  0  0  0
   -2.4507    0.9157    0.8246 H   0  0  0  0  0  0  0  0  0  0  0  0
    2.4578    0.9423   -0.8254 H   0  0  0  0  0  0  0  0  0  0  0  0
   -6.2439   -1.0796    0.9294 H   0  0  0  0  0  0  0  0  0  0  0  0
   -6.2400   -1.1273   -0.8436 H   0  0  0  0  0  0  0  0  0  0  0  0
    6.2394   -1.0756   -0.9282 H   0  0  0  0  0  0  0  0  0  0  0  0
    6.2343   -1.1225    0.8447 H   0  0  0  0  0  0  0  0  0  0  0  0
   -7.3642    1.0541    0.7961 H   0  0  0  0  0  0  0  0  0  0  0  0
    7.3724    1.0515   -0.7953 H   0  0  0  0  0  0  0  0  0  0  0  0
   -8.6650   -1.0065   -0.8661 H   0  0  0  0  0  0  0  0  0  0  0  0
   -8.6782   -0.9691    0.9051 H   0  0  0  0  0  0  0  0  0  0  0  0
    8.6600   -1.0163    0.8685 H   0  0  0  0  0  0  0  0  0  0  0  0
    8.6743   -0.9797   -0.9026 H   0  0  0  0  0  0  0  0  0  0  0  0
   -9.8613    1.2287    0.8484 H   0  0  0  0  0  0  0  0  0  0  0  0
   -9.8394    1.1937   -0.9260 H   0  0  0  0  0  0  0  0  0  0  0  0
  -10.7582   -0.0237   -0.0254 H   0  0  0  0  0  0  0  0  0  0  0  0
    9.8703    1.2111   -0.8463 H   0  0  0  0  0  0  0  0  0  0  0  0
    9.8473    1.1771    0.9279 H   0  0  0  0  0  0  0  0  0  0  0  0
   10.7594   -0.0460    0.0286 H   0  0  0  0  0  0  0  0  0  0  0  0
  1  6  1  0  0  0  0
  1  8  1  0  0  0  0
  1 32  1  0  0  0  0
  2  7  1  0  0  0  0
  2  9  1  0  0  0  0
  2 33  1  0  0  0  0
  3 12  1  0  0  0  0
  3 14  1  0  0  0  0
  3 38  1  0  0  0  0
  4 13  1  0  0  0  0
  4 15  1  0  0  0  0
  4 39  1  0  0  0  0
  5  6  1  0  0  0  0
  5  7  1  0  0  0  0
  5 18  1  0  0  0  0
  5 19  1  0  0  0  0
  6 20  1  0  0  0  0
  6 21  1  0  0  0  0
  7 22  1  0  0  0  0
  7 23  1  0  0  0  0
  8 10  1  0  0  0  0
  8 24  1  0  0  0  0
  8 25  1  0  0  0  0
  9 11  1  0  0  0  0
  9 26  1  0  0  0  0
  9 27  1  0  0  0  0
 10 12  1  0  0  0  0
 10 28  1  0  0  0  0
 10 29  1  0  0  0  0
 11 13  1  0  0  0  0
 11 30  1  0  0  0  0
 11 31  1  0  0  0  0
 12 34  1  0  0  0  0
 12 35  1  0  0  0  0
 13 36  1  0  0  0  0
 13 37  1  0  0  0  0
 14 16  1  0  0  0  0
 14 40  1  0  0  0  0
 14 41  1  0  0  0  0
 15 17  1  0  0  0  0
 15 42  1  0  0  0  0
 15 43  1  0  0  0  0
 16 44  1  0  0  0  0
 16 45  1  0  0  0  0
 16 46  1  0  0  0  0
 17 47  1  0  0  0  0
 17 48  1  0  0  0  0
 17 49  1  0  0  0  0
M  END
> <DATABASE_ID>
DB06445

> <DATABASE_NAME>
drugbank

> <ORIGINAL_SOURCE>
PUBCHEM

> <ORIGINAL_SOURCE_URL>
https://pubchem.ncbi.nlm.nih.gov/rest/pug/compound/inchikey/UMJJGDUYVQCBMC-UHFFFAOYSA-N/SDF?record_type=3d

> <SMILES>
CCNCCCNCCCNCCCNCC

> <INCHI_IDENTIFIER>
InChI=1S/C13H32N4/c1-3-14-8-5-10-16-12-7-13-17-11-6-9-15-4-2/h14-17H,3-13H2,1-2H3

> <INCHI_KEY>
UMJJGDUYVQCBMC-UHFFFAOYSA-N

> <FORMULA>
C13H32N4

> <MOLECULAR_WEIGHT>
244.427

> <EXACT_MASS>
244.262697046

> <JCHEM_ACCEPTOR_COUNT>
4

> <JCHEM_ATOM_COUNT>
49

> <JCHEM_AVERAGE_POLARIZABILITY>
33.203019496010896

> <JCHEM_BIOAVAILABILITY>
1

> <JCHEM_DONOR_COUNT>
4

> <JCHEM_FORMAL_CHARGE>
0

> <JCHEM_GHOSE_FILTER>
1

> <JCHEM_IUPAC>
3,7,11,15-tetraazaheptadecane

> <ALOGPS_LOGP>
0.77

> <JCHEM_LOGP>
-0.3925935903333335

> <ALOGPS_LOGS>
-3.01

> <JCHEM_MDDR_LIKE_RULE>
0

> <JCHEM_NUMBER_OF_RINGS>
0

> <JCHEM_PHYSIOLOGICAL_CHARGE>
3

> <JCHEM_PKA_STRONGEST_BASIC>
10.751753540117406

> <JCHEM_POLAR_SURFACE_AREA>
48.12

> <JCHEM_REFRACTIVITY>
76.96000000000001

> <JCHEM_ROTATABLE_BOND_COUNT>
14

> <JCHEM_RULE_OF_FIVE>
1

> <ALOGPS_SOLUBILITY>
2.39e-01 g/l

> <JCHEM_TRADITIONAL_IUPAC>
3,7,11,15-tetraazaheptadecane

> <JCHEM_VEBER_RULE>
0

> <DRUGBANK_ID>
DB06445

> <DRUG_GROUPS>
investigational

> <GENERIC_NAME>
Diethylnorspermine

$$$$
