REMARK  Name = 73115
REMARK  4 active torsions:
REMARK  status: ('A' for Active; 'I' for Inactive)
REMARK    1  A    between atoms: C_3  and  O_17
REMARK    2  A    between atoms: C_4  and  N_9
REMARK    3  A    between atoms: C_6  and  C_19
REMARK    4  A    between atoms: C_19  and  O_20
REMARK                            x       y       z     vdW  Elec       q    Type
REMARK                         _______ _______ _______ _____ _____    ______ ____
ROOT
ATOM      1  F   UNL     1      -1.062   0.259   1.837  0.00  0.00    -0.230 F 
ATOM      2  O   UNL     1      -1.502  -0.257  -1.074  0.00  0.00    -0.332 OA
ATOM      3  C   UNL     1      -2.976   0.648   0.563  0.00  0.00    +0.177 C 
ATOM      4  C   UNL     1      -0.847   0.847  -0.434  0.00  0.00    +0.235 C 
ATOM      5  C   UNL     1      -1.567   1.083   0.880  0.00  0.00    +0.237 C 
ATOM      6  C   UNL     1      -2.771  -0.490  -0.431  0.00  0.00    +0.176 C 
ENDROOT
BRANCH   4   9
ATOM      7  O   UNL     1       1.262   2.762  -0.550  0.00  0.00    -0.252 OA
ATOM      8  O   UNL     1       4.460  -0.459   0.188  0.00  0.00    -0.270 OA
ATOM      9  N   UNL     1       0.546   0.555  -0.279  0.00  0.00    -0.217 N 
ATOM     10  N   UNL     1       2.847   1.145  -0.182  0.00  0.00    -0.236 N 
ATOM     11  C   UNL     1       0.932  -0.763  -0.052  0.00  0.00    +0.071 C 
ATOM     12  C   UNL     1       1.526   1.574  -0.352  0.00  0.00    +0.315 C 
ATOM     13  C   UNL     1       2.197  -1.170   0.110  0.00  0.00    +0.047 C 
ATOM     14  C   UNL     1       3.280  -0.152   0.046  0.00  0.00    +0.250 C 
ATOM     15  C   UNL     1       2.583  -2.593   0.353  0.00  0.00    +0.037 C 
ATOM     16  H   UNL     1       3.543   1.839  -0.229  0.00  0.00    +0.159 HD
ENDBRANCH   4   9
BRANCH   3  17
ATOM     17  O   UNL     1      -3.666   1.712  -0.084  0.00  0.00    -0.379 OA
ATOM     18  H   UNL     1      -3.800   2.439   0.543  0.00  0.00    +0.211 HD
ENDBRANCH   3  17
BRANCH   6  19
ATOM     19  C   UNL     1      -2.711  -1.859   0.232  0.00  0.00    +0.169 C 
BRANCH  19  20
ATOM     20  O   UNL     1      -2.530  -2.842  -0.772  0.00  0.00    -0.379 OA
ATOM     21  H   UNL     1      -2.490  -3.720  -0.362  0.00  0.00    +0.211 HD
ENDBRANCH  19  20
ENDBRANCH   6  19
TORSDOF 4
