REMARK  Name = 60734
REMARK  7 active torsions:
REMARK  status: ('A' for Active; 'I' for Inactive)
REMARK    1  A    between atoms: C_3  and  O_11
REMARK    2  A    between atoms: C_4  and  O_13
REMARK    3  A    between atoms: C_7  and  O_15
REMARK    4  A    between atoms: C_9  and  O_17
REMARK    5  A    between atoms: O_17  and  C_19
REMARK    6  A    between atoms: C_19  and  C_20
REMARK    7  A    between atoms: C_20  and  C_21
REMARK                            x       y       z     vdW  Elec       q    Type
REMARK                         _______ _______ _______ _____ _____    ______ ____
ROOT
ATOM      1  N   UNL     1      -1.340   1.057   0.194  0.00  0.00    +0.394 N 
ATOM      2  C   UNL     1      -2.241   0.165  -0.546  0.00  0.00    -0.000 C 
ATOM      3  C   UNL     1      -2.062  -1.279  -0.082  0.00  0.00    +0.124 C 
ATOM      4  C   UNL     1      -3.594   0.830  -0.299  0.00  0.00    +0.092 C 
ATOM      5  C   UNL     1      -1.738   2.408  -0.185  0.00  0.00    -0.074 C 
ATOM      6  C   UNL     1       0.059   0.748  -0.069  0.00  0.00    -0.030 C 
ATOM      7  C   UNL     1      -0.597  -1.705  -0.254  0.00  0.00    +0.173 C 
ATOM      8  C   UNL     1      -3.264   2.327  -0.265  0.00  0.00    +0.004 C 
ATOM      9  C   UNL     1       0.362  -0.687   0.377  0.00  0.00    +0.177 C 
ATOM     10  H   UNL     1      -1.420   0.942   1.204  0.00  0.00    -0.079 HD
ENDROOT
BRANCH   3  11
ATOM     11  O   UNL     1      -2.873  -2.140  -0.878  0.00  0.00    -0.384 OA
ATOM     12  H   UNL     1      -3.804  -1.887  -0.783  0.00  0.00    +0.210 HD
ENDBRANCH   3  11
BRANCH   4  13
ATOM     13  O   UNL     1      -4.157   0.458   0.953  0.00  0.00    -0.387 OA
ATOM     14  H   UNL     1      -4.369  -0.489   0.943  0.00  0.00    +0.210 HD
ENDBRANCH   4  13
BRANCH   7  15
ATOM     15  O   UNL     1      -0.398  -2.965   0.391  0.00  0.00    -0.379 OA
ATOM     16  H   UNL     1      -0.997  -3.623   0.006  0.00  0.00    +0.211 HD
ENDBRANCH   7  15
BRANCH   9  17
ATOM     17  O   UNL     1       1.700  -0.998  -0.009  0.00  0.00    -0.452 OA
BRANCH  17  19
ATOM     18  O   UNL     1       2.618   0.405   1.577  0.00  0.00    -0.250 OA
ATOM     19  C   UNL     1       2.670  -0.179   0.503  0.00  0.00    +0.317 C 
BRANCH  19  20
ATOM     20  C   UNL     1       3.821  -0.108  -0.474  0.00  0.00    +0.110 C 
BRANCH  20  21
ATOM     21  C   UNL     1       4.934   0.813   0.020  0.00  0.00    +0.012 C 
ATOM     22  C   UNL     1       6.100   0.851  -0.955  0.00  0.00    +0.001 C 
ENDBRANCH  20  21
ENDBRANCH  19  20
ENDBRANCH  17  19
ENDBRANCH   9  17
TORSDOF 7
