REMARK  Name = 65825
REMARK  4 active torsions:
REMARK  status: ('A' for Active; 'I' for Inactive)
REMARK    1  A    between atoms: N_1  and  C_16
REMARK    2  A    between atoms: N_2  and  C_20
REMARK    3  A    between atoms: C_16  and  C_17
REMARK    4  A    between atoms: C_20  and  C_21
REMARK                            x       y       z     vdW  Elec       q    Type
REMARK                         _______ _______ _______ _____ _____    ______ ____
ROOT
ATOM      1  N   UNL     1      -0.267   1.657   0.476  0.00  0.00    +0.387 N 
ATOM      2  N   UNL     1      -0.646  -1.176   0.697  0.00  0.00    +0.387 N 
ATOM      3  C   UNL     1       2.103  -0.134   0.172  0.00  0.00    -0.008 C 
ATOM      4  C   UNL     1       1.386   0.067   1.524  0.00  0.00    -0.042 C 
ATOM      5  C   UNL     1       0.971  -0.066  -0.892  0.00  0.00    -0.042 C 
ATOM      6  C   UNL     1       3.238   0.886  -0.067  0.00  0.00    -0.000 C 
ATOM      7  C   UNL     1       2.926  -1.441   0.114  0.00  0.00    -0.000 C 
ATOM      8  C   UNL     1       0.704   1.460   1.560  0.00  0.00    -0.079 C 
ATOM      9  C   UNL     1       0.273   1.322  -0.849  0.00  0.00    -0.079 C 
ATOM     10  C   UNL     1       0.365  -1.077   1.758  0.00  0.00    -0.079 C 
ATOM     11  C   UNL     1      -0.065  -1.198  -0.652  0.00  0.00    -0.079 C 
ATOM     12  C   UNL     1       4.110   0.265  -1.154  0.00  0.00    -0.000 C 
ATOM     13  C   UNL     1       3.909  -1.242  -1.036  0.00  0.00    -0.000 C 
ATOM     14  H   UNL     1      -1.026   0.998   0.650  0.00  0.00    -0.080 HD
ATOM     15  H   UNL     1      -1.203  -0.323   0.754  0.00  0.00    -0.080 HD
ENDROOT
BRANCH   1  16
ATOM     16  C   UNL     1      -0.821   3.007   0.498  0.00  0.00    -0.077 C 
BRANCH  16  17
ATOM     17  C   UNL     1      -1.799   3.218  -0.645  0.00  0.00    -0.021 C 
ATOM     18  C   UNL     1      -3.005   2.357  -0.699  0.00  0.00    -0.002 C 
ATOM     19  C   UNL     1      -3.123   3.807  -0.331  0.00  0.00    -0.002 C 
ENDBRANCH  16  17
ENDBRANCH   1  16
BRANCH   2  20
ATOM     20  C   UNL     1      -1.533  -2.315   0.912  0.00  0.00    -0.077 C 
BRANCH  20  21
ATOM     21  C   UNL     1      -2.598  -2.394  -0.168  0.00  0.00    -0.021 C 
ATOM     22  C   UNL     1      -3.598  -3.486  -0.083  0.00  0.00    -0.002 C 
ATOM     23  C   UNL     1      -2.529  -3.516  -1.136  0.00  0.00    -0.002 C 
ENDBRANCH  20  21
ENDBRANCH   2  20
TORSDOF 4
