REMARK  Name = 25113123
REMARK  4 active torsions:
REMARK  status: ('A' for Active; 'I' for Inactive)
REMARK    1  A    between atoms: C_13  and  C_18
REMARK    2  A    between atoms: C_15  and  C_28
REMARK    3  A    between atoms: C_21  and  S_26
REMARK    4  A    between atoms: C_28  and  N_29
REMARK                            x       y       z     vdW  Elec       q    Type
REMARK                         _______ _______ _______ _____ _____    ______ ____
ROOT
ATOM      1  O   UNL     1      -4.109  -2.338   0.942  0.00  0.00    -0.475 OA
ATOM      2  O   UNL     1       1.954  -1.767  -2.611  0.00  0.00    -0.269 OA
ATOM      3  N   UNL     1       0.572  -1.683  -0.726  0.00  0.00    -0.276 N 
ATOM      4  C   UNL     1      -2.136  -1.120   0.182  0.00  0.00    +0.065 C 
ATOM      5  C   UNL     1      -1.829  -1.560  -1.268  0.00  0.00    +0.029 C 
ATOM      6  C   UNL     1      -0.898  -0.455   0.811  0.00  0.00    +0.029 C 
ATOM      7  C   UNL     1      -2.665  -2.293   1.045  0.00  0.00    +0.209 C 
ATOM      8  C   UNL     1      -3.369  -0.274   0.219  0.00  0.00    +0.014 C 
ATOM      9  C   UNL     1      -0.540  -2.377  -1.374  0.00  0.00    +0.094 C 
ATOM     10  C   UNL     1       0.342  -1.336   0.682  0.00  0.00    +0.094 C 
ATOM     11  C   UNL     1      -4.447  -1.044   0.637  0.00  0.00    +0.135 C 
ATOM     12  C   UNL     1      -3.554   1.053  -0.135  0.00  0.00    -0.008 C 
ATOM     13  C   UNL     1       1.747  -1.442  -1.442  0.00  0.00    +0.255 C 
ATOM     14  C   UNL     1      -5.731  -0.539   0.706  0.00  0.00    +0.036 C 
ATOM     15  C   UNL     1      -4.842   1.590  -0.059  0.00  0.00    -0.044 C 
ATOM     16  C   UNL     1      -5.924   0.798   0.358  0.00  0.00    -0.003 C 
ENDROOT
BRANCH  13  18
ATOM     17  S   UNL     1       4.006  -1.661   0.092  0.00  0.00    -0.076 S 
ATOM     18  C   UNL     1       2.837  -0.730  -0.765  0.00  0.00    +0.083 A 
ATOM     19  C   UNL     1       3.116   0.612  -0.681  0.00  0.00    +0.011 A 
ATOM     20  C   UNL     1       4.299   0.882   0.092  0.00  0.00    +0.012 A 
ATOM     21  C   UNL     1       4.885  -0.262   0.574  0.00  0.00    +0.055 A 
ATOM     22  C   UNL     1       2.328   1.590  -1.286  0.00  0.00    +0.001 C 
ATOM     23  C   UNL     1       4.808   2.158   0.335  0.00  0.00    +0.001 C 
ATOM     24  C   UNL     1       2.836   2.885  -1.045  0.00  0.00    +0.000 C 
ATOM     25  C   UNL     1       4.015   3.155  -0.274  0.00  0.00    +0.000 C 
BRANCH  21  26
ATOM     26  S   UNL     1       6.335  -0.437   1.559  0.00  0.00    -0.106 S 
ATOM     27  C   UNL     1       5.667  -0.360   3.250  0.00  0.00    +0.075 C 
ENDBRANCH  21  26
ENDBRANCH  13  18
BRANCH  15  28
ATOM     28  C   UNL     1      -5.072   3.016  -0.432  0.00  0.00    -0.059 C 
BRANCH  28  29
ATOM     29  N   UNL     1      -4.632   3.943   0.612  0.00  0.00    +0.383 N 
ATOM     30  H   UNL     1      -4.809   4.902   0.312  0.00  0.00    -0.089 HD
ATOM     31  H   UNL     1      -3.634   3.818   0.778  0.00  0.00    -0.089 HD
ATOM     32  H   UNL     1      -5.147   3.755   1.472  0.00  0.00    -0.089 HD
ENDBRANCH  28  29
ENDBRANCH  15  28
TORSDOF 4
