REMARK  Name = 25195365
REMARK  5 active torsions:
REMARK  status: ('A' for Active; 'I' for Inactive)
REMARK    1  A    between atoms: C_1  and  C_3
REMARK    2  A    between atoms: C_1  and  C_17
REMARK    3  A    between atoms: C_4  and  C_9
REMARK    4  A    between atoms: C_6  and  O_15
REMARK    5  A    between atoms: C_18  and  C_23
REMARK                            x       y       z     vdW  Elec       q    Type
REMARK                         _______ _______ _______ _____ _____    ______ ____
ROOT
ATOM      1  C   UNL     1       0.541   2.538   0.614  0.00  0.00    +0.086 C 
ATOM      2  C   UNL     1       0.630   3.716  -0.375  0.00  0.00    +0.019 C 
ENDROOT
BRANCH   1   3
ATOM      3  C   UNL     1      -0.737   1.779   0.496  0.00  0.00    -0.007 C 
ATOM      4  C   UNL     1      -3.128   0.359   0.277  0.00  0.00    +0.034 C 
ATOM      5  C   UNL     1      -1.052   1.123  -0.694  0.00  0.00    +0.034 C 
ATOM      6  C   UNL     1      -2.248   0.413  -0.804  0.00  0.00    +0.138 C 
ATOM      7  C   UNL     1      -1.618   1.725   1.576  0.00  0.00    -0.003 C 
ATOM      8  C   UNL     1      -2.813   1.015   1.467  0.00  0.00    +0.003 C 
BRANCH   4   9
ATOM      9  C   UNL     1      -4.374  -0.371   0.184  0.00  0.00    +0.003 C 
ATOM     10  C   UNL     1      -4.629  -1.430   1.056  0.00  0.00    +0.000 C 
ATOM     11  C   UNL     1      -5.321  -0.016  -0.777  0.00  0.00    +0.000 C 
ATOM     12  C   UNL     1      -5.830  -2.133   0.967  0.00  0.00    +0.000 C 
ATOM     13  C   UNL     1      -6.522  -0.720  -0.866  0.00  0.00    +0.000 C 
ATOM     14  C   UNL     1      -6.776  -1.778   0.006  0.00  0.00    +0.000 C 
ENDBRANCH   4   9
BRANCH   6  15
ATOM     15  O   UNL     1      -2.530  -0.220  -1.978  0.00  0.00    -0.471 OA
ATOM     16  C   UNL     1      -2.081  -1.567  -2.111  0.00  0.00    +0.252 C 
ENDBRANCH   6  15
ENDBRANCH   1   3
BRANCH   1  17
ATOM     17  C   UNL     1       1.732   1.664   0.453  0.00  0.00    -0.087 C 
ATOM     18  C   UNL     1       2.681   0.939   0.321  0.00  0.00    -0.076 C 
BRANCH  18  23
ATOM     19  N   UNL     1       5.148  -1.758   0.965  0.00  0.00    -0.336 NA
ATOM     20  N   UNL     1       5.738  -0.640  -1.087  0.00  0.00    -0.317 NA
ATOM     21  N   UNL     1       4.434   1.160  -1.895  0.00  0.00    -0.334 N 
ATOM     22  N   UNL     1       7.024  -2.428  -0.275  0.00  0.00    -0.283 N 
ATOM     23  C   UNL     1       3.807   0.072   0.160  0.00  0.00    +0.179 C 
ATOM     24  C   UNL     1       4.098  -0.918   1.076  0.00  0.00    +0.120 C 
ATOM     25  C   UNL     1       4.670   0.165  -0.912  0.00  0.00    +0.186 C 
ATOM     26  C   UNL     1       3.241  -1.124   2.284  0.00  0.00    +0.064 C 
ATOM     27  C   UNL     1       5.915  -1.566  -0.125  0.00  0.00    +0.196 C 
ATOM     28  H   UNL     1       5.039   1.242  -2.667  0.00  0.00    +0.144 HD
ATOM     29  H   UNL     1       3.665   1.768  -1.804  0.00  0.00    +0.144 HD
ATOM     30  H   UNL     1       7.201  -3.123   0.398  0.00  0.00    +0.156 HD
ATOM     31  H   UNL     1       7.619  -2.333  -1.054  0.00  0.00    +0.156 HD
ENDBRANCH  18  23
ENDBRANCH   1  17
TORSDOF 5
