REMARK  Name = 44129621
REMARK  4 active torsions:
REMARK  status: ('A' for Active; 'I' for Inactive)
REMARK    1  A    between atoms: C_4  and  O_11
REMARK    2  A    between atoms: O_11  and  C_12
REMARK    3  A    between atoms: C_12  and  C_13
REMARK    4  A    between atoms: C_13  and  N_14
REMARK                            x       y       z     vdW  Elec       q    Type
REMARK                         _______ _______ _______ _____ _____    ______ ____
ROOT
ATOM      1  N   UNL     1      -4.212  -1.115  -0.253  0.00  0.00    -0.312 N 
ATOM      2  C   UNL     1      -2.683   0.509  -0.257  0.00  0.00    +0.018 C 
ATOM      3  C   UNL     1      -2.944  -0.792   0.176  0.00  0.00    +0.049 C 
ATOM      4  C   UNL     1      -0.501   0.348   0.784  0.00  0.00    +0.139 C 
ATOM      5  C   UNL     1      -1.437   1.089   0.053  0.00  0.00    +0.038 C 
ATOM      6  C   UNL     1      -2.018  -1.546   0.906  0.00  0.00    +0.018 C 
ATOM      7  C   UNL     1      -0.789  -0.950   1.202  0.00  0.00    +0.038 C 
ATOM      8  C   UNL     1      -3.836   0.956  -0.959  0.00  0.00    +0.017 C 
ATOM      9  C   UNL     1      -4.759  -0.064  -0.940  0.00  0.00    +0.062 C 
ATOM     10  H   UNL     1      -4.660  -1.976  -0.090  0.00  0.00    +0.152 HD
ENDROOT
BRANCH   4  11
ATOM     11  O   UNL     1       0.707   0.902   1.088  0.00  0.00    -0.474 OA
BRANCH  11  12
ATOM     12  C   UNL     1       1.228   1.861   0.170  0.00  0.00    +0.227 C 
BRANCH  12  13
ATOM     13  C   UNL     1       2.752   1.814   0.187  0.00  0.00    +0.143 C 
BRANCH  13  14
ATOM     14  N   UNL     1       3.288   0.447  -0.163  0.00  0.00    -0.281 N 
ATOM     15  C   UNL     1       3.362  -0.072  -1.429  0.00  0.00    +0.066 C 
ATOM     16  C   UNL     1       3.774  -0.466   0.737  0.00  0.00    +0.066 C 
ATOM     17  C   UNL     1       3.903  -1.336  -1.336  0.00  0.00    +0.017 C 
ATOM     18  C   UNL     1       4.164  -1.585   0.034  0.00  0.00    +0.017 C 
ENDBRANCH  13  14
ENDBRANCH  12  13
ENDBRANCH  11  12
ENDBRANCH   4  11
TORSDOF 4
