REMARK  Name = 198757
REMARK  7 active torsions:
REMARK  status: ('A' for Active; 'I' for Inactive)
REMARK    1  A    between atoms: C_1  and  C_2
REMARK    2  A    between atoms: C_1  and  C_16
REMARK    3  A    between atoms: C_2  and  C_3
REMARK    4  A    between atoms: C_3  and  N_8
REMARK    5  A    between atoms: C_16  and  N_17
REMARK    6  A    between atoms: N_17  and  C_20
REMARK    7  A    between atoms: C_20  and  C_22
REMARK                            x       y       z     vdW  Elec       q    Type
REMARK                         _______ _______ _______ _____ _____    ______ ____
ROOT
ATOM      1  C   UNL     1      -1.037   1.763  -0.214  0.00  0.00    -0.022 C 
ENDROOT
BRANCH   1   2
ATOM      2  C   UNL     1      -2.098   2.769   0.245  0.00  0.00    +0.021 C 
BRANCH   2   3
ATOM      3  C   UNL     1      -3.428   2.603  -0.483  0.00  0.00    +0.119 C 
BRANCH   3   8
ATOM      4  S   UNL     1      -4.286   0.205  -1.550  0.00  0.00    +0.079 S 
ATOM      5  O   UNL     1      -3.035  -0.261  -2.107  0.00  0.00    -0.150 OA
ATOM      6  O   UNL     1      -5.385   0.695  -2.354  0.00  0.00    -0.150 OA
ATOM      7  O   UNL     1      -4.232   1.305   2.134  0.00  0.00    -0.268 OA
ATOM      8  N   UNL     1      -3.995   1.261  -0.228  0.00  0.00    -0.156 N 
ATOM      9  C   UNL     1      -4.899  -1.025  -0.479  0.00  0.00    +0.130 C 
ATOM     10  C   UNL     1      -4.875  -0.619   0.855  0.00  0.00    +0.074 C 
ATOM     11  C   UNL     1      -4.343   0.743   1.059  0.00  0.00    +0.269 C 
ATOM     12  C   UNL     1      -5.360  -2.264  -0.874  0.00  0.00    +0.020 C 
ATOM     13  C   UNL     1      -5.324  -1.467   1.852  0.00  0.00    +0.006 C 
ATOM     14  C   UNL     1      -5.815  -3.123   0.127  0.00  0.00    +0.001 C 
ATOM     15  C   UNL     1      -5.797  -2.729   1.478  0.00  0.00    +0.000 C 
ENDBRANCH   3   8
ENDBRANCH   2   3
ENDBRANCH   1   2
BRANCH   1  16
ATOM     16  C   UNL     1       0.286   1.987   0.518  0.00  0.00    -0.082 C 
BRANCH  16  17
ATOM     17  N   UNL     1       1.285   1.028   0.064  0.00  0.00    +0.386 N 
ATOM     18  H   UNL     1       0.957   0.084   0.267  0.00  0.00    -0.084 HD
ATOM     19  H   UNL     1       1.421   1.152  -0.939  0.00  0.00    -0.084 HD
BRANCH  17  20
ATOM     20  C   UNL     1       2.558   1.244   0.736  0.00  0.00    -0.037 C 
BRANCH  20  22
ATOM     21  O   UNL     1       4.802   0.490   1.010  0.00  0.00    -0.482 OA
ATOM     22  C   UNL     1       3.606   0.249   0.253  0.00  0.00    +0.145 C 
ATOM     23  C   UNL     1       3.855   0.406  -1.246  0.00  0.00    +0.046 C 
ATOM     24  C   UNL     1       4.866  -0.641  -1.696  0.00  0.00    +0.033 C 
ATOM     25  C   UNL     1       6.022  -0.701  -0.739  0.00  0.00    +0.012 C 
ATOM     26  C   UNL     1       5.923  -0.150   0.545  0.00  0.00    +0.134 C 
ATOM     27  C   UNL     1       7.210  -1.339  -1.118  0.00  0.00    -0.001 C 
ATOM     28  C   UNL     1       7.011  -0.201   1.420  0.00  0.00    +0.037 C 
ATOM     29  C   UNL     1       8.291  -1.401  -0.238  0.00  0.00    -0.000 C 
ATOM     30  C   UNL     1       8.193  -0.828   1.028  0.00  0.00    +0.003 C 
ENDBRANCH  20  22
ENDBRANCH  17  20
ENDBRANCH  16  17
ENDBRANCH   1  16
TORSDOF 7
