REMARK  Name = 9930049
REMARK  8 active torsions:
REMARK  status: ('A' for Active; 'I' for Inactive)
REMARK    1  A    between atoms: C_1  and  N_7
REMARK    2  A    between atoms: C_2  and  O_15
REMARK    3  A    between atoms: C_10  and  O_13
REMARK    4  A    between atoms: O_15  and  C_16
REMARK    5  A    between atoms: C_16  and  C_17
REMARK    6  A    between atoms: C_17  and  C_18
REMARK    7  A    between atoms: C_21  and  O_24
REMARK    8  A    between atoms: C_23  and  O_26
REMARK                            x       y       z     vdW  Elec       q    Type
REMARK                         _______ _______ _______ _____ _____    ______ ____
ROOT
ATOM      1  C   UNL     1       2.311   0.228  -0.134  0.00  0.00    -0.030 C 
ATOM      2  C   UNL     1       1.635  -1.132   0.111  0.00  0.00    +0.097 C 
ATOM      3  C   UNL     1       1.610   1.359   0.638  0.00  0.00    -0.018 C 
ATOM      4  C   UNL     1       1.394  -1.435   1.594  0.00  0.00    +0.027 C 
ATOM      5  C   UNL     1       1.413   1.042   2.120  0.00  0.00    -0.002 C 
ATOM      6  C   UNL     1       0.694  -0.288   2.323  0.00  0.00    +0.002 C 
ENDROOT
BRANCH   1   7
ATOM      7  N   UNL     1       3.719   0.154   0.225  0.00  0.00    +0.392 N 
ATOM      8  C   UNL     1       4.445   1.387  -0.092  0.00  0.00    -0.047 C 
ATOM      9  C   UNL     1       4.425  -0.909  -0.487  0.00  0.00    -0.075 C 
ATOM     10  C   UNL     1       5.908   0.952  -0.155  0.00  0.00    +0.088 C 
ATOM     11  C   UNL     1       5.878  -0.574  -0.189  0.00  0.00    +0.004 C 
ATOM     12  H   UNL     1       3.708  -0.019   1.230  0.00  0.00    -0.079 HD
BRANCH  10  13
ATOM     13  O   UNL     1       6.501   1.460  -1.341  0.00  0.00    -0.387 OA
ATOM     14  H   UNL     1       6.513   2.430  -1.307  0.00  0.00    +0.210 HD
ENDBRANCH  10  13
ENDBRANCH   1   7
BRANCH   2  15
ATOM     15  O   UNL     1       0.394  -1.183  -0.596  0.00  0.00    -0.358 OA
BRANCH  15  16
ATOM     16  C   UNL     1      -0.209  -2.464  -0.490  0.00  0.00    +0.147 C 
BRANCH  16  17
ATOM     17  C   UNL     1      -1.521  -2.483  -1.266  0.00  0.00    +0.058 C 
BRANCH  17  18
ATOM     18  C   UNL     1      -2.522  -1.492  -0.723  0.00  0.00    -0.016 C 
ATOM     19  C   UNL     1      -2.543  -0.202  -1.227  0.00  0.00    +0.036 C 
ATOM     20  C   UNL     1      -3.404  -1.892   0.269  0.00  0.00    -0.001 C 
ATOM     21  C   UNL     1      -3.469   0.714  -0.726  0.00  0.00    +0.172 C 
ATOM     22  C   UNL     1      -4.330  -0.977   0.770  0.00  0.00    +0.040 C 
ATOM     23  C   UNL     1      -4.362   0.326   0.273  0.00  0.00    +0.172 C 
BRANCH  21  24
ATOM     24  O   UNL     1      -3.491   1.983  -1.220  0.00  0.00    -0.468 OA
ATOM     25  C   UNL     1      -2.666   2.946  -0.568  0.00  0.00    +0.253 C 
ENDBRANCH  21  24
BRANCH  23  26
ATOM     26  O   UNL     1      -5.271   1.210   0.770  0.00  0.00    -0.468 OA
ATOM     27  C   UNL     1      -6.539   1.271   0.120  0.00  0.00    +0.253 C 
ENDBRANCH  23  26
ENDBRANCH  17  18
ENDBRANCH  16  17
ENDBRANCH  15  16
ENDBRANCH   2  15
TORSDOF 8
