REMARK  Name = 9823294
REMARK  4 active torsions:
REMARK  status: ('A' for Active; 'I' for Inactive)
REMARK    1  A    between atoms: C_14  and  O_17
REMARK    2  A    between atoms: O_17  and  C_20
REMARK    3  A    between atoms: N_19  and  C_22
REMARK    4  A    between atoms: C_23  and  C_28
REMARK                            x       y       z     vdW  Elec       q    Type
REMARK                         _______ _______ _______ _____ _____    ______ ____
ROOT
ATOM      1  O   UNL     1       4.540   1.210  -0.547  0.00  0.00    -0.264 OA
ATOM      2  N   UNL     1       4.280  -1.105  -0.876  0.00  0.00    -0.283 N 
ATOM      3  N   UNL     1       4.731   2.266   0.436  0.00  0.00    -0.163 NA
ATOM      4  C   UNL     1       3.571  -0.209   1.249  0.00  0.00    +0.066 C 
ATOM      5  C   UNL     1       4.636  -0.067   0.101  0.00  0.00    +0.217 C 
ATOM      6  C   UNL     1       3.299   1.115   1.991  0.00  0.00    +0.028 C 
ATOM      7  C   UNL     1       2.410  -0.749   0.438  0.00  0.00    -0.002 C 
ATOM      8  C   UNL     1       2.904  -1.283  -0.766  0.00  0.00    +0.046 C 
ATOM      9  C   UNL     1       3.994  -1.291   2.260  0.00  0.00    +0.009 C 
ATOM     10  C   UNL     1       3.434   2.352   1.107  0.00  0.00    +0.102 C 
ATOM     11  C   UNL     1       1.063  -0.816   0.762  0.00  0.00    +0.035 C 
ATOM     12  C   UNL     1       5.020  -1.309  -2.097  0.00  0.00    +0.114 C 
ATOM     13  C   UNL     1       2.039  -1.899  -1.659  0.00  0.00    +0.017 C 
ATOM     14  C   UNL     1       0.194  -1.424  -0.144  0.00  0.00    +0.150 C 
ATOM     15  C   UNL     1       4.991   3.457  -0.365  0.00  0.00    +0.121 C 
ATOM     16  C   UNL     1       0.678  -1.962  -1.345  0.00  0.00    +0.039 C 
ENDROOT
BRANCH  14  17
ATOM     17  O   UNL     1      -1.135  -1.505   0.143  0.00  0.00    -0.410 OA
BRANCH  17  20
ATOM     18  O   UNL     1      -1.438   0.529  -0.921  0.00  0.00    -0.226 OA
ATOM     19  N   UNL     1      -3.239  -0.618   0.040  0.00  0.00    -0.250 N 
ATOM     20  C   UNL     1      -1.917  -0.420  -0.311  0.00  0.00    +0.410 C 
ATOM     21  H   UNL     1      -3.435  -1.448   0.532  0.00  0.00    +0.158 HD
BRANCH  19  22
ATOM     22  C   UNL     1      -4.343   0.224  -0.221  0.00  0.00    +0.049 C 
ATOM     23  C   UNL     1      -5.612  -0.135   0.208  0.00  0.00    -0.009 C 
ATOM     24  C   UNL     1      -4.127   1.407  -0.911  0.00  0.00    +0.014 C 
ATOM     25  C   UNL     1      -6.690   0.710  -0.059  0.00  0.00    -0.003 C 
ATOM     26  C   UNL     1      -5.205   2.252  -1.178  0.00  0.00    +0.001 C 
ATOM     27  C   UNL     1      -6.486   1.903  -0.752  0.00  0.00    -0.000 C 
BRANCH  23  28
ATOM     28  C   UNL     1      -5.860  -1.406   0.954  0.00  0.00    +0.028 C 
ATOM     29  C   UNL     1      -5.732  -1.225   2.463  0.00  0.00    +0.005 C 
ENDBRANCH  23  28
ENDBRANCH  19  22
ENDBRANCH  17  20
ENDBRANCH  14  17
TORSDOF 4
