REMARK  Name = 9576891
REMARK  7 active torsions:
REMARK  status: ('A' for Active; 'I' for Inactive)
REMARK    1  A    between atoms: C_1  and  O_2
REMARK    2  A    between atoms: C_1  and  C_4
REMARK    3  A    between atoms: C_1  and  C_12
REMARK    4  A    between atoms: C_4  and  N_5
REMARK    5  A    between atoms: C_12  and  O_13
REMARK    6  A    between atoms: O_13  and  N_15
REMARK    7  A    between atoms: C_16  and  C_18
REMARK                            x       y       z     vdW  Elec       q    Type
REMARK                         _______ _______ _______ _____ _____    ______ ____
ROOT
ATOM      1  C   UNL     1       2.189   1.966   0.680  0.00  0.00    +0.136 C 
ENDROOT
BRANCH   1   2
ATOM      2  O   UNL     1       1.852   3.304   0.303  0.00  0.00    -0.383 OA
ATOM      3  H   UNL     1       2.652   3.770   0.014  0.00  0.00    +0.210 HD
ENDBRANCH   1   2
BRANCH   1   4
ATOM      4  C   UNL     1       2.872   1.292  -0.512  0.00  0.00    -0.044 C 
BRANCH   4   5
ATOM      5  N   UNL     1       3.220  -0.101  -0.230  0.00  0.00    +0.389 N 
ATOM      6  C   UNL     1       4.186  -0.176   0.875  0.00  0.00    -0.077 C 
ATOM      7  C   UNL     1       3.744  -0.754  -1.438  0.00  0.00    -0.077 C 
ATOM      8  C   UNL     1       4.523  -1.629   1.216  0.00  0.00    -0.023 C 
ATOM      9  C   UNL     1       4.068  -2.225  -1.174  0.00  0.00    -0.023 C 
ATOM     10  C   UNL     1       5.037  -2.379  -0.007  0.00  0.00    -0.004 C 
ATOM     11  H   UNL     1       2.377  -0.598   0.055  0.00  0.00    -0.080 HD
ENDBRANCH   4   5
ENDBRANCH   1   4
BRANCH   1  12
ATOM     12  C   UNL     1       0.917   1.253   1.131  0.00  0.00    +0.265 C 
BRANCH  12  13
ATOM     13  O   UNL     1      -0.022   1.264   0.060  0.00  0.00    -0.374 OA
BRANCH  13  15
ATOM     14 CL   UNL     1      -1.828   1.280  -1.986  0.00  0.00    -0.058 Cl
ATOM     15  N   UNL     1      -1.178   0.607   0.494  0.00  0.00    -0.071 NA
ATOM     16  C   UNL     1      -2.102   0.565  -0.421  0.00  0.00    +0.178 C 
BRANCH  16  18
ATOM     17  N   UNL     1      -5.574  -0.757  -0.815  0.00  0.00    -0.242 NA
ATOM     18  C   UNL     1      -3.399  -0.109  -0.098  0.00  0.00    +0.051 C 
ATOM     19  C   UNL     1      -3.580  -0.659   1.141  0.00  0.00    +0.006 C 
ATOM     20  C   UNL     1      -4.380  -0.164  -1.043  0.00  0.00    +0.101 C 
ATOM     21  C   UNL     1      -4.795  -1.279   1.413  0.00  0.00    +0.021 C 
ATOM     22  C   UNL     1      -5.750  -1.300   0.410  0.00  0.00    +0.099 C 
ENDBRANCH  16  18
ENDBRANCH  13  15
ENDBRANCH  12  13
ENDBRANCH   1  12
TORSDOF 7
