REMARK  Name = 37801
REMARK  4 active torsions:
REMARK  status: ('A' for Active; 'I' for Inactive)
REMARK    1  A    between atoms: C_2  and  C_16
REMARK    2  A    between atoms: C_5  and  C_10
REMARK    3  A    between atoms: C_16  and  C_19
REMARK    4  A    between atoms: C_19  and  O_20
REMARK                            x       y       z     vdW  Elec       q    Type
REMARK                         _______ _______ _______ _____ _____    ______ ____
ROOT
ATOM      1  O   UNL     1      -0.858  -1.173  -0.547  0.00  0.00    -0.451 OA
ATOM      2  C   UNL     1      -2.205   0.832  -0.126  0.00  0.00    +0.023 C 
ATOM      3  C   UNL     1      -0.998   0.141  -0.216  0.00  0.00    +0.142 C 
ATOM      4  C   UNL     1       0.247   0.713   0.025  0.00  0.00    +0.037 C 
ATOM      5  C   UNL     1       1.194  -0.327  -0.175  0.00  0.00    +0.041 C 
ATOM      6  C   UNL     1      -2.124   2.182   0.231  0.00  0.00    -0.001 C 
ATOM      7  C   UNL     1       0.306   2.071   0.383  0.00  0.00    +0.003 C 
ATOM      8  C   UNL     1       0.473  -1.447  -0.519  0.00  0.00    +0.179 C 
ATOM      9  C   UNL     1      -0.892   2.792   0.481  0.00  0.00    -0.000 C 
ENDROOT
BRANCH   5  10
ATOM     10  C   UNL     1       2.622  -0.321  -0.067  0.00  0.00    +0.003 C 
ATOM     11  C   UNL     1       3.408  -0.015  -1.181  0.00  0.00    +0.000 C 
ATOM     12  C   UNL     1       3.235  -0.622   1.152  0.00  0.00    +0.000 C 
ATOM     13  C   UNL     1       4.799  -0.010  -1.076  0.00  0.00    +0.000 C 
ATOM     14  C   UNL     1       4.625  -0.617   1.256  0.00  0.00    +0.000 C 
ATOM     15  C   UNL     1       5.408  -0.311   0.143  0.00  0.00    +0.000 C 
ENDBRANCH   5  10
BRANCH   2  16
ATOM     16  C   UNL     1      -3.528   0.201  -0.389  0.00  0.00    +0.124 C 
ATOM     17  C   UNL     1      -3.688  -0.347  -1.823  0.00  0.00    +0.017 C 
BRANCH  16  19
ATOM     18  O   UNL     1      -3.107  -1.303   1.490  0.00  0.00    -0.250 OA
ATOM     19  C   UNL     1      -3.853  -0.933   0.592  0.00  0.00    +0.318 C 
BRANCH  19  20
ATOM     20  O   UNL     1      -5.063  -1.507   0.364  0.00  0.00    -0.480 OA
ATOM     21  H   UNL     1      -5.606  -1.196  -0.334  0.00  0.00    +0.295 HD
ENDBRANCH  19  20
ENDBRANCH  16  19
ENDBRANCH   2  16
TORSDOF 4
