REMARK  Name = 736234
REMARK  5 active torsions:
REMARK  status: ('A' for Active; 'I' for Inactive)
REMARK    1  A    between atoms: C_1  and  N_2
REMARK    2  A    between atoms: C_1  and  C_7
REMARK    3  A    between atoms: C_1  and  C_10
REMARK    4  A    between atoms: C_7  and  O_8
REMARK    5  A    between atoms: C_10  and  C_11
REMARK                            x       y       z     vdW  Elec       q    Type
REMARK                         _______ _______ _______ _____ _____    ______ ____
ROOT
ATOM      1  C   UNL     1      -1.122   0.516  -0.404  0.00  0.00    +0.040 C 
ENDROOT
BRANCH   1   2
ATOM      2  N   UNL     1      -0.998   1.965  -0.573  0.00  0.00    +0.389 N 
ATOM      3  H   UNL     1      -0.025   2.203  -0.765  0.00  0.00    -0.088 HD
ATOM      4  H   UNL     1      -1.301   2.434   0.280  0.00  0.00    -0.088 HD
ATOM      5  H   UNL     1      -1.582   2.267  -1.353  0.00  0.00    -0.088 HD
ENDBRANCH   1   2
BRANCH   1   7
ATOM      6  O   UNL     1      -3.459   1.079   0.000  0.00  0.00    -0.252 OA
ATOM      7  C   UNL     1      -2.587   0.228  -0.122  0.00  0.00    +0.297 C 
BRANCH   7   8
ATOM      8  O   UNL     1      -2.778  -1.124  -0.057  0.00  0.00    -0.446 OA
ATOM      9  C   UNL     1      -4.126  -1.546   0.173  0.00  0.00    +0.256 C 
ENDBRANCH   7   8
ENDBRANCH   1   7
BRANCH   1  10
ATOM     10  C   UNL     1      -0.235   0.057   0.762  0.00  0.00    +0.015 C 
BRANCH  10  11
ATOM     11  C   UNL     1       1.221  -0.075   0.383  0.00  0.00    -0.024 C 
ATOM     12  C   UNL     1       1.689  -1.286  -0.099  0.00  0.00    -0.004 C 
ATOM     13  C   UNL     1       2.061   1.018   0.525  0.00  0.00    -0.004 C 
ATOM     14  C   UNL     1       3.034  -1.409  -0.450  0.00  0.00    -0.000 C 
ATOM     15  C   UNL     1       3.406   0.895   0.174  0.00  0.00    -0.000 C 
ATOM     16  C   UNL     1       3.892  -0.318  -0.313  0.00  0.00    -0.000 C 
ENDBRANCH  10  11
ENDBRANCH   1  10
TORSDOF 5
