REMARK  Name = 16122577
REMARK  7 active torsions:
REMARK  status: ('A' for Active; 'I' for Inactive)
REMARK    1  A    between atoms: C_1  and  C_2
REMARK    2  A    between atoms: C_1  and  C_10
REMARK    3  A    between atoms: C_2  and  C_3
REMARK    4  A    between atoms: C_3  and  C_4
REMARK    5  A    between atoms: C_4  and  N_5
REMARK    6  A    between atoms: C_10  and  C_11
REMARK    7  A    between atoms: C_11  and  N_12
REMARK                            x       y       z     vdW  Elec       q    Type
REMARK                         _______ _______ _______ _____ _____    ______ ____
ROOT
ATOM      1  C   UNL     1       0.544  -0.152  -0.535  0.00  0.00    +0.002 C 
ENDROOT
BRANCH   1   2
ATOM      2  C   UNL     1      -0.543  -0.097   0.541  0.00  0.00    +0.002 C 
BRANCH   2   3
ATOM      3  C   UNL     1      -1.940  -0.078  -0.083  0.00  0.00    +0.022 C 
BRANCH   3   4
ATOM      4  C   UNL     1      -3.061  -0.029   0.958  0.00  0.00    +0.097 C 
BRANCH   4   5
ATOM      5  N   UNL     1      -4.401  -0.003   0.383  0.00  0.00    -0.268 N 
ATOM      6  N   UNL     1      -6.277   0.808  -0.447  0.00  0.00    -0.225 NA
ATOM      7  C   UNL     1      -5.159  -1.089   0.089  0.00  0.00    +0.087 C 
ATOM      8  C   UNL     1      -5.099   1.113   0.050  0.00  0.00    +0.168 C 
ATOM      9  C   UNL     1      -6.321  -0.563  -0.425  0.00  0.00    +0.117 C 
ENDBRANCH   4   5
ENDBRANCH   3   4
ENDBRANCH   2   3
ENDBRANCH   1   2
BRANCH   1  10
ATOM     10  C   UNL     1       1.943  -0.134   0.087  0.00  0.00    +0.022 C 
BRANCH  10  11
ATOM     11  C   UNL     1       3.063  -0.108  -0.956  0.00  0.00    +0.097 C 
BRANCH  11  12
ATOM     12  N   UNL     1       4.401  -0.030  -0.382  0.00  0.00    -0.268 N 
ATOM     13  N   UNL     1       6.261   0.853   0.411  0.00  0.00    -0.225 NA
ATOM     14  C   UNL     1       5.181  -1.088  -0.041  0.00  0.00    +0.087 C 
ATOM     15  C   UNL     1       5.077   1.113  -0.099  0.00  0.00    +0.168 C 
ATOM     16  C   UNL     1       6.332  -0.517   0.449  0.00  0.00    +0.117 C 
ENDBRANCH  11  12
ENDBRANCH  10  11
ENDBRANCH   1  10
TORSDOF 7
