REMARK  Name = 4938
REMARK  7 active torsions:
REMARK  status: ('A' for Active; 'I' for Inactive)
REMARK    1  A    between atoms: N_3  and  C_13
REMARK    2  A    between atoms: N_4  and  C_20
REMARK    3  A    between atoms: C_13  and  C_14
REMARK    4  A    between atoms: C_14  and  C_15
REMARK    5  A    between atoms: C_15  and  C_16
REMARK    6  A    between atoms: C_16  and  C_18
REMARK    7  A    between atoms: C_20  and  C_21
REMARK                            x       y       z     vdW  Elec       q    Type
REMARK                         _______ _______ _______ _____ _____    ______ ____
ROOT
ATOM      1  O   UNL     1       0.578   1.436  -1.082  0.00  0.00    -0.272 OA
ATOM      2  O   UNL     1      -0.461  -3.043  -0.148  0.00  0.00    -0.252 OA
ATOM      3  N   UNL     1       0.034  -0.803  -0.623  0.00  0.00    -0.212 N 
ATOM      4  N   UNL     1       3.328   0.773  -0.108  0.00  0.00    -0.240 NA
ATOM      5  N   UNL     1       1.706  -2.308   0.274  0.00  0.00    -0.228 N 
ATOM      6  N   UNL     1       3.904  -1.255   0.617  0.00  0.00    -0.240 NA
ATOM      7  C   UNL     1       2.210  -0.004  -0.217  0.00  0.00    +0.192 C 
ATOM      8  C   UNL     1       2.590  -1.238   0.233  0.00  0.00    +0.136 C 
ATOM      9  C   UNL     1       0.901   0.321  -0.683  0.00  0.00    +0.254 C 
ATOM     10  C   UNL     1       0.370  -2.127  -0.161  0.00  0.00    +0.318 C 
ATOM     11  C   UNL     1       4.321  -0.025   0.398  0.00  0.00    +0.203 C 
ATOM     12  C   UNL     1       2.150  -3.609   0.761  0.00  0.00    +0.123 C 
ENDROOT
BRANCH   3  13
ATOM     13  C   UNL     1      -1.338  -0.596  -1.074  0.00  0.00    +0.103 C 
BRANCH  13  14
ATOM     14  C   UNL     1      -2.261  -0.152   0.057  0.00  0.00    +0.022 C 
BRANCH  14  15
ATOM     15  C   UNL     1      -3.710   0.038  -0.409  0.00  0.00    +0.010 C 
BRANCH  15  16
ATOM     16  C   UNL     1      -4.630   0.490   0.724  0.00  0.00    +0.065 C 
BRANCH  16  18
ATOM     17  O   UNL     1      -6.459   0.535  -0.860  0.00  0.00    -0.296 OA
ATOM     18  C   UNL     1      -6.075   0.694   0.298  0.00  0.00    +0.151 C 
ATOM     19  C   UNL     1      -7.041   1.071   1.390  0.00  0.00    +0.072 C 
ENDBRANCH  16  18
ENDBRANCH  15  16
ENDBRANCH  14  15
ENDBRANCH  13  14
ENDBRANCH   3  13
BRANCH   4  20
ATOM     20  C   UNL     1       3.465   2.168  -0.452  0.00  0.00    +0.075 C 
BRANCH  20  21
ATOM     21  C   UNL     1       3.140   3.085   0.725  0.00  0.00    +0.017 C 
ATOM     22  C   UNL     1       3.280   4.549   0.341  0.00  0.00    +0.001 C 
ENDBRANCH  20  21
ENDBRANCH   4  20
TORSDOF 7
