REMARK  Name = 5323
REMARK  5 active torsions:
REMARK  status: ('A' for Active; 'I' for Inactive)
REMARK    1  A    between atoms: S_1  and  C_4
REMARK    2  A    between atoms: S_1  and  N_13
REMARK    3  A    between atoms: C_7  and  N_10
REMARK    4  A    between atoms: C_19  and  O_21
REMARK    5  A    between atoms: C_20  and  O_23
REMARK                            x       y       z     vdW  Elec       q    Type
REMARK                         _______ _______ _______ _____ _____    ______ ____
ROOT
ATOM      1  S   UNL     1      -1.270  -2.210  -0.546  0.00  0.00    +0.075 S 
ATOM      2  O   UNL     1      -2.240  -2.869  -1.413  0.00  0.00    -0.150 OA
ATOM      3  O   UNL     1      -0.774  -2.925   0.623  0.00  0.00    -0.150 OA
ENDROOT
BRANCH   1   4
ATOM      4  N   UNL     1       0.058  -1.703  -1.519  0.00  0.00    -0.191 N 
ATOM      5  H   UNL     1       0.176  -2.045  -2.434  0.00  0.00    +0.176 HD
ATOM      6  N   UNL     1       1.739  -1.222   0.065  0.00  0.00    -0.299 NA
ATOM      7  N   UNL     1       2.778   0.950   0.168  0.00  0.00    -0.278 NA
ATOM      8  C   UNL     1       0.991  -0.764  -0.954  0.00  0.00    +0.201 C 
ATOM      9  C   UNL     1       1.067   0.509  -1.467  0.00  0.00    +0.177 C 
ATOM     10  C   UNL     1       1.991   1.334  -0.858  0.00  0.00    +0.275 C 
ATOM     11  C   UNL     1       2.602  -0.322   0.573  0.00  0.00    +0.314 C 
BRANCH  10  12
ATOM     12  O   UNL     1       2.135   2.621  -1.306  0.00  0.00    -0.450 OA
ATOM     13  C   UNL     1       3.101   3.426  -0.641  0.00  0.00    +0.255 C 
ENDBRANCH  10  12
BRANCH  11  14
ATOM     14  O   UNL     1       3.390  -0.749   1.618  0.00  0.00    -0.395 OA
ATOM     15  C   UNL     1       3.205  -2.091   2.045  0.00  0.00    +0.271 C 
ENDBRANCH  11  14
ENDBRANCH   1   4
BRANCH   1  16
ATOM     16  C   UNL     1      -1.967  -0.697  -0.022  0.00  0.00    +0.125 C 
ATOM     17  C   UNL     1      -2.960  -0.085  -0.786  0.00  0.00    +0.021 C 
ATOM     18  C   UNL     1      -1.529  -0.100   1.160  0.00  0.00    +0.021 C 
ATOM     19  C   UNL     1      -3.078   1.721   0.814  0.00  0.00    +0.042 C 
ATOM     20  C   UNL     1      -3.516   1.124  -0.368  0.00  0.00    +0.015 C 
ATOM     21  C   UNL     1      -2.084   1.109   1.578  0.00  0.00    +0.015 C 
BRANCH  19  22
ATOM     22  N   UNL     1      -3.639   2.944   1.237  0.00  0.00    -0.357 N 
ATOM     23  H   UNL     1      -4.340   3.376   0.698  0.00  0.00    +0.142 HD
ATOM     24  H   UNL     1      -3.329   3.365   2.072  0.00  0.00    +0.142 HD
ENDBRANCH  19  22
ENDBRANCH   1  16
TORSDOF 5
