REMARK  Name = 16678087
REMARK  10 active torsions:
REMARK  status: ('A' for Active; 'I' for Inactive)
REMARK    1  A    between atoms: C_3  and  C_14
REMARK    2  A    between atoms: C_6  and  O_27
REMARK    3  A    between atoms: C_8  and  O_11
REMARK    4  A    between atoms: C_14  and  C_15
REMARK    5  A    between atoms: C_18  and  O_21
REMARK    6  A    between atoms: C_19  and  O_23
REMARK    7  A    between atoms: C_20  and  O_25
REMARK    8  A    between atoms: O_27  and  P_28
REMARK    9  A    between atoms: P_28  and  O_30
REMARK   10  A    between atoms: P_28  and  O_32
REMARK                            x       y       z     vdW  Elec       q    Type
REMARK                         _______ _______ _______ _____ _____    ______ ____
ROOT
ATOM      1  O   UNL     1      -2.740   1.415  -0.034  0.00  0.00    -0.454 OA
ATOM      2  C   UNL     1      -0.850   0.180   0.051  0.00  0.00    +0.044 A 
ATOM      3  C   UNL     1      -0.494   1.547  -0.088  0.00  0.00    +0.072 A 
ATOM      4  C   UNL     1      -2.241   0.152   0.080  0.00  0.00    +0.182 A 
ATOM      5  C   UNL     1      -1.674   2.252  -0.135  0.00  0.00    +0.126 A 
ATOM      6  C   UNL     1      -2.997  -1.012   0.207  0.00  0.00    +0.217 C 
ATOM      7  C   UNL     1      -0.152  -1.036   0.157  0.00  0.00    +0.007 C 
ATOM      8  C   UNL     1      -2.282  -2.209   0.311  0.00  0.00    +0.176 C 
ATOM      9  C   UNL     1      -0.885  -2.224   0.286  0.00  0.00    +0.040 C 
ATOM     10  C   UNL     1      -1.993   3.682  -0.268  0.00  0.00    +0.073 C 
ENDROOT
BRANCH   8  11
ATOM     11  O   UNL     1      -2.952  -3.392   0.437  0.00  0.00    -0.468 OA
ATOM     12  C   UNL     1      -3.291  -4.073  -0.767  0.00  0.00    +0.253 C 
ENDBRANCH   8  11
BRANCH   3  14
ATOM     13  O   UNL     1       1.021   3.346  -0.302  0.00  0.00    -0.286 OA
ATOM     14  C   UNL     1       0.816   2.125  -0.168  0.00  0.00    +0.198 C 
BRANCH  14  15
ATOM     15  C   UNL     1       2.042   1.271  -0.106  0.00  0.00    +0.045 C 
ATOM     16  C   UNL     1       2.602   1.015   1.123  0.00  0.00    +0.043 C 
ATOM     17  C   UNL     1       2.559   0.778  -1.280  0.00  0.00    +0.043 C 
ATOM     18  C   UNL     1       3.703  -0.017  -1.222  0.00  0.00    +0.176 C 
ATOM     19  C   UNL     1       3.746   0.219   1.181  0.00  0.00    +0.176 C 
ATOM     20  C   UNL     1       4.297  -0.297   0.008  0.00  0.00    +0.206 C 
BRANCH  18  21
ATOM     21  O   UNL     1       4.231  -0.515  -2.376  0.00  0.00    -0.468 OA
ATOM     22  C   UNL     1       3.755  -1.788  -2.809  0.00  0.00    +0.253 C 
ENDBRANCH  18  21
BRANCH  19  23
ATOM     23  O   UNL     1       4.317  -0.045   2.390  0.00  0.00    -0.468 OA
ATOM     24  C   UNL     1       3.863  -1.208   3.080  0.00  0.00    +0.253 C 
ENDBRANCH  19  23
BRANCH  20  25
ATOM     25  O   UNL     1       5.415  -1.075   0.065  0.00  0.00    -0.465 OA
ATOM     26  C   UNL     1       6.672  -0.408  -0.024  0.00  0.00    +0.253 C 
ENDBRANCH  20  25
ENDBRANCH  14  15
ENDBRANCH   3  14
BRANCH   6  27
ATOM     27  O   UNL     1      -4.360  -0.990   0.230  0.00  0.00    -0.396 OA
BRANCH  27  28
ATOM     28  P   UNL     1      -5.271   0.342   0.116  0.00  0.00    +0.528 P 
ATOM     29  O   UNL     1      -5.050   1.364   1.194  0.00  0.00    -0.216 OA
BRANCH  28  30
ATOM     30  O   UNL     1      -6.773  -0.258   0.062  0.00  0.00    -0.293 OA
ATOM     31  H   UNL     1      -6.835  -0.908  -0.656  0.00  0.00    +0.223 HD
ENDBRANCH  28  30
BRANCH  28  32
ATOM     32  O   UNL     1      -5.032   0.857  -1.398  0.00  0.00    -0.293 OA
ATOM     33  H   UNL     1      -5.198   0.129  -2.017  0.00  0.00    +0.223 HD
ENDBRANCH  28  32
ENDBRANCH  27  28
ENDBRANCH   6  27
TORSDOF 10
