REMARK  Name = 5276520
REMARK  12 active torsions:
REMARK  status: ('A' for Active; 'I' for Inactive)
REMARK    1  A    between atoms: C_1  and  P_2
REMARK    2  A    between atoms: C_1  and  P_8
REMARK    3  A    between atoms: C_1  and  O_14
REMARK    4  A    between atoms: C_1  and  C_16
REMARK    5  A    between atoms: P_2  and  O_4
REMARK    6  A    between atoms: P_2  and  O_6
REMARK    7  A    between atoms: P_8  and  O_10
REMARK    8  A    between atoms: P_8  and  O_12
REMARK    9  A    between atoms: C_16  and  C_17
REMARK   10  A    between atoms: C_17  and  C_18
REMARK   11  A    between atoms: C_18  and  C_19
REMARK   12  A    between atoms: C_19  and  C_20
REMARK                            x       y       z     vdW  Elec       q    Type
REMARK                         _______ _______ _______ _____ _____    ______ ____
ROOT
ATOM      1  C   UNL     1      -1.341   0.004   0.458  0.00  0.00    +0.275 C 
ENDROOT
BRANCH   1   2
ATOM      2  P   UNL     1      -1.811   1.589  -0.324  0.00  0.00    +0.372 P 
ATOM      3  O   UNL     1      -0.918   1.994  -1.460  0.00  0.00    -0.255 OA
BRANCH   2   4
ATOM      4  O   UNL     1      -3.369   1.409  -0.713  0.00  0.00    -0.322 OA
ATOM      5  H   UNL     1      -3.692   2.219  -1.137  0.00  0.00    +0.220 HD
ENDBRANCH   2   4
BRANCH   2   6
ATOM      6  O   UNL     1      -1.844   2.637   0.905  0.00  0.00    -0.322 OA
ATOM      7  H   UNL     1      -2.087   3.516   0.574  0.00  0.00    +0.220 HD
ENDBRANCH   2   6
ENDBRANCH   1   2
BRANCH   1   8
ATOM      8  P   UNL     1      -1.734  -1.594  -0.349  0.00  0.00    +0.372 P 
ATOM      9  O   UNL     1      -0.824  -1.973  -1.479  0.00  0.00    -0.255 OA
BRANCH   8  10
ATOM     10  O   UNL     1      -3.296  -1.453  -0.736  0.00  0.00    -0.322 OA
ATOM     11  H   UNL     1      -3.595  -2.265  -1.175  0.00  0.00    +0.220 HD
ENDBRANCH   8  10
BRANCH   8  12
ATOM     12  O   UNL     1      -1.763  -2.636   0.887  0.00  0.00    -0.322 OA
ATOM     13  H   UNL     1      -1.967  -3.525   0.557  0.00  0.00    +0.220 HD
ENDBRANCH   8  12
ENDBRANCH   1   8
BRANCH   1  14
ATOM     14  O   UNL     1      -2.219  -0.025   1.595  0.00  0.00    -0.367 OA
ATOM     15  H   UNL     1      -3.141  -0.023   1.293  0.00  0.00    +0.212 HD
ENDBRANCH   1  14
BRANCH   1  16
ATOM     16  C   UNL     1       0.080  -0.003   1.057  0.00  0.00    +0.051 C 
BRANCH  16  17
ATOM     17  C   UNL     1       1.211   0.025   0.031  0.00  0.00    +0.004 C 
BRANCH  17  18
ATOM     18  C   UNL     1       2.605  -0.055   0.666  0.00  0.00    +0.000 C 
BRANCH  18  19
ATOM     19  C   UNL     1       3.787  -0.002  -0.307  0.00  0.00    +0.000 C 
BRANCH  19  20
ATOM     20  C   UNL     1       5.150  -0.032   0.386  0.00  0.00    +0.000 C 
ATOM     21  C   UNL     1       6.285   0.115  -0.616  0.00  0.00    +0.000 C 
ENDBRANCH  19  20
ENDBRANCH  18  19
ENDBRANCH  17  18
ENDBRANCH  16  17
ENDBRANCH   1  16
TORSDOF 12
