REMARK  Name = 10343641
REMARK  3 active torsions:
REMARK  status: ('A' for Active; 'I' for Inactive)
REMARK    1  A    between atoms: C_4  and  N_21
REMARK    2  A    between atoms: C_8  and  C_14
REMARK    3  A    between atoms: C_22  and  C_31
REMARK                            x       y       z     vdW  Elec       q    Type
REMARK                         _______ _______ _______ _____ _____    ______ ____
ROOT
ATOM      1  O   UNL     1      -0.559   0.933   2.610  0.00  0.00    -0.271 OA
ATOM      2  N   UNL     1      -2.406   1.852   1.537  0.00  0.00    -0.254 N 
ATOM      3  N   UNL     1      -1.738  -0.777   0.169  0.00  0.00    -0.243 NA
ATOM      4  C   UNL     1      -0.862   0.369   0.297  0.00  0.00    +0.255 C 
ATOM      5  C   UNL     1      -1.249   1.059   1.594  0.00  0.00    +0.271 C 
ATOM      6  C   UNL     1      -3.295   1.900   0.408  0.00  0.00    +0.055 C 
ATOM      7  C   UNL     1      -3.528   0.795  -0.436  0.00  0.00    +0.031 C 
ATOM      8  C   UNL     1      -2.966  -0.560  -0.159  0.00  0.00    +0.079 C 
ATOM      9  C   UNL     1      -2.693   2.729   2.673  0.00  0.00    +0.120 C 
ATOM     10  C   UNL     1      -3.990   3.093   0.127  0.00  0.00    +0.015 C 
ATOM     11  C   UNL     1      -4.364   0.920  -1.561  0.00  0.00    +0.003 C 
ATOM     12  C   UNL     1      -4.835   3.204  -0.981  0.00  0.00    +0.001 C 
ATOM     13  C   UNL     1      -5.013   2.121  -1.831  0.00  0.00    +0.000 C 
ENDROOT
BRANCH   8  14
ATOM     14  C   UNL     1      -3.865  -1.746  -0.249  0.00  0.00    +0.017 C 
ATOM     15  C   UNL     1      -5.218  -1.606   0.036  0.00  0.00    +0.001 C 
ATOM     16  C   UNL     1      -3.341  -2.979  -0.619  0.00  0.00    +0.001 C 
ATOM     17  C   UNL     1      -6.059  -2.716  -0.048  0.00  0.00    +0.000 C 
ATOM     18  C   UNL     1      -4.183  -4.089  -0.704  0.00  0.00    +0.000 C 
ATOM     19  C   UNL     1      -5.542  -3.957  -0.418  0.00  0.00    +0.000 C 
ENDBRANCH   8  14
BRANCH   4  21
ATOM     20  O   UNL     1       1.403   1.868  -0.458  0.00  0.00    -0.269 OA
ATOM     21  N   UNL     1       0.505  -0.065   0.400  0.00  0.00    -0.275 N 
ATOM     22  C   UNL     1       1.575   0.739   0.004  0.00  0.00    +0.261 C 
ATOM     23  H   UNL     1       0.692  -0.961   0.763  0.00  0.00    +0.152 HD
BRANCH  22  31
ATOM     24  N   UNL     1       3.982   0.455  -0.566  0.00  0.00    -0.284 N 
ATOM     25  C   UNL     1       5.071  -0.240  -0.109  0.00  0.00    +0.048 C 
ATOM     26  C   UNL     1       4.108   1.346  -1.708  0.00  0.00    +0.096 C 
ATOM     27  C   UNL     1       5.291   0.934  -2.613  0.00  0.00    +0.027 C 
ATOM     28  C   UNL     1       6.607   0.676  -1.837  0.00  0.00    +0.029 C 
ATOM     29  C   UNL     1       6.354  -0.212  -0.654  0.00  0.00    -0.009 C 
ATOM     30  C   UNL     1       4.681  -0.986   0.989  0.00  0.00    +0.015 C 
ATOM     31  C   UNL     1       2.891   0.178   0.198  0.00  0.00    +0.106 C 
ATOM     32  C   UNL     1       3.292  -0.717   1.175  0.00  0.00    +0.021 C 
ATOM     33  C   UNL     1       7.314  -0.988  -0.002  0.00  0.00    -0.003 C 
ATOM     34  C   UNL     1       5.658  -1.776   1.622  0.00  0.00    +0.001 C 
ATOM     35  C   UNL     1       6.970  -1.761   1.114  0.00  0.00    -0.000 C 
ENDBRANCH  22  31
ENDBRANCH   4  21
TORSDOF 3
