REMARK  Name = 25220914
REMARK  8 active torsions:
REMARK  status: ('A' for Active; 'I' for Inactive)
REMARK    1  A    between atoms: N_2  and  C_21
REMARK    2  A    between atoms: C_3  and  C_7
REMARK    3  A    between atoms: C_11  and  C_12
REMARK    4  A    between atoms: C_12  and  N_13
REMARK    5  A    between atoms: C_12  and  C_17
REMARK    6  A    between atoms: C_17  and  C_18
REMARK    7  A    between atoms: C_21  and  C_22
REMARK    8  A    between atoms: C_27  and  C_30
REMARK                            x       y       z     vdW  Elec       q    Type
REMARK                         _______ _______ _______ _____ _____    ______ ____
ROOT
ATOM      1  O   UNL     1       0.125   0.081  -1.272  0.00  0.00    -0.273 OA
ATOM      2  N   UNL     1      -0.595  -1.291   0.466  0.00  0.00    -0.299 N 
ATOM      3  C   UNL     1       0.190  -0.305  -0.108  0.00  0.00    +0.241 C 
ATOM      4  H   UNL     1      -0.449  -1.514   1.413  0.00  0.00    +0.150 HD
ENDROOT
BRANCH   3   7
ATOM      5  O   UNL     1       3.238  -1.354  -0.220  0.00  0.00    -0.277 OA
ATOM      6  N   UNL     1       2.314   0.742   0.112  0.00  0.00    -0.275 N 
ATOM      7  C   UNL     1       1.154   0.294   0.871  0.00  0.00    +0.152 C 
ATOM      8  C   UNL     1       0.598   1.561   1.511  0.00  0.00    +0.031 C 
ATOM      9  C   UNL     1       0.996   2.659   0.528  0.00  0.00    +0.024 C 
ATOM     10  C   UNL     1       2.355   2.199   0.022  0.00  0.00    +0.094 C 
ATOM     11  C   UNL     1       3.307  -0.128  -0.312  0.00  0.00    +0.205 C 
BRANCH  11  12
ATOM     12  C   UNL     1       4.521   0.523  -0.928  0.00  0.00    +0.013 C 
BRANCH  12  13
ATOM     13  N   UNL     1       4.196   0.693  -2.338  0.00  0.00    +0.387 N 
ATOM     14  H   UNL     1       3.372   1.287  -2.428  0.00  0.00    -0.089 HD
ATOM     15  H   UNL     1       4.005  -0.219  -2.756  0.00  0.00    -0.089 HD
ATOM     16  H   UNL     1       4.983   1.129  -2.818  0.00  0.00    -0.089 HD
ENDBRANCH  12  13
BRANCH  12  17
ATOM     17  C   UNL     1       5.755  -0.366  -0.771  0.00  0.00    -0.013 C 
BRANCH  17  18
ATOM     18  C   UNL     1       6.172  -0.644   0.689  0.00  0.00    -0.002 C 
ATOM     19  C   UNL     1       6.491   0.678   1.394  0.00  0.00    -0.000 C 
ATOM     20  C   UNL     1       7.376  -1.581   0.785  0.00  0.00    -0.000 C 
ENDBRANCH  17  18
ENDBRANCH  12  17
ENDBRANCH  11  12
ENDBRANCH   3   7
BRANCH   2  21
ATOM     21  C   UNL     1      -1.618  -2.008  -0.260  0.00  0.00    +0.116 C 
BRANCH  21  22
ATOM     22  C   UNL     1      -2.953  -1.326  -0.171  0.00  0.00    -0.003 C 
ATOM     23  C   UNL     1      -3.700  -1.406   1.004  0.00  0.00    -0.003 C 
ATOM     24  C   UNL     1      -3.446  -0.613  -1.264  0.00  0.00    -0.003 C 
ATOM     25  C   UNL     1      -4.940  -0.774   1.087  0.00  0.00    +0.002 C 
ATOM     26  C   UNL     1      -4.686   0.020  -1.181  0.00  0.00    +0.002 C 
ATOM     27  C   UNL     1      -5.433  -0.061  -0.006  0.00  0.00    +0.031 C 
BRANCH  27  30
ATOM     28  N   UNL     1      -7.496   0.537   1.241  0.00  0.00    -0.343 N 
ATOM     29  N   UNL     1      -7.194   1.270  -0.957  0.00  0.00    -0.285 NA
ATOM     30  C   UNL     1      -6.727   0.599   0.080  0.00  0.00    +0.117 C 
ATOM     31  H   UNL     1      -8.369   0.991   1.277  0.00  0.00    +0.144 HD
ATOM     32  H   UNL     1      -7.167   0.039   2.024  0.00  0.00    +0.144 HD
ATOM     33  H   UNL     1      -8.069   1.718  -0.901  0.00  0.00    +0.188 HD
ENDBRANCH  27  30
ENDBRANCH  21  22
ENDBRANCH   2  21
TORSDOF 8
