REMARK  Name = 6115
REMARK  1 active torsions:
REMARK  status: ('A' for Active; 'I' for Inactive)
REMARK    1  A    between atoms: C_1  and  N_7
REMARK                            x       y       z     vdW  Elec       q    Type
REMARK                         _______ _______ _______ _____ _____    ______ ____
ROOT
ATOM      1  C   UNL     1      -0.994   0.000   0.000  0.00  0.00    +0.042 C 
ATOM      2  C   UNL     1      -0.297   1.208   0.000  0.00  0.00    +0.014 C 
ATOM      3  C   UNL     1      -0.296  -1.208   0.000  0.00  0.00    +0.014 C 
ATOM      4  C   UNL     1       1.098   1.208   0.000  0.00  0.00    +0.001 C 
ATOM      5  C   UNL     1       1.098  -1.208   0.000  0.00  0.00    +0.001 C 
ATOM      6  C   UNL     1       1.796   0.000   0.000  0.00  0.00    +0.000 C 
ENDROOT
BRANCH   1   7
ATOM      7  N   UNL     1      -2.405   0.000   0.001  0.00  0.00    -0.357 N 
ATOM      8  H   UNL     1      -2.897   0.853   0.000  0.00  0.00    +0.142 HD
ATOM      9  H   UNL     1      -2.897  -0.853   0.001  0.00  0.00    +0.142 HD
ENDBRANCH   1   7
TORSDOF 1
