REMARK  Name = 1993
REMARK  4 active torsions:
REMARK  status: ('A' for Active; 'I' for Inactive)
REMARK    1  A    between atoms: C_1  and  O_3
REMARK    2  A    between atoms: C_1  and  C_7
REMARK    3  A    between atoms: O_3  and  C_5
REMARK    4  A    between atoms: C_7  and  N_8
REMARK                            x       y       z     vdW  Elec       q    Type
REMARK                         _______ _______ _______ _____ _____    ______ ____
ROOT
ATOM      1  C   UNL     1      -0.239  -0.972   0.023  0.00  0.00    +0.149 C 
ATOM      2  C   UNL     1      -1.084  -2.128  -0.497  0.00  0.00    +0.045 C 
ENDROOT
BRANCH   1   3
ATOM      3  O   UNL     1      -0.866   0.264  -0.310  0.00  0.00    -0.454 OA
BRANCH   3   5
ATOM      4  O   UNL     1      -2.593  -0.054   1.191  0.00  0.00    -0.250 OA
ATOM      5  C   UNL     1      -2.136   0.429   0.164  0.00  0.00    +0.317 C 
ATOM      6  C   UNL     1      -2.915   1.306  -0.770  0.00  0.00    +0.121 C 
ENDBRANCH   3   5
ENDBRANCH   1   3
BRANCH   1   7
ATOM      7  C   UNL     1       1.192  -0.960  -0.506  0.00  0.00    -0.029 C 
BRANCH   7   8
ATOM      8  N   UNL     1       1.966   0.231   0.040  0.00  0.00    +0.388 N 
ATOM      9  C   UNL     1       1.962   0.185   1.561  0.00  0.00    -0.096 C 
ATOM     10  C   UNL     1       3.401   0.177  -0.465  0.00  0.00    -0.096 C 
ATOM     11  C   UNL     1       1.312   1.522  -0.430  0.00  0.00    -0.096 C 
ENDBRANCH   7   8
ENDBRANCH   1   7
TORSDOF 4
