REMARK  Name = 49866474
REMARK  7 active torsions:
REMARK  status: ('A' for Active; 'I' for Inactive)
REMARK    1  A    between atoms: O_1  and  C_3
REMARK    2  A    between atoms: O_1  and  C_18
REMARK    3  A    between atoms: C_4  and  C_10
REMARK    4  A    between atoms: C_18  and  C_19
REMARK    5  A    between atoms: C_19  and  N_20
REMARK    6  A    between atoms: C_19  and  C_24
REMARK    7  A    between atoms: C_24  and  C_26
REMARK                            x       y       z     vdW  Elec       q    Type
REMARK                         _______ _______ _______ _____ _____    ______ ____
ROOT
ATOM      1  O   UNL     1       2.067   1.172  -0.839  0.00  0.00    -0.476 OA
ENDROOT
BRANCH   1   3
ATOM      2  N   UNL     1      -0.018   3.296   1.289  0.00  0.00    -0.239 NA
ATOM      3  C   UNL     1       0.954   1.668  -0.212  0.00  0.00    +0.158 C 
ATOM      4  C   UNL     1      -1.409   1.621   0.237  0.00  0.00    +0.022 C 
ATOM      5  C   UNL     1      -0.297   1.095  -0.412  0.00  0.00    +0.040 C 
ATOM      6  C   UNL     1       1.039   2.757   0.641  0.00  0.00    +0.136 C 
ATOM      7  C   UNL     1      -1.218   2.712   1.069  0.00  0.00    +0.099 C 
BRANCH   4  10
ATOM      8  N   UNL     1      -6.315  -0.832  -0.532  0.00  0.00    -0.236 N 
ATOM      9  N   UNL     1      -6.002  -2.117  -0.770  0.00  0.00    -0.180 NA
ATOM     10  C   UNL     1      -2.721   1.048   0.049  0.00  0.00    +0.002 C 
ATOM     11  C   UNL     1      -4.126  -0.857  -0.411  0.00  0.00    +0.035 C 
ATOM     12  C   UNL     1      -2.841  -0.320  -0.230  0.00  0.00    +0.003 C 
ATOM     13  C   UNL     1      -5.234  -0.023  -0.309  0.00  0.00    +0.067 C 
ATOM     14  C   UNL     1      -3.850   1.862   0.146  0.00  0.00    +0.001 C 
ATOM     15  C   UNL     1      -5.136   1.342  -0.032  0.00  0.00    +0.016 C 
ATOM     16  C   UNL     1      -4.670  -2.128  -0.695  0.00  0.00    +0.119 C 
ATOM     17  H   UNL     1      -7.242  -0.501  -0.519  0.00  0.00    +0.174 HD
ENDBRANCH   4  10
ENDBRANCH   1   3
BRANCH   1  18
ATOM     18  C   UNL     1       3.300   1.826  -0.570  0.00  0.00    +0.184 C 
BRANCH  18  19
ATOM     19  C   UNL     1       4.451   1.119  -1.295  0.00  0.00    -0.017 C 
BRANCH  19  20
ATOM     20  N   UNL     1       5.573   2.057  -1.399  0.00  0.00    +0.384 N 
ATOM     21  H   UNL     1       6.351   1.605  -1.880  0.00  0.00    -0.089 HD
ATOM     22  H   UNL     1       5.868   2.339  -0.465  0.00  0.00    -0.089 HD
ATOM     23  H   UNL     1       5.280   2.880  -1.926  0.00  0.00    -0.089 HD
ENDBRANCH  19  20
BRANCH  19  24
ATOM     24  C   UNL     1       4.930  -0.163  -0.571  0.00  0.00    +0.006 C 
BRANCH  24  26
ATOM     25  N   UNL     1       2.188  -2.620  -1.318  0.00  0.00    -0.234 NA
ATOM     26  C   UNL     1       3.903  -1.213  -0.436  0.00  0.00    -0.024 C 
ATOM     27  C   UNL     1       3.200  -1.688   0.592  0.00  0.00    +0.065 C 
ATOM     28  C   UNL     1       2.209  -2.730   0.155  0.00  0.00    +0.122 C 
ATOM     29  C   UNL     1       3.195  -1.833  -1.564  0.00  0.00    +0.072 C 
ATOM     30  C   UNL     1       3.153  -1.239   1.960  0.00  0.00    -0.020 C 
ATOM     31  C   UNL     1       0.873  -2.538   0.816  0.00  0.00    -0.004 C 
ATOM     32  C   UNL     1       1.997  -1.367   2.638  0.00  0.00    -0.004 C 
ATOM     33  C   UNL     1       0.802  -1.907   2.003  0.00  0.00    -0.003 C 
ENDBRANCH  24  26
ENDBRANCH  19  24
ENDBRANCH  18  19
ENDBRANCH   1  18
TORSDOF 7
