REMARK  Name = 148184
REMARK  1 active torsions:
REMARK  status: ('A' for Active; 'I' for Inactive)
REMARK    1  A    between atoms: C_3  and  C_18
REMARK                            x       y       z     vdW  Elec       q    Type
REMARK                         _______ _______ _______ _____ _____    ______ ____
ROOT
ATOM      1  N   UNL     1       2.706  -1.232  -1.206  0.00  0.00    -0.245 NA
ATOM      2  N   UNL     1       3.885   0.142   0.902  0.00  0.00    -0.245 NA
ATOM      3  C   UNL     1      -0.041   0.928  -0.157  0.00  0.00    +0.033 C 
ATOM      4  C   UNL     1       0.693  -0.025  -0.855  0.00  0.00    +0.078 C 
ATOM      5  C   UNL     1       0.542   1.615   0.894  0.00  0.00    -0.019 C 
ATOM      6  C   UNL     1       2.014  -0.307  -0.518  0.00  0.00    +0.077 C 
ATOM      7  C   UNL     1       2.611   0.389   0.549  0.00  0.00    +0.077 C 
ATOM      8  C   UNL     1       1.864   1.341   1.240  0.00  0.00    +0.073 C 
ATOM      9  C   UNL     1       3.979  -1.464  -0.838  0.00  0.00    +0.119 C 
ATOM     10  C   UNL     1       4.560  -0.787   0.201  0.00  0.00    +0.119 C 
ENDROOT
BRANCH   3  18
ATOM     11  O   UNL     1      -1.603   2.094  -1.367  0.00  0.00    -0.270 OA
ATOM     12  N   UNL     1      -2.442   0.460   0.079  0.00  0.00    -0.276 N 
ATOM     13  C   UNL     1      -4.181  -1.808   0.486  0.00  0.00    +0.004 C 
ATOM     14  C   UNL     1      -4.500  -0.734  -0.554  0.00  0.00    +0.022 C 
ATOM     15  C   UNL     1      -2.677  -1.896   0.744  0.00  0.00    +0.022 C 
ATOM     16  C   UNL     1      -3.884   0.607  -0.165  0.00  0.00    +0.094 C 
ATOM     17  C   UNL     1      -2.094  -0.530   1.099  0.00  0.00    +0.094 C 
ATOM     18  C   UNL     1      -1.433   1.206  -0.534  0.00  0.00    +0.245 C 
ENDBRANCH   3  18
TORSDOF 1
