REMARK  Name = 21302490
REMARK  5 active torsions:
REMARK  status: ('A' for Active; 'I' for Inactive)
REMARK    1  A    between atoms: N_2  and  C_19
REMARK    2  A    between atoms: C_19  and  C_20
REMARK    3  A    between atoms: C_20  and  C_21
REMARK    4  A    between atoms: C_21  and  C_23
REMARK    5  A    between atoms: C_23  and  C_25
REMARK                            x       y       z     vdW  Elec       q    Type
REMARK                         _______ _______ _______ _____ _____    ______ ____
ROOT
ATOM      1  N   UNL     1       4.169  -1.057   0.034  0.00  0.00    -0.307 N 
ATOM      2  N   UNL     1       0.406  -1.452  -0.514  0.00  0.00    +0.387 N 
ATOM      3  N   UNL     1       6.307   0.416   1.232  0.00  0.00    -0.303 N 
ATOM      4  C   UNL     1       3.289  -1.438  -1.078  0.00  0.00    +0.073 C 
ATOM      5  C   UNL     1       2.385  -0.189  -1.341  0.00  0.00    +0.021 C 
ATOM      6  C   UNL     1       2.495  -2.711  -0.807  0.00  0.00    -0.003 C 
ATOM      7  C   UNL     1       1.099  -0.160  -0.500  0.00  0.00    -0.071 C 
ATOM      8  C   UNL     1       3.315   0.903  -0.895  0.00  0.00    -0.008 C 
ATOM      9  C   UNL     1       4.312   0.339  -0.094  0.00  0.00    +0.057 C 
ATOM     10  C   UNL     1       1.267  -2.489   0.071  0.00  0.00    -0.076 C 
ATOM     11  C   UNL     1       5.387  -1.746   0.408  0.00  0.00    +0.112 C 
ATOM     12  C   UNL     1       5.335   1.080   0.494  0.00  0.00    +0.061 C 
ATOM     13  C   UNL     1       6.061  -0.995   1.568  0.00  0.00    +0.112 C 
ATOM     14  C   UNL     1       3.287   2.261  -1.131  0.00  0.00    -0.003 C 
ATOM     15  C   UNL     1       5.304   2.458   0.241  0.00  0.00    +0.016 C 
ATOM     16  C   UNL     1       4.294   3.039  -0.556  0.00  0.00    +0.001 C 
ATOM     17  C   UNL     1       7.319   1.146   1.974  0.00  0.00    +0.112 C 
ATOM     18  H   UNL     1       0.195  -1.704  -1.480  0.00  0.00    -0.080 HD
ENDROOT
BRANCH   2  19
ATOM     19  C   UNL     1      -0.853  -1.361   0.227  0.00  0.00    -0.077 C 
BRANCH  19  20
ATOM     20  C   UNL     1      -1.917  -0.661  -0.621  0.00  0.00    -0.015 C 
BRANCH  20  21
ATOM     21  C   UNL     1      -3.256  -0.537   0.112  0.00  0.00    +0.067 C 
BRANCH  21  23
ATOM     22  O   UNL     1      -4.157   0.467  -1.889  0.00  0.00    -0.291 OA
ATOM     23  C   UNL     1      -4.354   0.086  -0.738  0.00  0.00    +0.173 C 
BRANCH  23  25
ATOM     24  F   UNL     1      -9.503   0.577   1.460  0.00  0.00    -0.204 F 
ATOM     25  C   UNL     1      -5.721   0.215  -0.155  0.00  0.00    +0.035 C 
ATOM     26  C   UNL     1      -5.970  -0.230   1.143  0.00  0.00    +0.005 C 
ATOM     27  C   UNL     1      -6.749   0.783  -0.907  0.00  0.00    +0.005 C 
ATOM     28  C   UNL     1      -7.248  -0.108   1.689  0.00  0.00    +0.030 C 
ATOM     29  C   UNL     1      -8.027   0.905  -0.362  0.00  0.00    +0.030 C 
ATOM     30  C   UNL     1      -8.276   0.460   0.936  0.00  0.00    +0.140 C 
ENDBRANCH  23  25
ENDBRANCH  21  23
ENDBRANCH  20  21
ENDBRANCH  19  20
ENDBRANCH   2  19
TORSDOF 5
