REMARK  Name = 3052762
REMARK  7 active torsions:
REMARK  status: ('A' for Active; 'I' for Inactive)
REMARK    1  A    between atoms: N_2  and  C_19
REMARK    2  A    between atoms: C_3  and  C_7
REMARK    3  A    between atoms: C_13  and  N_15
REMARK    4  A    between atoms: N_18  and  C_25
REMARK    5  A    between atoms: C_25  and  C_26
REMARK    6  A    between atoms: C_26  and  C_27
REMARK    7  A    between atoms: C_27  and  O_28
REMARK                            x       y       z     vdW  Elec       q    Type
REMARK                         _______ _______ _______ _____ _____    ______ ____
ROOT
ATOM      1  O   UNL     1       1.844   2.608  -1.286  0.00  0.00    -0.270 OA
ATOM      2  N   UNL     1       0.421   1.577   0.228  0.00  0.00    -0.303 N 
ATOM      3  C   UNL     1       1.597   1.700  -0.497  0.00  0.00    +0.249 C 
ATOM      4  H   UNL     1       0.318   0.810   0.837  0.00  0.00    +0.150 HD
ENDROOT
BRANCH   3   7
ATOM      5 CL   UNL     1       6.569   0.280  -0.397  0.00  0.00    -0.081 Cl
ATOM      6  O   UNL     1       0.907  -1.070   0.174  0.00  0.00    -0.475 OA
ATOM      7  C   UNL     1       2.583   0.636  -0.300  0.00  0.00    +0.088 C 
ATOM      8  C   UNL     1       2.205  -0.656   0.009  0.00  0.00    +0.140 C 
ATOM      9  C   UNL     1       3.134  -1.667   0.204  0.00  0.00    +0.029 C 
ATOM     10  C   UNL     1       2.432  -2.911   0.591  0.00  0.00    +0.078 C 
ATOM     11  C   UNL     1       1.008  -2.514   0.200  0.00  0.00    +0.210 C 
ATOM     12  C   UNL     1       3.948   0.900  -0.426  0.00  0.00    +0.020 C 
ATOM     13  C   UNL     1       4.489  -1.417   0.093  0.00  0.00    +0.051 C 
ATOM     14  C   UNL     1       4.895  -0.119  -0.232  0.00  0.00    +0.071 C 
BRANCH  13  15
ATOM     15  N   UNL     1       5.419  -2.451   0.312  0.00  0.00    -0.357 N 
ATOM     16  H   UNL     1       5.105  -3.356   0.540  0.00  0.00    +0.142 HD
ATOM     17  H   UNL     1       6.384  -2.269   0.238  0.00  0.00    +0.142 HD
ENDBRANCH  13  15
ENDBRANCH   3   7
BRANCH   2  19
ATOM     18  N   UNL     1      -3.214   1.170   0.621  0.00  0.00    +0.387 N 
ATOM     19  C   UNL     1      -0.658   2.533   0.122  0.00  0.00    +0.068 C 
ATOM     20  C   UNL     1      -1.624   2.154  -1.002  0.00  0.00    -0.003 C 
ATOM     21  C   UNL     1      -1.416   2.658   1.446  0.00  0.00    -0.003 C 
ATOM     22  C   UNL     1      -2.489   0.943  -0.636  0.00  0.00    -0.076 C 
ATOM     23  C   UNL     1      -2.287   1.431   1.731  0.00  0.00    -0.076 C 
ATOM     24  H   UNL     1      -3.799   1.997   0.501  0.00  0.00    -0.080 HD
BRANCH  18  25
ATOM     25  C   UNL     1      -4.074   0.028   0.930  0.00  0.00    -0.075 C 
BRANCH  25  26
ATOM     26  C   UNL     1      -5.059  -0.217  -0.209  0.00  0.00    +0.009 C 
BRANCH  26  27
ATOM     27  C   UNL     1      -5.983  -1.388   0.094  0.00  0.00    +0.140 C 
BRANCH  27  28
ATOM     28  O   UNL     1      -6.883  -1.556  -0.993  0.00  0.00    -0.351 OA
ATOM     29  C   UNL     1      -7.763  -2.651  -0.778  0.00  0.00    +0.174 C 
ENDBRANCH  27  28
ENDBRANCH  26  27
ENDBRANCH  25  26
ENDBRANCH  18  25
ENDBRANCH   2  19
TORSDOF 7
