REMARK  Name = 219024
REMARK  6 active torsions:
REMARK  status: ('A' for Active; 'I' for Inactive)
REMARK    1  A    between atoms: N_1  and  C1*_17
REMARK    2  A    between atoms: C_13  and  C_29
REMARK    3  A    between atoms: C2*_16  and  O2*_20
REMARK    4  A    between atoms: C3*_18  and  O3*_22
REMARK    5  A    between atoms: C4*_19  and  C5*_24
REMARK    6  A    between atoms: C5*_24  and  O5*_25
REMARK                            x       y       z     vdW  Elec       q    Type
REMARK                         _______ _______ _______ _____ _____    ______ ____
ROOT
ATOM      1  N   UNL     1      -2.042  -0.667   0.146  0.00  0.00    -0.236 N 
ATOM      2  N   UNL     1      -2.308  -2.876  -0.021  0.00  0.00    -0.240 NA
ATOM      3  N   UNL     1       0.382  -0.535   0.060  0.00  0.00    -0.309 NA
ATOM      4  N   UNL     1       1.385  -2.749  -0.158  0.00  0.00    -0.310 NA
ATOM      5  N   UNL     1       2.681  -0.824  -0.056  0.00  0.00    -0.111 N 
ATOM      6  N   UNL     1       3.781  -1.592  -0.162  0.00  0.00    -0.162 NA
ATOM      7  C   UNL     1      -0.785  -1.196   0.053  0.00  0.00    +0.221 C 
ATOM      8  C   UNL     1      -2.922  -1.717   0.097  0.00  0.00    +0.224 C 
ATOM      9  C   UNL     1      -0.972  -2.565  -0.050  0.00  0.00    +0.167 C 
ATOM     10  C   UNL     1       0.171  -3.350  -0.158  0.00  0.00    +0.212 C 
ATOM     11  C   UNL     1       1.415  -1.399  -0.050  0.00  0.00    +0.229 C 
ATOM     12  C   UNL     1       2.953   0.511   0.039  0.00  0.00    +0.109 C 
ATOM     13  C   UNL     1       4.321   0.622  -0.009  0.00  0.00    +0.092 C 
ATOM     14  C   UNL     1       4.778  -0.704  -0.132  0.00  0.00    +0.125 C 
ATOM     15  N   UNL     1       0.075  -4.748  -0.267  0.00  0.00    -0.331 N 
ATOM     16  H   UNL     1       0.891  -5.293  -0.343  0.00  0.00    +0.145 HD
ATOM     17  H   UNL     1      -0.809  -5.182  -0.267  0.00  0.00    +0.145 HD
ENDROOT
BRANCH   1  20
ATOM     18  O4* UNL     1      -3.573   0.878   1.095  0.00  0.00    -0.333 OA
ATOM     19  C2* UNL     1      -2.681   1.433  -1.063  0.00  0.00    +0.187 C 
ATOM     20  C1* UNL     1      -2.393   0.748   0.275  0.00  0.00    +0.226 C 
ATOM     21  C3* UNL     1      -4.196   1.520  -1.077  0.00  0.00    +0.171 C 
ATOM     22  C4* UNL     1      -4.522   1.700   0.396  0.00  0.00    +0.175 C 
BRANCH  19  23
ATOM     23  O2* UNL     1      -2.089   2.731  -1.063  0.00  0.00    -0.378 OA
ATOM     24  H2* UNL     1      -1.123   2.646  -1.054  0.00  0.00    +0.211 HD
ENDBRANCH  19  23
BRANCH  21  25
ATOM     25  O3* UNL     1      -4.691   2.581  -1.865  0.00  0.00    -0.379 OA
ATOM     26  H3* UNL     1      -4.461   2.427  -2.795  0.00  0.00    +0.211 HD
ENDBRANCH  21  25
BRANCH  22  27
ATOM     27  C5* UNL     1      -5.934   1.276   0.758  0.00  0.00    +0.169 C 
BRANCH  27  28
ATOM     28  O5* UNL     1      -6.125   1.476   2.148  0.00  0.00    -0.379 OA
ATOM     29  H5* UNL     1      -7.024   1.208   2.393  0.00  0.00    +0.211 HD
ENDBRANCH  27  28
ENDBRANCH  22  27
ENDBRANCH   1  20
BRANCH  13  32
ATOM     30  O   UNL     1       4.598   2.946  -0.291  0.00  0.00    -0.270 OA
ATOM     31  N   UNL     1       6.377   1.759   0.569  0.00  0.00    -0.299 N 
ATOM     32  C   UNL     1       5.069   1.840   0.058  0.00  0.00    +0.249 C 
ATOM     33  C   UNL     1       7.246   2.903   0.726  0.00  0.00    +0.111 C 
ATOM     34  H   UNL     1       6.719   0.874   0.835  0.00  0.00    +0.150 HD
ENDBRANCH  13  32
TORSDOF 6
