REMARK  Name = 4282
REMARK  14 active torsions:
REMARK  status: ('A' for Active; 'I' for Inactive)
REMARK    1  A    between atoms: C_1  and  C_2
REMARK    2  A    between atoms: C_1  and  C_14
REMARK    3  A    between atoms: C_2  and  N_3
REMARK    4  A    between atoms: N_3  and  C_6
REMARK    5  A    between atoms: C_6  and  C_7
REMARK    6  A    between atoms: C_7  and  C_8
REMARK    7  A    between atoms: C_8  and  N_9
REMARK    8  A    between atoms: N_9  and  C_12
REMARK    9  A    between atoms: C_14  and  N_15
REMARK   10  A    between atoms: N_15  and  C_18
REMARK   11  A    between atoms: C_18  and  C_19
REMARK   12  A    between atoms: C_19  and  C_20
REMARK   13  A    between atoms: C_20  and  N_21
REMARK   14  A    between atoms: N_21  and  C_24
REMARK                            x       y       z     vdW  Elec       q    Type
REMARK                         _______ _______ _______ _____ _____    ______ ____
ROOT
ATOM      1  C   UNL     1      -0.012   0.316  -0.001  0.00  0.00    -0.047 C 
ENDROOT
BRANCH   1   2
ATOM      2  C   UNL     1      -1.276  -0.545   0.013  0.00  0.00    -0.084 C 
BRANCH   2   3
ATOM      3  N   UNL     1      -2.461   0.302   0.011  0.00  0.00    +0.384 N 
ATOM      4  H   UNL     1      -2.451   0.887  -0.825  0.00  0.00    -0.085 HD
ATOM      5  H   UNL     1      -2.450   0.880   0.851  0.00  0.00    -0.085 HD
BRANCH   3   6
ATOM      6  C   UNL     1      -3.676  -0.503   0.015  0.00  0.00    -0.084 C 
BRANCH   6   7
ATOM      7  C   UNL     1      -4.937   0.364   0.002  0.00  0.00    -0.047 C 
BRANCH   7   8
ATOM      8  C   UNL     1      -6.227  -0.459   0.025  0.00  0.00    -0.084 C 
BRANCH   8   9
ATOM      9  N   UNL     1      -7.388   0.424  -0.005  0.00  0.00    +0.384 N 
ATOM     10  H   UNL     1      -7.354   0.991  -0.853  0.00  0.00    -0.085 HD
ATOM     11  H   UNL     1      -7.366   1.020   0.822  0.00  0.00    -0.085 HD
BRANCH   9  12
ATOM     12  C   UNL     1      -8.624  -0.344   0.006  0.00  0.00    -0.082 C 
ATOM     13  C   UNL     1      -9.838   0.570  -0.026  0.00  0.00    -0.026 C 
ENDBRANCH   9  12
ENDBRANCH   8   9
ENDBRANCH   7   8
ENDBRANCH   6   7
ENDBRANCH   3   6
ENDBRANCH   2   3
ENDBRANCH   1   2
BRANCH   1  14
ATOM     14  C   UNL     1       1.275  -0.513  -0.016  0.00  0.00    -0.084 C 
BRANCH  14  15
ATOM     15  N   UNL     1       2.465   0.328  -0.012  0.00  0.00    +0.384 N 
ATOM     16  H   UNL     1       2.458   0.913   0.824  0.00  0.00    -0.085 HD
ATOM     17  H   UNL     1       2.459   0.907  -0.852  0.00  0.00    -0.085 HD
BRANCH  15  18
ATOM     18  C   UNL     1       3.675  -0.483  -0.016  0.00  0.00    -0.084 C 
BRANCH  18  19
ATOM     19  C   UNL     1       4.941   0.376  -0.002  0.00  0.00    -0.047 C 
BRANCH  19  20
ATOM     20  C   UNL     1       6.226  -0.454  -0.025  0.00  0.00    -0.084 C 
BRANCH  20  21
ATOM     21  N   UNL     1       7.392   0.422   0.007  0.00  0.00    +0.384 N 
ATOM     22  H   UNL     1       7.361   0.989   0.854  0.00  0.00    -0.085 HD
ATOM     23  H   UNL     1       7.374   1.018  -0.821  0.00  0.00    -0.085 HD
BRANCH  21  24
ATOM     24  C   UNL     1       8.624  -0.353  -0.004  0.00  0.00    -0.082 C 
ATOM     25  C   UNL     1       9.843   0.553   0.028  0.00  0.00    -0.026 C 
ENDBRANCH  21  24
ENDBRANCH  20  21
ENDBRANCH  19  20
ENDBRANCH  18  19
ENDBRANCH  15  18
ENDBRANCH  14  15
ENDBRANCH   1  14
TORSDOF 14
