REMARK  Name = 469717
REMARK  3 active torsions:
REMARK  status: ('A' for Active; 'I' for Inactive)
REMARK    1  A    between atoms: N_3  and  C_13
REMARK    2  A    between atoms: C_14  and  C_17
REMARK    3  A    between atoms: C_17  and  O_18
REMARK                            x       y       z     vdW  Elec       q    Type
REMARK                         _______ _______ _______ _____ _____    ______ ____
ROOT
ATOM      1  F   UNL     1      -1.853   2.520   0.688  0.00  0.00    -0.199 F 
ATOM      2  O   UNL     1      -1.306  -2.618  -0.708  0.00  0.00    -0.193 OA
ATOM      3  N   UNL     1      -0.310  -0.672   0.031  0.00  0.00    -0.174 N 
ATOM      4  N   UNL     1      -2.664  -0.820  -0.426  0.00  0.00    -0.304 NA
ATOM      5  N   UNL     1      -4.047   1.032  -0.132  0.00  0.00    -0.330 N 
ATOM      6  C   UNL     1      -0.455   0.648   0.390  0.00  0.00    +0.113 C 
ATOM      7  C   UNL     1      -1.421  -1.434  -0.385  0.00  0.00    +0.276 C 
ATOM      8  C   UNL     1      -1.645   1.236   0.351  0.00  0.00    +0.200 C 
ATOM      9  C   UNL     1      -2.809   0.435  -0.086  0.00  0.00    +0.220 C 
ATOM     10  H   UNL     1      -4.832   0.514  -0.421  0.00  0.00    +0.145 HD
ATOM     11  H   UNL     1      -4.148   1.977   0.125  0.00  0.00    +0.145 HD
ENDROOT
BRANCH   3  13
ATOM     12  O   UNL     1       1.897  -0.589  -0.805  0.00  0.00    -0.329 OA
ATOM     13  C   UNL     1       1.009  -1.292   0.083  0.00  0.00    +0.230 C 
ATOM     14  C   UNL     1       2.985  -0.046  -0.026  0.00  0.00    +0.168 C 
ATOM     15  C   UNL     1       1.589  -1.156   1.439  0.00  0.00    +0.023 C 
ATOM     16  C   UNL     1       2.715  -0.449   1.379  0.00  0.00    +0.005 C 
BRANCH  14  17
ATOM     17  C   UNL     1       3.020   1.461  -0.216  0.00  0.00    +0.171 C 
BRANCH  17  18
ATOM     18  O   UNL     1       3.294   1.744  -1.578  0.00  0.00    -0.379 OA
ATOM     19  H   UNL     1       3.318   2.705  -1.710  0.00  0.00    +0.211 HD
ENDBRANCH  17  18
ENDBRANCH  14  17
ENDBRANCH   3  13
TORSDOF 3
