REMARK  Name = 6914626
REMARK  6 active torsions:
REMARK  status: ('A' for Active; 'I' for Inactive)
REMARK    1  A    between atoms: N_1  and  C_28
REMARK    2  A    between atoms: C_7  and  C_18
REMARK    3  A    between atoms: C_19  and  C_26
REMARK    4  A    between atoms: C_28  and  C_29
REMARK    5  A    between atoms: C_29  and  C_30
REMARK    6  A    between atoms: C_30  and  O_31
REMARK                            x       y       z     vdW  Elec       q    Type
REMARK                         _______ _______ _______ _____ _____    ______ ____
ROOT
ATOM      1  N   UNL     1      -2.139   0.002   0.569  0.00  0.00    -0.327 N 
ATOM      2  C   UNL     1      -0.948  -0.603   0.247  0.00  0.00    +0.060 A 
ATOM      3  C   UNL     1      -1.250  -1.865  -0.266  0.00  0.00    +0.017 A 
ATOM      4  C   UNL     1      -3.200  -0.824   0.281  0.00  0.00    +0.060 A 
ATOM      5  C   UNL     1      -2.675  -2.004  -0.244  0.00  0.00    +0.017 A 
ATOM      6  C   UNL     1       0.364  -0.131   0.371  0.00  0.00    +0.014 C 
ATOM      7  C   UNL     1       1.398  -0.975  -0.043  0.00  0.00    -0.007 C 
ATOM      8  C   UNL     1      -0.189  -2.698  -0.677  0.00  0.00    +0.001 C 
ATOM      9  C   UNL     1      -4.574  -0.615   0.447  0.00  0.00    +0.017 C 
ATOM     10  C   UNL     1      -3.566  -3.029  -0.624  0.00  0.00    +0.001 C 
ATOM     11  C   UNL     1       1.128  -2.240  -0.559  0.00  0.00    -0.003 C 
ATOM     12  C   UNL     1      -5.437  -1.645   0.063  0.00  0.00    +0.001 C 
ATOM     13  C   UNL     1      -4.943  -2.835  -0.465  0.00  0.00    +0.000 C 
ENDROOT
BRANCH   7  18
ATOM     14  N   UNL     1       4.674   0.587  -0.895  0.00  0.00    -0.337 NA
ATOM     15  N   UNL     1       4.816  -0.339   1.325  0.00  0.00    -0.317 NA
ATOM     16  N   UNL     1       2.957  -1.437   2.290  0.00  0.00    -0.335 N 
ATOM     17  N   UNL     1       6.652   0.754   0.356  0.00  0.00    -0.283 N 
ATOM     18  C   UNL     1       2.771  -0.527   0.069  0.00  0.00    +0.138 C 
ATOM     19  C   UNL     1       3.399   0.151  -0.956  0.00  0.00    +0.112 C 
ATOM     20  C   UNL     1       3.536  -0.746   1.196  0.00  0.00    +0.178 C 
ATOM     21  C   UNL     1       5.315   0.312   0.257  0.00  0.00    +0.196 C 
ATOM     22  H   UNL     1       3.487  -1.603   3.103  0.00  0.00    +0.144 HD
ATOM     23  H   UNL     1       2.026  -1.751   2.237  0.00  0.00    +0.144 HD
ATOM     24  H   UNL     1       7.069   1.235  -0.395  0.00  0.00    +0.156 HD
ATOM     25  H   UNL     1       7.168   0.580   1.176  0.00  0.00    +0.156 HD
BRANCH  19  26
ATOM     26  C   UNL     1       2.682   0.454  -2.232  0.00  0.00    +0.056 C 
ATOM     27  C   UNL     1       1.961   1.796  -2.186  0.00  0.00    +0.008 C 
ENDBRANCH  19  26
ENDBRANCH   7  18
BRANCH   1  28
ATOM     28  C   UNL     1      -2.261   1.331   1.133  0.00  0.00    +0.109 C 
BRANCH  28  29
ATOM     29  C   UNL     1      -2.385   2.437   0.086  0.00  0.00    +0.057 C 
BRANCH  29  30
ATOM     30  C   UNL     1      -2.574   3.824   0.690  0.00  0.00    +0.144 C 
BRANCH  30  31
ATOM     31  O   UNL     1      -2.655   4.773  -0.365  0.00  0.00    -0.351 OA
ATOM     32  C   UNL     1      -2.855   6.089   0.133  0.00  0.00    +0.174 C 
ENDBRANCH  30  31
ENDBRANCH  29  30
ENDBRANCH  28  29
ENDBRANCH   1  28
TORSDOF 6
