REMARK  Name = 5496862
REMARK  11 active torsions:
REMARK  status: ('A' for Active; 'I' for Inactive)
REMARK    1  A    between atoms: C_1  and  C_20
REMARK    2  A    between atoms: C_2  and  O_18
REMARK    3  A    between atoms: C_8  and  C_10
REMARK    4  A    between atoms: C_13  and  O_16
REMARK    5  A    between atoms: C_20  and  C_22
REMARK    6  A    between atoms: C_20  and  C_25
REMARK    7  A    between atoms: C_22  and  O_23
REMARK    8  A    between atoms: C_25  and  C_26
REMARK    9  A    between atoms: C_26  and  C_27
REMARK   10  A    between atoms: C_27  and  C_28
REMARK   11  A    between atoms: C_28  and  C_31
REMARK                            x       y       z     vdW  Elec       q    Type
REMARK                         _______ _______ _______ _____ _____    ______ ____
ROOT
ATOM      1  C   UNL     1      -1.228   2.191   0.591  0.00  0.00    +0.060 C 
ATOM      2  C   UNL     1      -0.617   3.477  -0.013  0.00  0.00    +0.119 C 
ATOM      3  C   UNL     1      -0.030   1.280   0.600  0.00  0.00    -0.023 C 
ATOM      4  C   UNL     1       0.579   3.054  -0.884  0.00  0.00    +0.056 C 
ATOM      5  C   UNL     1       0.988   1.773  -0.224  0.00  0.00    -0.024 C 
ATOM      6  C   UNL     1       0.126   0.086   1.287  0.00  0.00    -0.004 C 
ATOM      7  C   UNL     1       2.175   1.077  -0.388  0.00  0.00    -0.004 C 
ATOM      8  C   UNL     1       2.341  -0.124   0.304  0.00  0.00    -0.000 C 
ATOM      9  C   UNL     1       1.323  -0.616   1.137  0.00  0.00    -0.000 C 
ENDROOT
BRANCH   8  10
ATOM     10  C   UNL     1       3.571  -0.872   0.159  0.00  0.00    +0.003 C 
ATOM     11  C   UNL     1       4.769  -0.203  -0.096  0.00  0.00    +0.037 C 
ATOM     12  C   UNL     1       3.560  -2.262   0.276  0.00  0.00    +0.000 C 
ATOM     13  C   UNL     1       5.954  -0.925  -0.234  0.00  0.00    +0.139 C 
ATOM     14  C   UNL     1       4.746  -2.983   0.138  0.00  0.00    +0.003 C 
ATOM     15  C   UNL     1       5.943  -2.315  -0.117  0.00  0.00    +0.037 C 
BRANCH  13  16
ATOM     16  O   UNL     1       7.123  -0.273  -0.482  0.00  0.00    -0.471 OA
ATOM     17  C   UNL     1       8.298  -1.072  -0.610  0.00  0.00    +0.252 C 
ENDBRANCH  13  16
ENDBRANCH   8  10
BRANCH   2  18
ATOM     18  O   UNL     1      -0.127   4.310   1.042  0.00  0.00    -0.384 OA
ATOM     19  H   UNL     1      -0.866   4.588   1.605  0.00  0.00    +0.210 HD
ENDBRANCH   2  18
BRANCH   1  20
ATOM     20  C   UNL     1      -2.347   1.623  -0.274  0.00  0.00    +0.105 C 
BRANCH  20  22
ATOM     21  O   UNL     1      -4.209   2.941   0.586  0.00  0.00    -0.250 OA
ATOM     22  C   UNL     1      -3.513   2.595  -0.360  0.00  0.00    +0.314 C 
BRANCH  22  23
ATOM     23  O   UNL     1      -3.707   3.056  -1.623  0.00  0.00    -0.480 OA
ATOM     24  H   UNL     1      -3.150   2.765  -2.318  0.00  0.00    +0.295 HD
ENDBRANCH  22  23
ENDBRANCH  20  22
BRANCH  20  25
ATOM     25  C   UNL     1      -2.814   0.234   0.193  0.00  0.00    +0.012 C 
BRANCH  25  26
ATOM     26  C   UNL     1      -4.122  -0.251  -0.445  0.00  0.00    +0.001 C 
BRANCH  26  27
ATOM     27  C   UNL     1      -4.475  -1.664   0.030  0.00  0.00    +0.008 C 
BRANCH  27  28
ATOM     28  C   UNL     1      -5.757  -2.198  -0.609  0.00  0.00    +0.060 C 
BRANCH  28  31
ATOM     29  N   UNL     1      -5.538  -4.654  -0.768  0.00  0.00    -0.346 N 
ATOM     30  N   UNL     1      -6.910  -3.694   0.895  0.00  0.00    -0.289 NA
ATOM     31  C   UNL     1      -6.104  -3.590  -0.116  0.00  0.00    +0.093 C 
ATOM     32  H   UNL     1      -5.739  -5.573  -0.477  0.00  0.00    +0.143 HD
ATOM     33  H   UNL     1      -4.930  -4.500  -1.526  0.00  0.00    +0.143 HD
ATOM     34  H   UNL     1      -7.155  -4.583   1.240  0.00  0.00    +0.188 HD
ENDBRANCH  28  31
ENDBRANCH  27  28
ENDBRANCH  26  27
ENDBRANCH  25  26
ENDBRANCH  20  25
ENDBRANCH   1  20
TORSDOF 11
