REMARK  Name = 5496659
REMARK  9 active torsions:
REMARK  status: ('A' for Active; 'I' for Inactive)
REMARK    1  A    between atoms: C_1  and  N_4
REMARK    2  A    between atoms: C_1  and  C_20
REMARK    3  A    between atoms: C_5  and  C_7
REMARK    4  A    between atoms: C_10  and  C_15
REMARK    5  A    between atoms: C_20  and  C_22
REMARK    6  A    between atoms: C_20  and  C_25
REMARK    7  A    between atoms: C_22  and  O_23
REMARK    8  A    between atoms: C_25  and  C_26
REMARK    9  A    between atoms: C_29  and  C_34
REMARK                            x       y       z     vdW  Elec       q    Type
REMARK                         _______ _______ _______ _____ _____    ______ ____
ROOT
ATOM      1  C   UNL     1       1.626   2.651  -0.297  0.00  0.00    +0.083 C 
ATOM      2  C   UNL     1       1.671   3.704  -1.403  0.00  0.00    +0.022 C 
ENDROOT
BRANCH   1   4
ATOM      3  O   UNL     1      -0.727   3.561   1.073  0.00  0.00    -0.270 OA
ATOM      4  N   UNL     1       0.335   2.004  -0.277  0.00  0.00    -0.302 N 
ATOM      5  C   UNL     1      -0.747   2.523   0.417  0.00  0.00    +0.246 C 
ATOM      6  H   UNL     1       0.219   1.162  -0.775  0.00  0.00    +0.150 HD
BRANCH   5   7
ATOM      7  C   UNL     1      -1.998   1.725   0.359  0.00  0.00    +0.053 C 
ATOM      8  C   UNL     1      -2.924   1.803   1.399  0.00  0.00    +0.005 C 
ATOM      9  C   UNL     1      -2.247   0.897  -0.735  0.00  0.00    +0.005 C 
ATOM     10  C   UNL     1      -4.348   0.225   0.250  0.00  0.00    +0.000 C 
ATOM     11  C   UNL     1      -4.099   1.053   1.345  0.00  0.00    +0.000 C 
ATOM     12  C   UNL     1      -3.421   0.147  -0.790  0.00  0.00    +0.000 C 
BRANCH  10  15
ATOM     13  O   UNL     1      -8.984  -2.742   0.034  0.00  0.00    -0.163 OA
ATOM     14  N   UNL     1      -7.912  -2.057   0.084  0.00  0.00    -0.127 N 
ATOM     15  C   UNL     1      -5.565  -0.555   0.193  0.00  0.00    +0.003 C 
ATOM     16  C   UNL     1      -6.166  -0.994   1.368  0.00  0.00    +0.022 C 
ATOM     17  C   UNL     1      -6.136  -0.866  -1.036  0.00  0.00    +0.022 C 
ATOM     18  C   UNL     1      -7.336  -1.742   1.300  0.00  0.00    +0.121 C 
ATOM     19  C   UNL     1      -7.307  -1.616  -1.077  0.00  0.00    +0.121 C 
ENDBRANCH  10  15
ENDBRANCH   5   7
ENDBRANCH   1   4
BRANCH   1  20
ATOM     20  C   UNL     1       2.794   1.643  -0.399  0.00  0.00    +0.121 C 
BRANCH  20  22
ATOM     21  O   UNL     1       3.617   0.914  -2.575  0.00  0.00    -0.250 OA
ATOM     22  C   UNL     1       2.747   0.871  -1.714  0.00  0.00    +0.319 C 
BRANCH  22  23
ATOM     23  O   UNL     1       1.597   0.138  -1.776  0.00  0.00    -0.444 OA
ATOM     24  C   UNL     1       1.425  -0.637  -2.967  0.00  0.00    +0.256 C 
ENDBRANCH  22  23
ENDBRANCH  20  22
BRANCH  20  25
ATOM     25  C   UNL     1       2.813   0.657   0.788  0.00  0.00    +0.039 C 
BRANCH  25  26
ATOM     26  C   UNL     1       4.173   0.037   1.012  0.00  0.00    -0.021 C 
ATOM     27  C   UNL     1       4.511  -1.154   0.369  0.00  0.00    -0.002 C 
ATOM     28  C   UNL     1       5.089   0.654   1.864  0.00  0.00    -0.004 C 
ATOM     29  C   UNL     1       5.765  -1.727   0.578  0.00  0.00    +0.030 C 
ATOM     30  C   UNL     1       6.343   0.081   2.072  0.00  0.00    -0.000 C 
ATOM     31  C   UNL     1       6.681  -1.110   1.430  0.00  0.00    +0.003 C 
BRANCH  29  34
ATOM     32  N   UNL     1       7.362  -3.568   0.099  0.00  0.00    -0.343 N 
ATOM     33  N   UNL     1       5.249  -3.550  -0.900  0.00  0.00    -0.285 NA
ATOM     34  C   UNL     1       6.117  -2.970  -0.091  0.00  0.00    +0.117 C 
ATOM     35  H   UNL     1       7.579  -4.409  -0.364  0.00  0.00    +0.144 HD
ATOM     36  H   UNL     1       8.023  -3.149   0.696  0.00  0.00    +0.144 HD
ATOM     37  H   UNL     1       5.486  -4.392  -1.354  0.00  0.00    +0.188 HD
ENDBRANCH  29  34
ENDBRANCH  25  26
ENDBRANCH  20  25
ENDBRANCH   1  20
TORSDOF 9
