REMARK  Name = 21874557
REMARK  4 active torsions:
REMARK  status: ('A' for Active; 'I' for Inactive)
REMARK    1  A    between atoms: N_1  and  C_18
REMARK    2  A    between atoms: C_9  and  C_14
REMARK    3  A    between atoms: C_18  and  C_19
REMARK    4  A    between atoms: C_23  and  N_26
REMARK                            x       y       z     vdW  Elec       q    Type
REMARK                         _______ _______ _______ _____ _____    ______ ____
ROOT
ATOM      1  N   UNL     1       0.436  -0.684  -1.359  0.00  0.00    -0.170 N 
ATOM      2  N   UNL     1      -0.078  -1.915  -1.174  0.00  0.00    -0.042 NA
ATOM      3  N   UNL     1      -1.292  -1.770  -0.646  0.00  0.00    -0.137 NA
ATOM      4  N   UNL     1      -0.282   1.610  -0.981  0.00  0.00    -0.310 NA
ATOM      5  N   UNL     1      -2.525   1.655  -0.012  0.00  0.00    -0.324 NA
ATOM      6  N   UNL     1      -1.345   3.630  -0.462  0.00  0.00    -0.283 N 
ATOM      7  C   UNL     1      -0.436   0.279  -0.954  0.00  0.00    +0.238 C 
ATOM      8  C   UNL     1      -1.531  -0.432  -0.503  0.00  0.00    +0.181 C 
ATOM      9  C   UNL     1      -2.606   0.302  -0.017  0.00  0.00    +0.202 C 
ATOM     10  C   UNL     1      -1.385   2.217  -0.487  0.00  0.00    +0.198 C 
ATOM     11  H   UNL     1      -0.549   4.106  -0.791  0.00  0.00    +0.156 HD
ATOM     12  H   UNL     1      -2.114   4.138  -0.115  0.00  0.00    +0.156 HD
ENDROOT
BRANCH   9  14
ATOM     13  O   UNL     1      -4.757   0.527   0.919  0.00  0.00    -0.448 OA
ATOM     14  C   UNL     1      -3.792  -0.323   0.477  0.00  0.00    +0.178 C 
ATOM     15  C   UNL     1      -4.199  -1.629   0.614  0.00  0.00    +0.043 C 
ATOM     16  C   UNL     1      -5.497  -1.580   1.177  0.00  0.00    +0.044 C 
ATOM     17  C   UNL     1      -5.791  -0.246   1.343  0.00  0.00    +0.180 C 
ENDBRANCH   9  14
BRANCH   1  18
ATOM     18  C   UNL     1       1.775  -0.513  -1.932  0.00  0.00    +0.145 C 
BRANCH  18  19
ATOM     19  C   UNL     1       2.831  -0.485  -0.880  0.00  0.00    -0.001 C 
ATOM     20  C   UNL     1       3.209   0.727  -0.302  0.00  0.00    -0.006 C 
ATOM     21  C   UNL     1       4.197   0.752   0.683  0.00  0.00    -0.009 C 
ATOM     22  C   UNL     1       3.442  -1.672  -0.474  0.00  0.00    -0.001 C 
ATOM     23  C   UNL     1       4.807  -0.435   1.089  0.00  0.00    +0.037 C 
ATOM     24  C   UNL     1       4.430  -1.647   0.511  0.00  0.00    +0.013 C 
ATOM     25  C   UNL     1       4.582   2.064   1.285  0.00  0.00    +0.032 C 
BRANCH  23  26
ATOM     26  N   UNL     1       5.808  -0.429   2.084  0.00  0.00    -0.357 N 
ATOM     27  H   UNL     1       6.084   0.420   2.500  0.00  0.00    +0.142 HD
ATOM     28  H   UNL     1       6.231  -1.273   2.363  0.00  0.00    +0.142 HD
ENDBRANCH  23  26
ENDBRANCH  18  19
ENDBRANCH   1  18
TORSDOF 4
