REMARK  Name = 119590
REMARK  5 active torsions:
REMARK  status: ('A' for Active; 'I' for Inactive)
REMARK    1  A    between atoms: C_4  and  C_11
REMARK    2  A    between atoms: C_4  and  O_17
REMARK    3  A    between atoms: O_17  and  C_18
REMARK    4  A    between atoms: C_18  and  C_19
REMARK    5  A    between atoms: C_19  and  N_20
REMARK                            x       y       z     vdW  Elec       q    Type
REMARK                         _______ _______ _______ _____ _____    ______ ____
ROOT
ATOM      1  C   UNL     1       1.899  -0.282   0.678  0.00  0.00    +0.026 C 
ATOM      2  C   UNL     1       2.463  -1.612   0.050  0.00  0.00    +0.002 C 
ATOM      3  C   UNL     1       2.373  -1.022  -1.377  0.00  0.00    +0.003 C 
ATOM      4  C   UNL     1       0.528  -0.051  -0.092  0.00  0.00    +0.111 C 
ATOM      5  C   UNL     1       0.885  -0.602  -1.510  0.00  0.00    +0.031 C 
ATOM      6  C   UNL     1       2.925   0.764   0.149  0.00  0.00    +0.003 C 
ATOM      7  C   UNL     1       3.204   0.278  -1.283  0.00  0.00    +0.000 C 
ATOM      8  C   UNL     1       1.808  -0.288   2.198  0.00  0.00    +0.003 C 
ATOM      9  C   UNL     1       3.901  -1.992   0.477  0.00  0.00    +0.000 C 
ATOM     10  C   UNL     1       1.635  -2.896   0.255  0.00  0.00    +0.000 C 
ENDROOT
BRANCH   4  11
ATOM     11  C   UNL     1      -0.038   1.367  -0.003  0.00  0.00    +0.002 C 
ATOM     12  C   UNL     1      -0.219   2.120  -1.163  0.00  0.00    -0.002 C 
ATOM     13  C   UNL     1      -0.373   1.907   1.239  0.00  0.00    -0.002 C 
ATOM     14  C   UNL     1      -0.734   3.414  -1.081  0.00  0.00    -0.000 C 
ATOM     15  C   UNL     1      -0.889   3.200   1.320  0.00  0.00    -0.000 C 
ATOM     16  C   UNL     1      -1.070   3.954   0.160  0.00  0.00    -0.000 C 
ENDBRANCH   4  11
BRANCH   4  17
ATOM     17  O   UNL     1      -0.479  -0.919   0.452  0.00  0.00    -0.357 OA
BRANCH  17  18
ATOM     18  C   UNL     1      -1.694  -0.830  -0.280  0.00  0.00    +0.120 C 
BRANCH  18  19
ATOM     19  C   UNL     1      -2.704  -1.787   0.332  0.00  0.00    -0.045 C 
BRANCH  19  20
ATOM     20  N   UNL     1      -3.973  -1.717  -0.376  0.00  0.00    +0.386 N 
ATOM     21  C   UNL     1      -4.508  -0.353  -0.348  0.00  0.00    -0.101 C 
ATOM     22  C   UNL     1      -4.942  -2.651   0.202  0.00  0.00    -0.101 C 
ATOM     23  H   UNL     1      -3.807  -1.981  -1.347  0.00  0.00    -0.080 HD
ENDBRANCH  19  20
ENDBRANCH  18  19
ENDBRANCH  17  18
ENDBRANCH   4  17
TORSDOF 5
