REMARK  Name = 5340
REMARK  3 active torsions:
REMARK  status: ('A' for Active; 'I' for Inactive)
REMARK    1  A    between atoms: S_1  and  N_5
REMARK    2  A    between atoms: S_1  and  C_11
REMARK    3  A    between atoms: C_14  and  N_17
REMARK                            x       y       z     vdW  Elec       q    Type
REMARK                         _______ _______ _______ _____ _____    ______ ____
ROOT
ATOM      1  S   UNL     1       0.473  -2.013   0.170  0.00  0.00    +0.075 S 
ATOM      2  O   UNL     1       0.042  -3.203  -0.552  0.00  0.00    -0.150 OA
ATOM      3  O   UNL     1       0.903  -2.150   1.556  0.00  0.00    -0.150 OA
ENDROOT
BRANCH   1   5
ATOM      4  S   UNL     1       2.506   1.270  -1.595  0.00  0.00    -0.050 S 
ATOM      5  N   UNL     1       1.718  -1.252  -0.747  0.00  0.00    -0.194 N 
ATOM      6  N   UNL     1       2.129   0.523   0.851  0.00  0.00    -0.221 NA
ATOM      7  C   UNL     1       2.086   0.095  -0.402  0.00  0.00    +0.179 C 
ATOM      8  C   UNL     1       2.760   2.427  -0.354  0.00  0.00    +0.059 C 
ATOM      9  C   UNL     1       2.513   1.850   0.874  0.00  0.00    +0.108 C 
ATOM     10  H   UNL     1       2.164  -1.726  -1.485  0.00  0.00    +0.176 HD
ENDBRANCH   1   5
BRANCH   1  11
ATOM     11  C   UNL     1      -0.826  -0.848   0.101  0.00  0.00    +0.125 C 
ATOM     12  C   UNL     1      -1.762  -0.909  -0.931  0.00  0.00    +0.021 C 
ATOM     13  C   UNL     1      -0.926   0.144   1.076  0.00  0.00    +0.021 C 
ATOM     14  C   UNL     1      -2.901   1.014  -0.012  0.00  0.00    +0.042 C 
ATOM     15  C   UNL     1      -2.800   0.022  -0.988  0.00  0.00    +0.015 C 
ATOM     16  C   UNL     1      -1.964   1.075   1.020  0.00  0.00    +0.015 C 
BRANCH  14  17
ATOM     17  N   UNL     1      -3.950   1.954  -0.068  0.00  0.00    -0.357 N 
ATOM     18  H   UNL     1      -4.612   1.911  -0.796  0.00  0.00    +0.142 HD
ATOM     19  H   UNL     1      -4.022   2.653   0.622  0.00  0.00    +0.142 HD
ENDBRANCH  14  17
ENDBRANCH   1  11
TORSDOF 3
