REMARK  Name = 6914612
REMARK  7 active torsions:
REMARK  status: ('A' for Active; 'I' for Inactive)
REMARK    1  A    between atoms: C_1  and  N_6
REMARK    2  A    between atoms: C_2  and  S_16
REMARK    3  A    between atoms: C_3  and  O_18
REMARK    4  A    between atoms: C_4  and  O_20
REMARK    5  A    between atoms: C_5  and  O_22
REMARK    6  A    between atoms: N_6  and  C_9
REMARK    7  A    between atoms: C_9  and  C_10
REMARK                            x       y       z     vdW  Elec       q    Type
REMARK                         _______ _______ _______ _____ _____    ______ ____
ROOT
ATOM      1  C   UNL     1      -1.020  -0.167   0.622  0.00  0.00    -0.019 C 
ATOM      2  C   UNL     1      -2.102  -0.900  -0.198  0.00  0.00    +0.060 C 
ATOM      3  C   UNL     1      -1.448   1.303   0.544  0.00  0.00    +0.121 C 
ATOM      4  C   UNL     1      -3.375  -0.031  -0.066  0.00  0.00    +0.147 C 
ATOM      5  C   UNL     1      -2.950   1.170   0.791  0.00  0.00    +0.163 C 
ENDROOT
BRANCH   1   6
ATOM      6  N   UNL     1       0.326  -0.399   0.118  0.00  0.00    +0.390 N 
ATOM      7  H   UNL     1       0.367  -0.124  -0.863  0.00  0.00    -0.084 HD
ATOM      8  H   UNL     1       0.545  -1.390   0.220  0.00  0.00    -0.084 HD
BRANCH   6   9
ATOM      9  C   UNL     1       1.306   0.373   0.870  0.00  0.00    -0.054 C 
BRANCH   9  10
ATOM     10  C   UNL     1       2.705   0.157   0.357  0.00  0.00    -0.044 C 
ATOM     11  C   UNL     1       3.478  -0.864   0.890  0.00  0.00    -0.006 C 
ATOM     12  C   UNL     1       3.201   0.982  -0.643  0.00  0.00    -0.006 C 
ATOM     13  C   UNL     1       4.774  -1.065   0.414  0.00  0.00    -0.000 C 
ATOM     14  C   UNL     1       4.497   0.782  -1.119  0.00  0.00    -0.000 C 
ATOM     15  C   UNL     1       5.283  -0.242  -0.590  0.00  0.00    -0.000 C 
ENDBRANCH   9  10
ENDBRANCH   6   9
ENDBRANCH   1   6
BRANCH   2  16
ATOM     16  S   UNL     1      -2.372  -2.596   0.406  0.00  0.00    -0.140 S 
ATOM     17  C   UNL     1      -3.654  -3.087  -0.768  0.00  0.00    +0.069 C 
ENDBRANCH   2  16
BRANCH   3  18
ATOM     18  O   UNL     1      -1.204   1.833  -0.755  0.00  0.00    -0.384 OA
ATOM     19  H   UNL     1      -0.247   1.911  -0.897  0.00  0.00    +0.210 HD
ENDBRANCH   3  18
BRANCH   4  20
ATOM     20  O   UNL     1      -3.774   0.403  -1.365  0.00  0.00    -0.381 OA
ATOM     21  H   UNL     1      -4.039  -0.364  -1.895  0.00  0.00    +0.210 HD
ENDBRANCH   4  20
BRANCH   5  22
ATOM     22  O   UNL     1      -3.671   2.346   0.489  0.00  0.00    -0.380 OA
ATOM     23  H   UNL     1      -3.363   3.069   1.058  0.00  0.00    +0.211 HD
ENDBRANCH   5  22
TORSDOF 7
