REMARK  Name = 5565
REMARK  9 active torsions:
REMARK  status: ('A' for Active; 'I' for Inactive)
REMARK    1  A    between atoms: C_1  and  N_2
REMARK    2  A    between atoms: C_1  and  C_11
REMARK    3  A    between atoms: N_2  and  C_5
REMARK    4  A    between atoms: C_5  and  C_6
REMARK    5  A    between atoms: C_6  and  N_7
REMARK    6  A    between atoms: C_11  and  N_12
REMARK    7  A    between atoms: N_12  and  C_15
REMARK    8  A    between atoms: C_15  and  C_16
REMARK    9  A    between atoms: C_16  and  N_17
REMARK                            x       y       z     vdW  Elec       q    Type
REMARK                         _______ _______ _______ _____ _____    ______ ____
ROOT
ATOM      1  C   UNL     1      -0.632   0.444   0.000  0.00  0.00    -0.106 C 
ENDROOT
BRANCH   1   2
ATOM      2  N   UNL     1      -1.809  -0.414  -0.006  0.00  0.00    +0.381 N 
ATOM      3  H   UNL     1      -1.793  -1.008   0.823  0.00  0.00    -0.085 HD
ATOM      4  H   UNL     1      -1.792  -0.983  -0.853  0.00  0.00    -0.085 HD
BRANCH   2   5
ATOM      5  C   UNL     1      -3.031   0.380  -0.003  0.00  0.00    -0.106 C 
BRANCH   5   6
ATOM      6  C   UNL     1      -4.253  -0.530  -0.020  0.00  0.00    -0.110 C 
BRANCH   6   7
ATOM      7  N   UNL     1      -5.454   0.271   0.012  0.00  0.00    +0.379 N 
ATOM      8  H   UNL     1      -6.271  -0.340   0.000  0.00  0.00    -0.089 HD
ATOM      9  H   UNL     1      -5.476   0.884  -0.804  0.00  0.00    -0.089 HD
ATOM     10  H   UNL     1      -5.464   0.836   0.861  0.00  0.00    -0.089 HD
ENDBRANCH   6   7
ENDBRANCH   5   6
ENDBRANCH   2   5
ENDBRANCH   1   2
BRANCH   1  11
ATOM     11  C   UNL     1       0.627  -0.413   0.029  0.00  0.00    -0.106 C 
BRANCH  11  12
ATOM     12  N   UNL     1       1.815   0.430   0.008  0.00  0.00    +0.381 N 
ATOM     13  H   UNL     1       1.818   1.024   0.837  0.00  0.00    -0.085 HD
ATOM     14  H   UNL     1       1.796   0.999  -0.838  0.00  0.00    -0.085 HD
BRANCH  12  15
ATOM     15  C   UNL     1       3.026  -0.379  -0.004  0.00  0.00    -0.106 C 
BRANCH  15  16
ATOM     16  C   UNL     1       4.261   0.514  -0.016  0.00  0.00    -0.110 C 
BRANCH  16  17
ATOM     17  N   UNL     1       5.450  -0.303   0.001  0.00  0.00    +0.379 N 
ATOM     18  H   UNL     1       6.275   0.297  -0.007  0.00  0.00    -0.089 HD
ATOM     19  H   UNL     1       5.460  -0.906  -0.822  0.00  0.00    -0.089 HD
ATOM     20  H   UNL     1       5.457  -0.878   0.843  0.00  0.00    -0.089 HD
ENDBRANCH  16  17
ENDBRANCH  15  16
ENDBRANCH  12  15
ENDBRANCH  11  12
ENDBRANCH   1  11
TORSDOF 9
