REMARK  Name = 11987861
REMARK  10 active torsions:
REMARK  status: ('A' for Active; 'I' for Inactive)
REMARK    1  A    between atoms: C_1  and  O_2
REMARK    2  A    between atoms: C_1  and  C_15
REMARK    3  A    between atoms: O_2  and  N_3
REMARK    4  A    between atoms: N_3  and  C_4
REMARK    5  A    between atoms: C_15  and  O_16
REMARK    6  A    between atoms: O_16  and  N_17
REMARK    7  A    between atoms: N_17  and  C_18
REMARK    8  A    between atoms: C_18  and  C_19
REMARK    9  A    between atoms: C_20  and  C_26
REMARK   10  A    between atoms: C_26  and  O_27
REMARK                            x       y       z     vdW  Elec       q    Type
REMARK                         _______ _______ _______ _____ _____    ______ ____
ROOT
ATOM      1  C   UNL     1      -1.228   0.399   0.019  0.00  0.00    +0.210 C 
ENDROOT
BRANCH   1   2
ATOM      2  O   UNL     1      -2.255  -0.582   0.012  0.00  0.00    -0.233 OA
BRANCH   2   3
ATOM      3  N   UNL     1      -3.490   0.081   0.009  0.00  0.00    -0.129 NA
BRANCH   3   4
ATOM      4  C   UNL     1      -4.435  -0.801   0.003  0.00  0.00    +0.138 C 
ATOM      5  O   UNL     1      -7.807   2.521   0.003  0.00  0.00    -0.252 OA
ATOM      6  O   UNL     1      -9.069  -1.926  -0.018  0.00  0.00    -0.274 OA
ATOM      7  N   UNL     1      -6.190   0.882   0.003  0.00  0.00    -0.270 N 
ATOM      8  N   UNL     1      -8.460   0.307  -0.008  0.00  0.00    -0.239 N 
ATOM      9  C   UNL     1      -5.853  -0.444  -0.002  0.00  0.00    +0.059 C 
ATOM     10  C   UNL     1      -6.763  -1.422  -0.009  0.00  0.00    +0.128 C 
ATOM     11  C   UNL     1      -7.504   1.328  -0.001  0.00  0.00    +0.310 C 
ATOM     12  C   UNL     1      -8.201  -1.057  -0.013  0.00  0.00    +0.235 C 
ATOM     13  H   UNL     1      -5.467   1.551   0.008  0.00  0.00    +0.156 HD
ATOM     14  H   UNL     1      -9.405   0.582  -0.010  0.00  0.00    +0.159 HD
ENDBRANCH   3   4
ENDBRANCH   2   3
ENDBRANCH   1   2
BRANCH   1  15
ATOM     15  C   UNL     1       0.120  -0.297   0.022  0.00  0.00    +0.203 C 
BRANCH  15  16
ATOM     16  O   UNL     1       1.149   0.685   0.009  0.00  0.00    -0.263 OA
BRANCH  16  17
ATOM     17  N   UNL     1       2.381   0.019   0.011  0.00  0.00    -0.079 NA
BRANCH  17  18
ATOM     18  C   UNL     1       3.325   0.903  -0.001  0.00  0.00    +0.148 C 
BRANCH  18  19
ATOM     19  C   UNL     1       4.750   0.531  -0.002  0.00  0.00    -0.002 C 
ATOM     20  C   UNL     1       7.431  -0.171  -0.005  0.00  0.00    +0.075 C 
ATOM     21  C   UNL     1       5.101  -0.810   0.009  0.00  0.00    -0.003 C 
ATOM     22  C   UNL     1       5.712   1.528  -0.014  0.00  0.00    -0.003 C 
ATOM     23  C   UNL     1       6.451  -1.163   0.007  0.00  0.00    +0.006 C 
ATOM     24  C   UNL     1       7.062   1.175  -0.015  0.00  0.00    +0.006 C 
BRANCH  20  26
ATOM     25  O   UNL     1       9.276  -1.694   0.004  0.00  0.00    -0.245 OA
ATOM     26  C   UNL     1       8.838  -0.538  -0.005  0.00  0.00    +0.338 C 
BRANCH  26  27
ATOM     27  O   UNL     1       9.660   0.546  -0.018  0.00  0.00    -0.477 OA
ATOM     28  H   UNL     1       9.296   1.410  -0.024  0.00  0.00    +0.295 HD
ENDBRANCH  26  27
ENDBRANCH  20  26
ENDBRANCH  18  19
ENDBRANCH  17  18
ENDBRANCH  16  17
ENDBRANCH  15  16
ENDBRANCH   1  15
TORSDOF 10
