REMARK  Name = 6918493
REMARK  8 active torsions:
REMARK  status: ('A' for Active; 'I' for Inactive)
REMARK    1  A    between atoms: C_1  and  C_2
REMARK    2  A    between atoms: C_1  and  C_8
REMARK    3  A    between atoms: C_1  and  O_14
REMARK    4  A    between atoms: C_1  and  C_16
REMARK    5  A    between atoms: C_16  and  C_18
REMARK    6  A    between atoms: C_16  and  O_21
REMARK    7  A    between atoms: C_18  and  O_19
REMARK    8  A    between atoms: O_21  and  C_24
REMARK                            x       y       z     vdW  Elec       q    Type
REMARK                         _______ _______ _______ _____ _____    ______ ____
ROOT
ATOM      1  C   UNL     1      -1.364   0.033  -0.641  0.00  0.00    +0.178 C 
ENDROOT
BRANCH   1   2
ATOM      2  C   UNL     1      -2.154   0.832   0.412  0.00  0.00    +0.010 C 
ATOM      3  C   UNL     1      -1.848   0.639   1.736  0.00  0.00    -0.002 C 
ATOM      4  C   UNL     1      -3.125   1.697  -0.022  0.00  0.00    -0.002 C 
ATOM      5  C   UNL     1      -2.564   1.363   2.690  0.00  0.00    -0.000 C 
ATOM      6  C   UNL     1      -3.840   2.420   0.932  0.00  0.00    -0.000 C 
ATOM      7  C   UNL     1      -3.559   2.253   2.288  0.00  0.00    -0.000 C 
ENDBRANCH   1   2
BRANCH   1   8
ATOM      8  C   UNL     1      -1.533  -1.485  -0.450  0.00  0.00    +0.010 C 
ATOM      9  C   UNL     1      -2.796  -2.013  -0.527  0.00  0.00    -0.002 C 
ATOM     10  C   UNL     1      -0.412  -2.238  -0.210  0.00  0.00    -0.002 C 
ATOM     11  C   UNL     1      -2.949  -3.389  -0.353  0.00  0.00    -0.000 C 
ATOM     12  C   UNL     1      -0.565  -3.614  -0.036  0.00  0.00    -0.000 C 
ATOM     13  C   UNL     1      -1.833  -4.189  -0.108  0.00  0.00    -0.000 C 
ENDBRANCH   1   8
BRANCH   1  14
ATOM     14  O   UNL     1      -1.927   0.280  -1.948  0.00  0.00    -0.344 OA
ATOM     15  C   UNL     1      -1.222  -0.441  -2.939  0.00  0.00    +0.175 C 
ENDBRANCH   1  14
BRANCH   1  16
ATOM     16  C   UNL     1       0.108   0.547  -0.713  0.00  0.00    +0.311 C 
BRANCH  16  18
ATOM     17  O   UNL     1       0.178   2.949  -0.369  0.00  0.00    -0.246 OA
ATOM     18  C   UNL     1       0.199   2.006  -1.150  0.00  0.00    +0.359 C 
BRANCH  18  19
ATOM     19  O   UNL     1       0.335   2.163  -2.490  0.00  0.00    -0.478 OA
ATOM     20  H   UNL     1       0.347   1.413  -3.052  0.00  0.00    +0.295 HD
ENDBRANCH  18  19
ENDBRANCH  16  18
BRANCH  16  21
ATOM     21  O   UNL     1       0.779   0.385   0.528  0.00  0.00    -0.389 OA
BRANCH  21  24
ATOM     22  N   UNL     1       2.791   0.773  -0.551  0.00  0.00    -0.320 NA
ATOM     23  N   UNL     1       2.682  -0.540   1.467  0.00  0.00    -0.320 NA
ATOM     24  C   UNL     1       2.137   0.199   0.479  0.00  0.00    +0.309 C 
ATOM     25  C   UNL     1       4.124   0.569  -0.567  0.00  0.00    +0.109 C 
ATOM     26  C   UNL     1       4.019  -0.703   1.389  0.00  0.00    +0.109 C 
ATOM     27  C   UNL     1       4.799  -0.167   0.385  0.00  0.00    +0.111 C 
ATOM     28  C   UNL     1       4.883   1.187  -1.694  0.00  0.00    +0.063 C 
ATOM     29  C   UNL     1       4.659  -1.518   2.463  0.00  0.00    +0.063 C 
ENDBRANCH  21  24
ENDBRANCH  16  21
ENDBRANCH   1  16
TORSDOF 8
