REMARK  Name = 5281034
REMARK  2 active torsions:
REMARK  status: ('A' for Active; 'I' for Inactive)
REMARK    1  A    between atoms: C_7  and  O_23
REMARK    2  A    between atoms: C_22  and  O_25
REMARK                            x       y       z     vdW  Elec       q    Type
REMARK                         _______ _______ _______ _____ _____    ______ ____
ROOT
ATOM      1  O   UNL     1       5.435   0.768  -0.762  0.00  0.00    -0.292 OA
ATOM      2  C   UNL     1      -2.419   0.717  -0.229  0.00  0.00    +0.002 C 
ATOM      3  C   UNL     1      -3.032  -0.631   0.209  0.00  0.00    +0.023 C 
ATOM      4  C   UNL     1      -0.991   0.927   0.293  0.00  0.00    +0.000 C 
ATOM      5  C   UNL     1      -0.083  -0.227  -0.236  0.00  0.00    +0.000 C 
ATOM      6  C   UNL     1       1.415  -0.059   0.225  0.00  0.00    +0.005 C 
ATOM      7  C   UNL     1      -4.478  -0.487  -0.359  0.00  0.00    +0.088 C 
ATOM      8  C   UNL     1      -2.161  -1.753  -0.381  0.00  0.00    +0.002 C 
ATOM      9  C   UNL     1      -0.689  -1.626   0.054  0.00  0.00    +0.000 C 
ATOM     10  C   UNL     1       1.903   1.352  -0.239  0.00  0.00    +0.008 C 
ATOM     11  C   UNL     1      -3.490   1.735   0.151  0.00  0.00    +0.002 C 
ATOM     12  C   UNL     1      -0.440   2.296  -0.130  0.00  0.00    +0.000 C 
ATOM     13  C   UNL     1      -4.824   0.999  -0.073  0.00  0.00    +0.027 C 
ATOM     14  C   UNL     1       1.014   2.486   0.287  0.00  0.00    +0.000 C 
ATOM     15  C   UNL     1      -3.098  -0.809   1.754  0.00  0.00    +0.002 C 
ATOM     16  C   UNL     1       2.317  -1.109  -0.484  0.00  0.00    +0.032 C 
ATOM     17  C   UNL     1       1.549  -0.242   1.759  0.00  0.00    +0.000 C 
ATOM     18  C   UNL     1       3.373   1.625   0.099  0.00  0.00    +0.069 C 
ATOM     19  C   UNL     1      -4.640  -0.796  -1.853  0.00  0.00    +0.029 C 
ATOM     20  C   UNL     1       3.787  -0.875  -0.279  0.00  0.00    +0.049 C 
ATOM     21  C   UNL     1       4.293   0.522  -0.379  0.00  0.00    +0.172 C 
ATOM     22  C   UNL     1       4.665  -1.843   0.013  0.00  0.00    +0.166 C 
ENDROOT
BRANCH   7  23
ATOM     23  O   UNL     1      -5.405  -1.321   0.333  0.00  0.00    -0.387 OA
ATOM     24  H   UNL     1      -5.337  -1.158   1.286  0.00  0.00    +0.210 HD
ENDBRANCH   7  23
BRANCH  22  25
ATOM     25  O   UNL     1       5.998  -1.646   0.229  0.00  0.00    -0.503 OA
ATOM     26  H   UNL     1       6.553  -2.374   0.430  0.00  0.00    +0.292 HD
ENDBRANCH  22  25
TORSDOF 2
