REMARK  Name = 472335
REMARK  3 active torsions:
REMARK  status: ('A' for Active; 'I' for Inactive)
REMARK    1  A    between atoms: C_6  and  O_27
REMARK    2  A    between atoms: C_6  and  C_29
REMARK    3  A    between atoms: C_20  and  N_26
REMARK                            x       y       z     vdW  Elec       q    Type
REMARK                         _______ _______ _______ _____ _____    ______ ____
ROOT
ATOM      1  O   UNL     1      -5.454  -0.994   0.409  0.00  0.00    -0.442 OA
ATOM      2  O   UNL     1      -2.019  -3.398  -0.174  0.00  0.00    -0.270 OA
ATOM      3  O   UNL     1      -6.176   0.984   1.185  0.00  0.00    -0.247 OA
ATOM      4  N   UNL     1      -0.638  -1.547  -0.064  0.00  0.00    -0.249 N 
ATOM      5  N   UNL     1       1.497   1.346   0.061  0.00  0.00    -0.405 NA
ATOM      6  C   UNL     1      -4.067   0.996   0.010  0.00  0.00    +0.196 C 
ATOM      7  C   UNL     1      -2.875   0.080   0.008  0.00  0.00    +0.017 C 
ATOM      8  C   UNL     1      -0.484  -0.172  -0.003  0.00  0.00    +0.084 C 
ATOM      9  C   UNL     1      -3.052  -1.252  -0.066  0.00  0.00    +0.074 C 
ATOM     10  C   UNL     1       0.673  -2.227  -0.092  0.00  0.00    +0.128 C 
ATOM     11  C   UNL     1      -1.536   0.650   0.028  0.00  0.00    +0.016 C 
ATOM     12  C   UNL     1       1.626  -1.078  -0.042  0.00  0.00    +0.029 C 
ATOM     13  C   UNL     1       0.941   0.128   0.009  0.00  0.00    +0.142 C 
ATOM     14  C   UNL     1      -1.867  -2.181  -0.105  0.00  0.00    +0.252 C 
ATOM     15  C   UNL     1      -4.417  -1.847  -0.124  0.00  0.00    +0.239 C 
ATOM     16  C   UNL     1      -5.309   0.338   0.600  0.00  0.00    +0.346 C 
ATOM     17  C   UNL     1       3.000  -1.051  -0.040  0.00  0.00    +0.004 C 
ATOM     18  C   UNL     1       3.639   0.199   0.016  0.00  0.00    +0.048 C 
ATOM     19  C   UNL     1       2.845   1.379   0.065  0.00  0.00    +0.115 C 
ATOM     20  C   UNL     1       5.040   0.292   0.023  0.00  0.00    +0.145 C 
ATOM     21  C   UNL     1       3.501   2.604   0.121  0.00  0.00    +0.085 C 
ATOM     22  C   UNL     1       5.665   1.534   0.078  0.00  0.00    +0.020 C 
ATOM     23  C   UNL     1       4.895   2.690   0.128  0.00  0.00    -0.017 C 
ENDROOT
BRANCH  20  26
ATOM     24  O   UNL     1       7.121  -0.702  -0.018  0.00  0.00    -0.126 OA
ATOM     25  O   UNL     1       5.346  -1.992  -0.077  0.00  0.00    -0.126 OA
ATOM     26  N   UNL     1       5.879  -0.860  -0.027  0.00  0.00    +0.058 N 
ENDBRANCH  20  26
BRANCH   6  27
ATOM     27  O   UNL     1      -3.815   2.114   0.865  0.00  0.00    -0.373 OA
ATOM     28  H   UNL     1      -3.030   2.590   0.552  0.00  0.00    +0.211 HD
ENDBRANCH   6  27
BRANCH   6  29
ATOM     29  C   UNL     1      -4.388   1.509  -1.396  0.00  0.00    +0.042 C 
ATOM     30  C   UNL     1      -5.570   2.457  -1.379  0.00  0.00    +0.003 C 
ENDBRANCH   6  29
TORSDOF 3
