REMARK  Name = 24995524
REMARK  4 active torsions:
REMARK  status: ('A' for Active; 'I' for Inactive)
REMARK    1  A    between atoms: N_5  and  C_13
REMARK    2  A    between atoms: C_6  and  C_19
REMARK    3  A    between atoms: C_19  and  C_20
REMARK    4  A    between atoms: C_20  and  N_22
REMARK                            x       y       z     vdW  Elec       q    Type
REMARK                         _______ _______ _______ _____ _____    ______ ____
ROOT
ATOM      1  S   UNL     1       0.561  -1.656   1.564  0.00  0.00    -0.056 S 
ATOM      2  O   UNL     1      -3.179  -1.463  -1.224  0.00  0.00    -0.252 OA
ATOM      3  N   UNL     1      -0.431  -2.527  -0.658  0.00  0.00    -0.223 NA
ATOM      4  N   UNL     1      -1.803  -1.021   0.628  0.00  0.00    -0.248 N 
ATOM      5  N   UNL     1      -3.912  -0.030   0.473  0.00  0.00    -0.268 N 
ATOM      6  C   UNL     1       1.514  -2.730   0.626  0.00  0.00    +0.031 C 
ATOM      7  C   UNL     1       0.825  -3.084  -0.515  0.00  0.00    +0.103 C 
ATOM      8  C   UNL     1      -0.676  -1.757   0.379  0.00  0.00    +0.166 C 
ATOM      9  C   UNL     1      -2.997  -0.892  -0.154  0.00  0.00    +0.310 C 
ATOM     10  H   UNL     1      -1.792  -0.506   1.467  0.00  0.00    +0.158 HD
ATOM     11  H   UNL     1      -3.623   0.355   1.332  0.00  0.00    +0.156 HD
ENDROOT
BRANCH   5  13
ATOM     12 CL   UNL     1      -8.200   2.677   1.279  0.00  0.00    -0.082 Cl
ATOM     13  C   UNL     1      -5.197   0.352   0.022  0.00  0.00    +0.052 C 
ATOM     14  C   UNL     1      -5.973   1.225   0.784  0.00  0.00    +0.026 C 
ATOM     15  C   UNL     1      -5.688  -0.145  -1.186  0.00  0.00    +0.015 C 
ATOM     16  C   UNL     1      -7.241   1.600   0.338  0.00  0.00    +0.059 C 
ATOM     17  C   UNL     1      -6.955   0.230  -1.631  0.00  0.00    +0.002 C 
ATOM     18  C   UNL     1      -7.731   1.103  -0.869  0.00  0.00    +0.011 C 
ENDBRANCH   5  13
BRANCH   6  19
ATOM     19  C   UNL     1       2.888  -3.145   1.093  0.00  0.00    +0.056 C 
BRANCH  19  20
ATOM     20  C   UNL     1       4.014  -2.394   0.384  0.00  0.00    +0.093 C 
BRANCH  20  22
ATOM     21  S   UNL     1       3.416   2.149   1.121  0.00  0.00    -0.101 S 
ATOM     22  N   UNL     1       3.884  -0.980   0.571  0.00  0.00    -0.320 N 
ATOM     23  N   UNL     1       5.758  -0.480  -0.807  0.00  0.00    -0.233 NA
ATOM     24  N   UNL     1       6.497   1.788  -1.218  0.00  0.00    -0.247 NA
ATOM     25  C   UNL     1       4.752  -0.045  -0.023  0.00  0.00    +0.118 C 
ATOM     26  C   UNL     1       4.591   1.320   0.184  0.00  0.00    +0.145 C 
ATOM     27  C   UNL     1       5.476   2.210  -0.424  0.00  0.00    +0.073 C 
ATOM     28  C   UNL     1       5.169   3.567  -0.107  0.00  0.00    +0.022 C 
ATOM     29  C   UNL     1       4.075   3.674   0.722  0.00  0.00    +0.033 C 
ATOM     30  C   UNL     1       6.561   0.453  -1.351  0.00  0.00    +0.251 C 
ATOM     31  H   UNL     1       3.154  -0.647   1.142  0.00  0.00    +0.148 HD
ENDBRANCH  20  22
ENDBRANCH  19  20
ENDBRANCH   6  19
TORSDOF 4
