REMARK  Name = 3035016
REMARK  8 active torsions:
REMARK  status: ('A' for Active; 'I' for Inactive)
REMARK    1  A    between atoms: C_3  and  N_21
REMARK    2  A    between atoms: C_3  and  C_26
REMARK    3  A    between atoms: C_5  and  O_32
REMARK    4  A    between atoms: C_9  and  O_28
REMARK    5  A    between atoms: C_10  and  O_30
REMARK    6  A    between atoms: O_32  and  C_34
REMARK    7  A    between atoms: C_36  and  O_39
REMARK    8  A    between atoms: C_37  and  O_41
REMARK                            x       y       z     vdW  Elec       q    Type
REMARK                         _______ _______ _______ _____ _____    ______ ____
ROOT
ATOM      1  O   UNL     1       2.119   2.576   1.001  0.00  0.00    -0.286 OA
ATOM      2  O   UNL     1       4.421  -1.783  -1.059  0.00  0.00    -0.286 OA
ATOM      3  C   UNL     1      -1.941  -3.113  -0.242  0.00  0.00    +0.011 C 
ATOM      4  C   UNL     1      -2.628  -1.755  -0.392  0.00  0.00    +0.022 C 
ATOM      5  C   UNL     1      -1.842  -0.632   0.295  0.00  0.00    +0.141 C 
ATOM      6  C   UNL     1      -0.537  -3.067  -0.860  0.00  0.00    +0.016 C 
ATOM      7  C   UNL     1      -0.354  -0.683   0.034  0.00  0.00    +0.037 A 
ATOM      8  C   UNL     1       0.261  -1.840  -0.476  0.00  0.00    +0.011 A 
ATOM      9  C   UNL     1       0.448   0.423   0.372  0.00  0.00    +0.135 A 
ATOM     10  C   UNL     1       1.651  -1.854  -0.685  0.00  0.00    +0.133 A 
ATOM     11  C   UNL     1       1.833   0.396   0.171  0.00  0.00    +0.078 A 
ATOM     12  C   UNL     1       2.434  -0.741  -0.362  0.00  0.00    +0.078 A 
ATOM     13  C   UNL     1       2.646   1.577   0.528  0.00  0.00    +0.199 C 
ATOM     14  C   UNL     1       3.893  -0.784  -0.587  0.00  0.00    +0.199 C 
ATOM     15  C   UNL     1       4.106   1.536   0.305  0.00  0.00    +0.042 C 
ATOM     16  C   UNL     1       4.708   0.397  -0.234  0.00  0.00    +0.042 C 
ATOM     17  C   UNL     1       4.888   2.649   0.636  0.00  0.00    +0.003 C 
ATOM     18  C   UNL     1       6.092   0.370  -0.442  0.00  0.00    +0.003 C 
ATOM     19  C   UNL     1       6.267   2.618   0.428  0.00  0.00    +0.000 C 
ATOM     20  C   UNL     1       6.868   1.481  -0.110  0.00  0.00    +0.000 C 
ENDROOT
BRANCH   3  21
ATOM     21  N   UNL     1      -2.732  -4.143  -0.919  0.00  0.00    +0.388 N 
ATOM     22  H   UNL     1      -2.808  -3.916  -1.911  0.00  0.00    -0.089 HD
ATOM     23  H   UNL     1      -3.664  -4.182  -0.506  0.00  0.00    -0.089 HD
ATOM     24  H   UNL     1      -2.274  -5.048  -0.812  0.00  0.00    -0.089 HD
ENDBRANCH   3  21
BRANCH   3  26
ATOM     25  O   UNL     1      -0.820  -3.792   1.761  0.00  0.00    -0.298 OA
ATOM     26  C   UNL     1      -1.886  -3.534   1.205  0.00  0.00    +0.133 C 
ATOM     27  C   UNL     1      -3.199  -3.621   1.935  0.00  0.00    +0.070 C 
ENDBRANCH   3  26
BRANCH   9  28
ATOM     28  O   UNL     1      -0.150   1.514   0.941  0.00  0.00    -0.506 OA
ATOM     29  H   UNL     1      -1.078   1.524   1.073  0.00  0.00    +0.292 HD
ENDBRANCH   9  28
BRANCH  10  30
ATOM     30  O   UNL     1       2.212  -2.980  -1.220  0.00  0.00    -0.506 OA
ATOM     31  H   UNL     1       1.673  -3.717  -1.431  0.00  0.00    +0.292 HD
ENDBRANCH  10  30
BRANCH   5  32
ATOM     32  O   UNL     1      -2.373   0.616  -0.151  0.00  0.00    -0.328 OA
BRANCH  32  34
ATOM     33  O   UNL     1      -4.713   0.508   0.220  0.00  0.00    -0.328 OA
ATOM     34  C   UNL     1      -3.462   1.035   0.667  0.00  0.00    +0.238 C 
ATOM     35  C   UNL     1      -3.501   2.561   0.726  0.00  0.00    +0.093 C 
ATOM     36  C   UNL     1      -3.939   3.144  -0.617  0.00  0.00    +0.145 C 
ATOM     37  C   UNL     1      -5.243   2.502  -1.085  0.00  0.00    +0.167 C 
ATOM     38  C   UNL     1      -5.117   0.982  -1.069  0.00  0.00    +0.176 C 
BRANCH  36  39
ATOM     39  O   UNL     1      -4.108   4.553  -0.511  0.00  0.00    -0.382 OA
ATOM     40  H   UNL     1      -3.278   4.957  -0.214  0.00  0.00    +0.210 HD
ENDBRANCH  36  39
BRANCH  37  41
ATOM     41  O   UNL     1      -6.301   2.883  -0.204  0.00  0.00    -0.379 OA
ATOM     42  H   UNL     1      -6.391   3.849  -0.206  0.00  0.00    +0.211 HD
ENDBRANCH  37  41
ENDBRANCH  32  34
ENDBRANCH   5  32
TORSDOF 8
