REMARK  Name = 25022868
REMARK  5 active torsions:
REMARK  status: ('A' for Active; 'I' for Inactive)
REMARK    1  A    between atoms: C_2  and  C_11
REMARK    2  A    between atoms: C_3  and  C_19
REMARK    3  A    between atoms: C_10  and  O_27
REMARK    4  A    between atoms: C_16  and  O_17
REMARK    5  A    between atoms: C_24  and  O_25
REMARK                            x       y       z     vdW  Elec       q    Type
REMARK                         _______ _______ _______ _____ _____    ______ ____
ROOT
ATOM      1  O   UNL     1       2.212  -1.934   1.349  0.00  0.00    -0.475 OA
ATOM      2  C   UNL     1       0.685  -0.423  -0.695  0.00  0.00    +0.055 C 
ATOM      3  C   UNL     1       0.155  -1.698   0.019  0.00  0.00    +0.074 C 
ATOM      4  C   UNL     1       2.186  -0.318  -0.491  0.00  0.00    +0.016 C 
ATOM      5  C   UNL     1       0.787  -1.820   1.411  0.00  0.00    +0.210 C 
ATOM      6  C   UNL     1       2.841  -1.058   0.504  0.00  0.00    +0.138 C 
ATOM      7  C   UNL     1       2.944   0.529  -1.316  0.00  0.00    +0.002 C 
ATOM      8  C   UNL     1       4.227  -0.960   0.656  0.00  0.00    +0.073 C 
ATOM      9  C   UNL     1       4.326   0.632  -1.153  0.00  0.00    +0.037 C 
ATOM     10  C   UNL     1       4.967  -0.114  -0.168  0.00  0.00    +0.137 C 
ENDROOT
BRANCH   2  11
ATOM     11  C   UNL     1      -0.057   0.863  -0.338  0.00  0.00    -0.018 C 
ATOM     12  C   UNL     1      -1.205   1.226  -1.042  0.00  0.00    -0.001 C 
ATOM     13  C   UNL     1       0.415   1.677   0.693  0.00  0.00    -0.001 C 
ATOM     14  C   UNL     1      -1.881   2.402  -0.716  0.00  0.00    +0.037 C 
ATOM     15  C   UNL     1      -0.260   2.853   1.019  0.00  0.00    +0.037 C 
ATOM     16  C   UNL     1      -1.408   3.215   0.314  0.00  0.00    +0.139 C 
BRANCH  16  17
ATOM     17  O   UNL     1      -2.068   4.362   0.632  0.00  0.00    -0.471 OA
ATOM     18  C   UNL     1      -3.235   4.672  -0.128  0.00  0.00    +0.252 C 
ENDBRANCH  16  17
ENDBRANCH   2  11
BRANCH   3  19
ATOM     19  C   UNL     1      -1.355  -1.843  -0.025  0.00  0.00    -0.018 C 
ATOM     20  C   UNL     1      -1.968  -2.429  -1.133  0.00  0.00    -0.001 C 
ATOM     21  C   UNL     1      -2.131  -1.389   1.042  0.00  0.00    -0.001 C 
ATOM     22  C   UNL     1      -3.356  -2.561  -1.173  0.00  0.00    +0.036 C 
ATOM     23  C   UNL     1      -3.519  -1.521   1.001  0.00  0.00    +0.036 C 
ATOM     24  C   UNL     1      -4.131  -2.107  -0.106  0.00  0.00    +0.134 C 
BRANCH  24  25
ATOM     25  O   UNL     1      -5.486  -2.237  -0.146  0.00  0.00    -0.506 OA
ATOM     26  H   UNL     1      -5.897  -2.630  -0.890  0.00  0.00    +0.292 HD
ENDBRANCH  24  25
ENDBRANCH   3  19
BRANCH  10  27
ATOM     27  O   UNL     1       6.316  -0.019  -0.010  0.00  0.00    -0.505 OA
ATOM     28  H   UNL     1       6.746  -0.521   0.653  0.00  0.00    +0.292 HD
ENDBRANCH  10  27
TORSDOF 5
