REMARK  Name = 4369426
REMARK  11 active torsions:
REMARK  status: ('A' for Active; 'I' for Inactive)
REMARK    1  A    between atoms: O_1  and  P_2
REMARK    2  A    between atoms: O_1  and  C_12
REMARK    3  A    between atoms: P_2  and  O_4
REMARK    4  A    between atoms: P_2  and  C_6
REMARK    5  A    between atoms: C_6  and  C_7
REMARK    6  A    between atoms: C_7  and  C_8
REMARK    7  A    between atoms: C_8  and  C_9
REMARK    8  A    between atoms: C_9  and  C_10
REMARK    9  A    between atoms: C_12  and  C_13
REMARK   10  A    between atoms: C_13  and  C_15
REMARK   11  A    between atoms: C_15  and  C_16
REMARK                            x       y       z     vdW  Elec       q    Type
REMARK                         _______ _______ _______ _____ _____    ______ ____
ROOT
ATOM      1  O   UNL     1       0.016   0.390  -0.702  0.00  0.00    -0.294 OA
ENDROOT
BRANCH   1   2
ATOM      2  P   UNL     1      -0.660   1.826  -0.431  0.00  0.00    +0.340 P 
ATOM      3  O   UNL     1      -0.983   2.617  -1.653  0.00  0.00    -0.258 OA
BRANCH   2   4
ATOM      4  O   UNL     1       0.327   2.558   0.611  0.00  0.00    -0.323 OA
ATOM      5  H   UNL     1       1.153   2.797   0.161  0.00  0.00    +0.220 HD
ENDBRANCH   2   4
BRANCH   2   6
ATOM      6  C   UNL     1      -2.115   1.468   0.578  0.00  0.00    +0.116 C 
BRANCH   6   7
ATOM      7  C   UNL     1      -3.183   0.666  -0.153  0.00  0.00    +0.013 C 
BRANCH   7   8
ATOM      8  C   UNL     1      -4.373   0.331   0.748  0.00  0.00    +0.001 C 
BRANCH   8   9
ATOM      9  C   UNL     1      -5.443  -0.454  -0.014  0.00  0.00    +0.000 C 
BRANCH   9  10
ATOM     10  C   UNL     1      -6.646  -0.762   0.877  0.00  0.00    +0.000 C 
ATOM     11  C   UNL     1      -7.726  -1.512   0.114  0.00  0.00    +0.000 C 
ENDBRANCH   9  10
ENDBRANCH   8   9
ENDBRANCH   7   8
ENDBRANCH   6   7
ENDBRANCH   2   6
ENDBRANCH   1   2
BRANCH   1  12
ATOM     12  C   UNL     1       0.466  -0.429   0.362  0.00  0.00    +0.152 C 
BRANCH  12  13
ATOM     13  C   UNL     1       1.067  -1.739  -0.170  0.00  0.00    +0.035 C 
ATOM     14  C   UNL     1       0.017  -2.521  -0.968  0.00  0.00    +0.003 C 
BRANCH  13  15
ATOM     15  C   UNL     1       2.312  -1.513  -1.054  0.00  0.00    +0.029 C 
BRANCH  15  16
ATOM     16  C   UNL     1       3.443  -0.807  -0.346  0.00  0.00    -0.022 C 
ATOM     17  C   UNL     1       3.520   0.586  -0.371  0.00  0.00    -0.004 C 
ATOM     18  C   UNL     1       4.410  -1.547   0.335  0.00  0.00    -0.004 C 
ATOM     19  C   UNL     1       4.565   1.238   0.284  0.00  0.00    -0.000 C 
ATOM     20  C   UNL     1       5.454  -0.894   0.990  0.00  0.00    -0.000 C 
ATOM     21  C   UNL     1       5.532   0.498   0.964  0.00  0.00    -0.000 C 
ENDBRANCH  15  16
ENDBRANCH  13  15
ENDBRANCH  12  13
ENDBRANCH   1  12
TORSDOF 11
