REMARK  Name = 151075
REMARK  5 active torsions:
REMARK  status: ('A' for Active; 'I' for Inactive)
REMARK    1  A    between atoms: C_1  and  C_18
REMARK    2  A    between atoms: C_2  and  N_7
REMARK    3  A    between atoms: C_3  and  C_11
REMARK    4  A    between atoms: C_11  and  C_12
REMARK    5  A    between atoms: C_18  and  C_21
REMARK                            x       y       z     vdW  Elec       q    Type
REMARK                         _______ _______ _______ _____ _____    ______ ____
ROOT
ATOM      1  C   UNL     1       2.276  -0.639  -0.063  0.00  0.00    -0.000 C 
ATOM      2  C   UNL     1       1.002  -0.533  -0.620  0.00  0.00    +0.041 C 
ATOM      3  C   UNL     1      -0.035  -1.222  -0.033  0.00  0.00    +0.052 C 
ATOM      4  C   UNL     1       2.480  -1.431   1.067  0.00  0.00    -0.003 C 
ATOM      5  C   UNL     1       0.135  -2.012   1.083  0.00  0.00    +0.004 C 
ATOM      6  C   UNL     1       1.410  -2.118   1.640  0.00  0.00    -0.000 C 
ENDROOT
BRANCH   2   7
ATOM      7  N   UNL     1       0.797   0.272  -1.765  0.00  0.00    -0.357 N 
ATOM      8  H   UNL     1       1.554   0.755  -2.168  0.00  0.00    +0.142 HD
ATOM      9  H   UNL     1      -0.101   0.348  -2.159  0.00  0.00    +0.142 HD
ENDBRANCH   2   7
BRANCH   3  11
ATOM     10  O   UNL     1      -1.728  -1.965  -1.465  0.00  0.00    -0.287 OA
ATOM     11  C   UNL     1      -1.413  -1.132  -0.603  0.00  0.00    +0.197 C 
BRANCH  11  12
ATOM     12  C   UNL     1      -2.366  -0.118  -0.180  0.00  0.00    +0.039 C 
ATOM     13  C   UNL     1      -2.006   0.817   0.790  0.00  0.00    +0.003 C 
ATOM     14  C   UNL     1      -3.641  -0.081  -0.746  0.00  0.00    +0.003 C 
ATOM     15  C   UNL     1      -2.921   1.789   1.195  0.00  0.00    +0.000 C 
ATOM     16  C   UNL     1      -4.555   0.892  -0.341  0.00  0.00    +0.000 C 
ATOM     17  C   UNL     1      -4.195   1.827   0.630  0.00  0.00    +0.000 C 
ENDBRANCH  11  12
ENDBRANCH   3  11
BRANCH   1  18
ATOM     18  C   UNL     1       3.442   0.085  -0.654  0.00  0.00    +0.112 C 
BRANCH  18  21
ATOM     19  O   UNL     1       2.973   1.949   0.827  0.00  0.00    -0.275 OA
ATOM     20  N   UNL     1       4.694   2.147  -0.683  0.00  0.00    -0.329 N 
ATOM     21  C   UNL     1       3.652   1.475  -0.080  0.00  0.00    +0.224 C 
ATOM     22  H   UNL     1       4.925   3.059  -0.394  0.00  0.00    +0.145 HD
ATOM     23  H   UNL     1       5.207   1.714  -1.404  0.00  0.00    +0.145 HD
ENDBRANCH  18  21
ENDBRANCH   1  18
TORSDOF 5
