REMARK  Name = 5745207
REMARK  7 active torsions:
REMARK  status: ('A' for Active; 'I' for Inactive)
REMARK    1  A    between atoms: C_1  and  C_16
REMARK    2  A    between atoms: C_4  and  O_7
REMARK    3  A    between atoms: O_7  and  C_8
REMARK    4  A    between atoms: C_8  and  C_10
REMARK    5  A    between atoms: C_16  and  N_17
REMARK    6  A    between atoms: N_17  and  C_20
REMARK    7  A    between atoms: C_20  and  C_24
REMARK                            x       y       z     vdW  Elec       q    Type
REMARK                         _______ _______ _______ _____ _____    ______ ____
ROOT
ATOM      1  C   UNL     1      -2.069  -0.238   0.618  0.00  0.00    -0.044 C 
ATOM      2  C   UNL     1      -1.411   0.213   1.754  0.00  0.00    -0.003 C 
ATOM      3  C   UNL     1      -1.366  -0.533  -0.543  0.00  0.00    -0.003 C 
ATOM      4  C   UNL     1       0.689   0.080   0.568  0.00  0.00    +0.139 C 
ATOM      5  C   UNL     1      -0.026   0.373   1.730  0.00  0.00    +0.037 C 
ATOM      6  C   UNL     1       0.019  -0.373  -0.568  0.00  0.00    +0.037 C 
ENDROOT
BRANCH   4   7
ATOM      7  O   UNL     1       2.041   0.236   0.545  0.00  0.00    -0.471 OA
BRANCH   7   8
ATOM      8  C   UNL     1       2.711  -0.082  -0.674  0.00  0.00    +0.234 C 
BRANCH   8  10
ATOM      9  F   UNL     1       4.441  -2.127   0.225  0.00  0.00    -0.204 F 
ATOM     10  C   UNL     1       4.186   0.122  -0.490  0.00  0.00    +0.049 C 
ATOM     11  C   UNL     1       4.979  -0.929  -0.045  0.00  0.00    +0.140 C 
ATOM     12  C   UNL     1       4.746   1.364  -0.768  0.00  0.00    +0.002 C 
ATOM     13  C   UNL     1       6.350  -0.736   0.125  0.00  0.00    +0.029 C 
ATOM     14  C   UNL     1       6.117   1.557  -0.598  0.00  0.00    -0.000 C 
ATOM     15  C   UNL     1       6.919   0.507  -0.151  0.00  0.00    +0.002 C 
ENDBRANCH   8  10
ENDBRANCH   7   8
ENDBRANCH   4   7
BRANCH   1  16
ATOM     16  C   UNL     1      -3.563  -0.410   0.644  0.00  0.00    -0.054 C 
BRANCH  16  17
ATOM     17  N   UNL     1      -4.225   0.819   0.231  0.00  0.00    +0.393 N 
ATOM     18  H   UNL     1      -3.927   1.057  -0.714  0.00  0.00    -0.083 HD
ATOM     19  H   UNL     1      -3.970   1.562   0.882  0.00  0.00    -0.083 HD
BRANCH  17  20
ATOM     20  C   UNL     1      -5.676   0.657   0.250  0.00  0.00    +0.017 C 
ATOM     21  C   UNL     1      -6.357   1.952  -0.176  0.00  0.00    -0.014 C 
BRANCH  20  24
ATOM     22  O   UNL     1      -5.812  -0.451  -1.910  0.00  0.00    -0.278 OA
ATOM     23  N   UNL     1      -6.653  -1.530  -0.067  0.00  0.00    -0.330 N 
ATOM     24  C   UNL     1      -6.043  -0.470  -0.703  0.00  0.00    +0.199 C 
ATOM     25  H   UNL     1      -6.936  -2.319  -0.584  0.00  0.00    +0.145 HD
ATOM     26  H   UNL     1      -6.807  -1.499   0.905  0.00  0.00    +0.145 HD
ENDBRANCH  20  24
ENDBRANCH  17  20
ENDBRANCH  16  17
ENDBRANCH   1  16
TORSDOF 7
