REMARK  Name = 3085218
REMARK  0 active torsions:
REMARK  status: ('A' for Active; 'I' for Inactive)
REMARK                            x       y       z     vdW  Elec       q    Type
REMARK                         _______ _______ _______ _____ _____    ______ ____
ROOT
ATOM      1  N   UNL     1       0.454   1.187   0.021  0.00  0.00    -0.296 N 
ATOM      2  N   UNL     1       3.303   1.076   0.080  0.00  0.00    +0.388 N 
ATOM      3  N   UNL     1      -1.472   2.347   0.858  0.00  0.00    -0.229 NA
ATOM      4  C   UNL     1       1.114  -0.053   0.491  0.00  0.00    +0.076 C 
ATOM      5  C   UNL     1       2.510  -0.136  -0.178  0.00  0.00    -0.053 C 
ATOM      6  C   UNL     1       1.235   2.414   0.213  0.00  0.00    +0.070 C 
ATOM      7  C   UNL     1       2.610   2.260  -0.438  0.00  0.00    -0.056 C 
ATOM      8  C   UNL     1       0.406  -1.396   0.306  0.00  0.00    -0.010 C 
ATOM      9  C   UNL     1      -0.936   1.348   0.103  0.00  0.00    +0.128 C 
ATOM     10  C   UNL     1      -0.592  -1.661  -0.650  0.00  0.00    -0.020 C 
ATOM     11  C   UNL     1      -1.156  -0.570  -1.517  0.00  0.00    +0.055 C 
ATOM     12  C   UNL     1      -1.761   0.511  -0.663  0.00  0.00    +0.014 C 
ATOM     13  C   UNL     1       4.632   0.958  -0.518  0.00  0.00    -0.101 C 
ATOM     14  C   UNL     1       0.827  -2.458   1.135  0.00  0.00    -0.003 C 
ATOM     15  C   UNL     1      -1.125  -2.959  -0.766  0.00  0.00    -0.004 C 
ATOM     16  C   UNL     1      -3.148   0.686  -0.609  0.00  0.00    +0.000 C 
ATOM     17  C   UNL     1       0.289  -3.740   1.014  0.00  0.00    -0.000 C 
ATOM     18  C   UNL     1      -0.685  -3.991   0.059  0.00  0.00    -0.000 C 
ATOM     19  C   UNL     1      -3.691   1.690   0.177  0.00  0.00    +0.020 C 
ATOM     20  C   UNL     1      -2.816   2.489   0.883  0.00  0.00    +0.100 C 
ATOM     21  H   UNL     1       3.413   1.180   1.089  0.00  0.00    -0.080 HD
ENDROOT
TORSDOF 0
