REMARK  Name = 16040268
REMARK  5 active torsions:
REMARK  status: ('A' for Active; 'I' for Inactive)
REMARK    1  A    between atoms: C_3  and  C_20
REMARK    2  A    between atoms: C_7  and  C_19
REMARK    3  A    between atoms: C_9  and  C_12
REMARK    4  A    between atoms: C_20  and  C_21
REMARK    5  A    between atoms: C_26  and  C_28
REMARK                            x       y       z     vdW  Elec       q    Type
REMARK                         _______ _______ _______ _____ _____    ______ ____
ROOT
ATOM      1  O   UNL     1       0.308   0.809  -2.553  0.00  0.00    -0.270 OA
ATOM      2  N   UNL     1      -0.989   2.002  -1.006  0.00  0.00    -0.275 N 
ATOM      3  C   UNL     1      -0.998   2.235   0.418  0.00  0.00    +0.093 C 
ATOM      4  C   UNL     1      -0.963   3.766   0.478  0.00  0.00    +0.025 C 
ATOM      5  C   UNL     1      -1.825   4.176  -0.728  0.00  0.00    +0.024 C 
ATOM      6  C   UNL     1      -1.540   3.100  -1.778  0.00  0.00    +0.094 C 
ATOM      7  C   UNL     1       0.239   1.483   0.825  0.00  0.00    +0.067 C 
ATOM      8  C   UNL     1       0.020   1.150  -1.418  0.00  0.00    +0.250 C 
ATOM      9  C   UNL     1       0.792   0.792  -0.192  0.00  0.00    +0.061 C 
ENDROOT
BRANCH   9  12
ATOM     10 CL   UNL     1       5.923   0.369  -0.789  0.00  0.00    -0.082 Cl
ATOM     11 CL   UNL     1       2.877  -3.907   0.463  0.00  0.00    -0.082 Cl
ATOM     12  C   UNL     1       1.985  -0.054  -0.182  0.00  0.00    +0.006 C 
ATOM     13  C   UNL     1       1.879  -1.421   0.103  0.00  0.00    +0.012 C 
ATOM     14  C   UNL     1       3.243   0.493  -0.458  0.00  0.00    +0.012 C 
ATOM     15  C   UNL     1       4.380  -0.314  -0.449  0.00  0.00    +0.059 C 
ATOM     16  C   UNL     1       3.017  -2.228   0.112  0.00  0.00    +0.059 C 
ATOM     17  C   UNL     1       4.267  -1.675  -0.164  0.00  0.00    +0.023 C 
ENDBRANCH   9  12
BRANCH   7  19
ATOM     18  N   UNL     1       1.161   1.518   3.235  0.00  0.00    -0.191 NA
ATOM     19  C   UNL     1       0.747   1.502   2.152  0.00  0.00    +0.098 C 
ENDBRANCH   7  19
BRANCH   3  20
ATOM     20  C   UNL     1      -2.256   1.645   1.067  0.00  0.00    +0.049 C 
BRANCH  20  21
ATOM     21  C   UNL     1      -2.467   0.216   0.683  0.00  0.00    -0.020 C 
ATOM     22  C   UNL     1      -3.221  -0.097  -0.447  0.00  0.00    -0.004 C 
ATOM     23  C   UNL     1      -1.910  -0.800   1.457  0.00  0.00    -0.004 C 
ATOM     24  C   UNL     1      -3.417  -1.431  -0.804  0.00  0.00    +0.010 C 
ATOM     25  C   UNL     1      -2.106  -2.134   1.099  0.00  0.00    +0.010 C 
ATOM     26  C   UNL     1      -2.860  -2.449  -0.031  0.00  0.00    +0.068 C 
BRANCH  26  28
ATOM     27  N   UNL     1      -3.226  -4.929  -0.695  0.00  0.00    -0.191 NA
ATOM     28  C   UNL     1      -3.062  -3.816  -0.397  0.00  0.00    +0.100 C 
ENDBRANCH  26  28
ENDBRANCH  20  21
ENDBRANCH   3  20
TORSDOF 5
