REMARK  Name = 66000
REMARK  8 active torsions:
REMARK  status: ('A' for Active; 'I' for Inactive)
REMARK    1  A    between atoms: C_1  and  O_19
REMARK    2  A    between atoms: C_4  and  C_7
REMARK    3  A    between atoms: C_10  and  C_15
REMARK    4  A    between atoms: O_19  and  C_20
REMARK    5  A    between atoms: C_20  and  C_24
REMARK    6  A    between atoms: C_23  and  C_28
REMARK    7  A    between atoms: C_28  and  C_30
REMARK    8  A    between atoms: C_30  and  O_31
REMARK                            x       y       z     vdW  Elec       q    Type
REMARK                         _______ _______ _______ _____ _____    ______ ____
ROOT
ATOM      1  C   UNL     1       0.380   1.428  -0.862  0.00  0.00    +0.139 C 
ATOM      2  C   UNL     1      -0.056   0.210  -1.370  0.00  0.00    +0.037 C 
ATOM      3  C   UNL     1      -0.476   2.241  -0.130  0.00  0.00    +0.037 C 
ATOM      4  C   UNL     1      -2.236   0.610  -0.410  0.00  0.00    +0.000 C 
ATOM      5  C   UNL     1      -1.369  -0.200  -1.143  0.00  0.00    +0.003 C 
ATOM      6  C   UNL     1      -1.790   1.831   0.096  0.00  0.00    +0.003 C 
ENDROOT
BRANCH   4   7
ATOM      7  C   UNL     1      -3.599   0.185  -0.175  0.00  0.00    +0.000 C 
ATOM      8  C   UNL     1      -4.248  -0.624  -1.108  0.00  0.00    +0.000 C 
ATOM      9  C   UNL     1      -4.264   0.583   0.985  0.00  0.00    +0.000 C 
ATOM     10  C   UNL     1      -6.226  -0.637   0.279  0.00  0.00    +0.031 C 
ATOM     11  C   UNL     1      -5.562  -1.035  -0.881  0.00  0.00    +0.003 C 
ATOM     12  C   UNL     1      -5.578   0.172   1.212  0.00  0.00    +0.003 C 
BRANCH  10  15
ATOM     13  N   UNL     1      -8.272  -1.872  -0.398  0.00  0.00    -0.343 N 
ATOM     14  N   UNL     1      -8.225  -0.683   1.613  0.00  0.00    -0.285 NA
ATOM     15  C   UNL     1      -7.596  -1.065   0.515  0.00  0.00    +0.117 C 
ATOM     16  H   UNL     1      -9.199  -2.149  -0.218  0.00  0.00    +0.144 HD
ATOM     17  H   UNL     1      -7.822  -2.164  -1.223  0.00  0.00    +0.144 HD
ATOM     18  H   UNL     1      -9.152  -0.971   1.775  0.00  0.00    +0.188 HD
ENDBRANCH  10  15
ENDBRANCH   4   7
BRANCH   1  19
ATOM     19  O   UNL     1       1.673   1.832  -1.086  0.00  0.00    -0.474 OA
BRANCH  19  20
ATOM     20  C   UNL     1       2.650   0.815  -1.221  0.00  0.00    +0.225 C 
BRANCH  20  24
ATOM     21  O   UNL     1       4.648   0.660   2.685  0.00  0.00    -0.275 OA
ATOM     22  N   UNL     1       3.941   1.649   0.685  0.00  0.00    -0.302 N 
ATOM     23  C   UNL     1       5.041  -0.410   0.523  0.00  0.00    +0.089 C 
ATOM     24  C   UNL     1       3.986   1.354  -0.727  0.00  0.00    +0.116 C 
ATOM     25  C   UNL     1       5.111   0.329  -0.818  0.00  0.00    +0.033 C 
ATOM     26  C   UNL     1       4.552   0.672   1.467  0.00  0.00    +0.223 C 
ATOM     27  H   UNL     1       3.522   2.458   1.057  0.00  0.00    +0.149 HD
BRANCH  23  28
ATOM     28  C   UNL     1       6.370  -1.006   0.947  0.00  0.00    +0.118 C 
BRANCH  28  30
ATOM     29  O   UNL     1       6.120  -2.812  -0.670  0.00  0.00    -0.250 OA
ATOM     30  C   UNL     1       6.835  -2.084   0.001  0.00  0.00    +0.314 C 
BRANCH  30  31
ATOM     31  O   UNL     1       8.192  -2.141  -0.010  0.00  0.00    -0.480 OA
ATOM     32  H   UNL     1       8.690  -1.556   0.526  0.00  0.00    +0.295 HD
ENDBRANCH  30  31
ENDBRANCH  28  30
ENDBRANCH  23  28
ENDBRANCH  20  24
ENDBRANCH  19  20
ENDBRANCH   1  19
TORSDOF 8
