REMARK  Name = 216236
REMARK  5 active torsions:
REMARK  status: ('A' for Active; 'I' for Inactive)
REMARK    1  A    between atoms: N_2  and  C_6
REMARK    2  A    between atoms: C_3  and  C_16
REMARK    3  A    between atoms: C_7  and  O_13
REMARK    4  A    between atoms: C_17  and  O_25
REMARK    5  A    between atoms: C_21  and  N_22
REMARK                            x       y       z     vdW  Elec       q    Type
REMARK                         _______ _______ _______ _____ _____    ______ ____
ROOT
ATOM      1  O   UNL     1       0.123  -1.990  -1.610  0.00  0.00    -0.270 OA
ATOM      2  N   UNL     1      -1.012  -0.455  -0.294  0.00  0.00    -0.300 N 
ATOM      3  C   UNL     1       0.122  -1.039  -0.833  0.00  0.00    +0.249 C 
ATOM      4  H   UNL     1      -0.908   0.306   0.322  0.00  0.00    +0.150 HD
ENDROOT
BRANCH   2   6
ATOM      5  N   UNL     1      -4.221   1.345  -0.434  0.00  0.00    +0.385 N 
ATOM      6  C   UNL     1      -2.346  -0.923  -0.605  0.00  0.00    +0.095 C 
ATOM      7  C   UNL     1      -3.307  -0.723   0.575  0.00  0.00    +0.112 C 
ATOM      8  C   UNL     1      -2.898  -0.220  -1.849  0.00  0.00    -0.001 C 
ATOM      9  C   UNL     1      -3.654   0.753   0.779  0.00  0.00    -0.050 C 
ATOM     10  C   UNL     1      -3.291   1.233  -1.561  0.00  0.00    -0.080 C 
ATOM     11  H   UNL     1      -4.418   2.331  -0.262  0.00  0.00    -0.084 HD
ATOM     12  H   UNL     1      -5.076   0.843  -0.670  0.00  0.00    -0.084 HD
BRANCH   7  13
ATOM     13  O   UNL     1      -2.753  -1.248   1.776  0.00  0.00    -0.354 OA
ATOM     14  C   UNL     1      -3.668  -1.145   2.858  0.00  0.00    +0.174 C 
ENDBRANCH   7  13
ENDBRANCH   2   6
BRANCH   3  16
ATOM     15 CL   UNL     1       5.113  -1.817   0.131  0.00  0.00    -0.081 Cl
ATOM     16  C   UNL     1       1.417  -0.459  -0.394  0.00  0.00    +0.088 C 
ATOM     17  C   UNL     1       1.491   0.876  -0.052  0.00  0.00    +0.144 C 
ATOM     18  C   UNL     1       2.518  -1.292  -0.343  0.00  0.00    +0.020 C 
ATOM     19  C   UNL     1       2.716   1.401   0.359  0.00  0.00    +0.052 C 
ATOM     20  C   UNL     1       3.743  -0.766   0.068  0.00  0.00    +0.071 C 
ATOM     21  C   UNL     1       3.842   0.581   0.418  0.00  0.00    +0.055 C 
BRANCH  21  22
ATOM     22  N   UNL     1       5.069   1.142   0.839  0.00  0.00    -0.356 N 
ATOM     23  H   UNL     1       5.117   2.095   1.082  0.00  0.00    +0.142 HD
ATOM     24  H   UNL     1       5.876   0.580   0.888  0.00  0.00    +0.142 HD
ENDBRANCH  21  22
BRANCH  17  25
ATOM     25  O   UNL     1       0.401   1.693  -0.102  0.00  0.00    -0.471 OA
ATOM     26  C   UNL     1       0.596   3.055   0.274  0.00  0.00    +0.252 C 
ENDBRANCH  17  25
ENDBRANCH   3  16
TORSDOF 5
