REMARK  Name = 25246329
REMARK  6 active torsions:
REMARK  status: ('A' for Active; 'I' for Inactive)
REMARK    1  A    between atoms: C_2  and  C_9
REMARK    2  A    between atoms: C_3  and  C_20
REMARK    3  A    between atoms: CA_4  and  C_30
REMARK    4  A    between atoms: CA_5  and  C_34
REMARK    5  A    between atoms: C_30  and  O_31
REMARK    6  A    between atoms: C_34  and  O_35
REMARK                            x       y       z     vdW  Elec       q    Type
REMARK                         _______ _______ _______ _____ _____    ______ ____
ROOT
ATOM      1  N   UNL     1       0.013  -3.392  -0.292  0.00  0.00    -0.343 N 
ATOM      2  C   UNL     1       0.713  -1.386   0.351  0.00  0.00    +0.025 A 
ATOM      3  C   UNL     1      -0.704  -1.391   0.350  0.00  0.00    +0.025 A 
ATOM      4  CA  UNL     1       1.129  -2.636  -0.050  0.00  0.00    +0.133 A 
ATOM      5  CA  UNL     1      -1.110  -2.644  -0.052  0.00  0.00    +0.133 A 
ATOM      6  H   UNL     1       0.016  -4.330  -0.592  0.00  0.00    +0.166 HD
ENDROOT
BRANCH   2   9
ATOM      7 CL   UNL     1       4.351   3.838   0.926  0.00  0.00    -0.081 Cl
ATOM      8  N   UNL     1       2.772   1.191   1.861  0.00  0.00    -0.311 N 
ATOM      9  C   UNL     1       1.548  -0.260   0.711  0.00  0.00    +0.017 C 
ATOM     10  C   UNL     1       2.023   0.734  -0.190  0.00  0.00    +0.016 C 
ATOM     11  C   UNL     1       2.788   1.632   0.557  0.00  0.00    +0.059 C 
ATOM     12  C   UNL     1       2.025   0.048   1.964  0.00  0.00    +0.062 C 
ATOM     13  C   UNL     1       1.875   0.957  -1.573  0.00  0.00    +0.001 C 
ATOM     14  C   UNL     1       3.415   2.746  -0.012  0.00  0.00    +0.071 C 
ATOM     15  C   UNL     1       2.496   2.067  -2.156  0.00  0.00    +0.001 C 
ATOM     16  C   UNL     1       3.254   2.947  -1.386  0.00  0.00    +0.013 C 
ATOM     17  H   UNL     1       3.231   1.633   2.612  0.00  0.00    +0.152 HD
ENDBRANCH   2   9
BRANCH   3  20
ATOM     18 CL   UNL     1      -4.379   3.809   0.926  0.00  0.00    -0.081 Cl
ATOM     19  N   UNL     1      -2.784   1.172   1.861  0.00  0.00    -0.311 N 
ATOM     20  C   UNL     1      -1.548  -0.269   0.710  0.00  0.00    +0.017 C 
ATOM     21  C   UNL     1      -2.028   0.723  -0.190  0.00  0.00    +0.016 C 
ATOM     22  C   UNL     1      -2.801   1.615   0.557  0.00  0.00    +0.059 C 
ATOM     23  C   UNL     1      -2.030   0.034   1.963  0.00  0.00    +0.062 C 
ATOM     24  C   UNL     1      -1.879   0.949  -1.573  0.00  0.00    +0.001 C 
ATOM     25  C   UNL     1      -3.434   2.726  -0.012  0.00  0.00    +0.071 C 
ATOM     26  C   UNL     1      -2.507   2.055  -2.156  0.00  0.00    +0.001 C 
ATOM     27  C   UNL     1      -3.272   2.929  -1.385  0.00  0.00    +0.013 C 
ATOM     28  H   UNL     1      -3.247   1.610   2.611  0.00  0.00    +0.152 HD
ENDBRANCH   3  20
BRANCH   4  30
ATOM     29  OXT UNL     1       3.518  -2.497  -0.009  0.00  0.00    -0.243 OA
ATOM     30  C   UNL     1       2.461  -3.133  -0.212  0.00  0.00    +0.354 C 
BRANCH  30  31
ATOM     31  O   UNL     1       2.508  -4.438  -0.628  0.00  0.00    -0.476 OA
ATOM     32  H   UNL     1       1.714  -4.910  -0.779  0.00  0.00    +0.295 HD
ENDBRANCH  30  31
ENDBRANCH   4  30
BRANCH   5  34
ATOM     33  OXT UNL     1      -3.499  -2.523  -0.012  0.00  0.00    -0.243 OA
ATOM     34  C   UNL     1      -2.438  -3.151  -0.214  0.00  0.00    +0.354 C 
BRANCH  34  35
ATOM     35  O   UNL     1      -2.475  -4.455  -0.634  0.00  0.00    -0.476 OA
ATOM     36  H   UNL     1      -1.677  -4.922  -0.784  0.00  0.00    +0.295 HD
ENDBRANCH  34  35
ENDBRANCH   5  34
TORSDOF 6
