REMARK  Name = 17975425
REMARK  4 active torsions:
REMARK  status: ('A' for Active; 'I' for Inactive)
REMARK    1  A    between atoms: C_1  and  C_15
REMARK    2  A    between atoms: C_2  and  N_7
REMARK    3  A    between atoms: N_7  and  C_10
REMARK    4  A    between atoms: C_15  and  O_16
REMARK                            x       y       z     vdW  Elec       q    Type
REMARK                         _______ _______ _______ _____ _____    ______ ____
ROOT
ATOM      1  C   UNL     1      -2.080  -0.250   0.000  0.00  0.00    +0.007 C 
ATOM      2  C   UNL     1       0.688  -0.598  -0.001  0.00  0.00    +0.084 C 
ATOM      3  C   UNL     1      -1.387  -0.339   1.208  0.00  0.00    -0.000 C 
ATOM      4  C   UNL     1      -1.388  -0.335  -1.208  0.00  0.00    -0.000 C 
ATOM      5  C   UNL     1      -0.004  -0.513   1.207  0.00  0.00    +0.019 C 
ATOM      6  C   UNL     1      -0.004  -0.509  -1.209  0.00  0.00    +0.019 C 
ENDROOT
BRANCH   2   7
ATOM      7  N   UNL     1       2.076  -0.772  -0.001  0.00  0.00    -0.214 NA
BRANCH   7  10
ATOM      8  N   UNL     1       4.217   0.160   0.000  0.00  0.00    -0.370 N 
ATOM      9  N   UNL     1       2.453   1.608   0.003  0.00  0.00    -0.370 N 
ATOM     10  C   UNL     1       2.848   0.288   0.000  0.00  0.00    +0.193 C 
ATOM     11  H   UNL     1       4.628  -0.734  -0.002  0.00  0.00    +0.159 HD
ATOM     12  H   UNL     1       4.786   0.964   0.002  0.00  0.00    +0.159 HD
ATOM     13  H   UNL     1       1.495   1.836   0.004  0.00  0.00    +0.159 HD
ATOM     14  H   UNL     1       3.129   2.324   0.004  0.00  0.00    +0.159 HD
ENDBRANCH   7  10
ENDBRANCH   2   7
BRANCH   1  15
ATOM     15  C   UNL     1      -3.559  -0.065  -0.001  0.00  0.00    +0.164 C 
BRANCH  15  16
ATOM     16  O   UNL     1      -3.861   1.325   0.002  0.00  0.00    -0.377 OA
ATOM     17  H   UNL     1      -4.824   1.447   0.002  0.00  0.00    +0.211 HD
ENDBRANCH  15  16
ENDBRANCH   1  15
TORSDOF 4
