REMARK  Name = 11560856
REMARK  5 active torsions:
REMARK  status: ('A' for Active; 'I' for Inactive)
REMARK    1  A    between atoms: C_2  and  O_24
REMARK    2  A    between atoms: C_3  and  N_10
REMARK    3  A    between atoms: C_12  and  C_16
REMARK    4  A    between atoms: C_16  and  C_18
REMARK    5  A    between atoms: O_24  and  C_28
REMARK                            x       y       z     vdW  Elec       q    Type
REMARK                         _______ _______ _______ _____ _____    ______ ____
ROOT
ATOM      1  F   UNL     1      -3.066   3.452   0.470  0.00  0.00    -0.201 F 
ATOM      2  C   UNL     1      -3.083   1.085   0.623  0.00  0.00    +0.173 C 
ATOM      3  C   UNL     1      -0.407   1.035  -0.086  0.00  0.00    +0.054 C 
ATOM      4  C   UNL     1      -2.426   2.279   0.374  0.00  0.00    +0.176 C 
ATOM      5  C   UNL     1      -2.432  -0.133   0.525  0.00  0.00    +0.041 C 
ATOM      6  C   UNL     1      -1.078   2.253   0.018  0.00  0.00    +0.047 C 
ATOM      7  C   UNL     1      -1.084  -0.158   0.168  0.00  0.00    +0.018 C 
ENDROOT
BRANCH   3  10
ATOM      8  O   UNL     1       4.133  -1.784  -1.107  0.00  0.00    -0.274 OA
ATOM      9  O   UNL     1       1.468  -1.284  -0.435  0.00  0.00    -0.252 OA
ATOM     10  N   UNL     1       0.942   1.010  -0.441  0.00  0.00    -0.268 N 
ATOM     11  N   UNL     1       3.086   0.296  -0.963  0.00  0.00    -0.239 N 
ATOM     12  C   UNL     1       4.167  -0.559  -1.194  0.00  0.00    +0.234 C 
ATOM     13  C   UNL     1       1.788  -0.109  -0.594  0.00  0.00    +0.310 C 
ATOM     14  H   UNL     1       1.358   1.886  -0.606  0.00  0.00    +0.156 HD
ATOM     15  H   UNL     1       3.245   1.262  -1.066  0.00  0.00    +0.159 HD
BRANCH  12  16
ATOM     16  C   UNL     1       5.413   0.219  -1.572  0.00  0.00    +0.112 C 
BRANCH  16  18
ATOM     17  F   UNL     1       9.694  -0.575   1.983  0.00  0.00    -0.204 F 
ATOM     18  C   UNL     1       6.561   0.007  -0.620  0.00  0.00    -0.013 C 
ATOM     19  C   UNL     1       6.700   0.843   0.479  0.00  0.00    -0.001 C 
ATOM     20  C   UNL     1       7.461  -1.022  -0.855  0.00  0.00    -0.001 C 
ATOM     21  C   UNL     1       7.763   0.646   1.361  0.00  0.00    +0.029 C 
ATOM     22  C   UNL     1       8.524  -1.219   0.027  0.00  0.00    +0.029 C 
ATOM     23  C   UNL     1       8.674  -0.386   1.135  0.00  0.00    +0.140 C 
ENDBRANCH  16  18
ENDBRANCH  12  16
ENDBRANCH   3  10
BRANCH   2  24
ATOM     24  O   UNL     1      -4.418   1.110   0.977  0.00  0.00    -0.451 OA
BRANCH  24  28
ATOM     25  N   UNL     1      -7.637  -2.200   0.377  0.00  0.00    -0.297 N 
ATOM     26  N   UNL     1      -7.126  -0.885  -1.576  0.00  0.00    -0.229 NA
ATOM     27  C   UNL     1      -6.096  -0.604   0.631  0.00  0.00    +0.067 C 
ATOM     28  C   UNL     1      -5.299   0.454   0.164  0.00  0.00    +0.150 C 
ATOM     29  C   UNL     1      -6.962  -1.204  -0.279  0.00  0.00    +0.135 C 
ATOM     30  C   UNL     1      -6.271  -1.275   1.870  0.00  0.00    +0.022 C 
ATOM     31  C   UNL     1      -7.226  -2.252   1.683  0.00  0.00    +0.063 C 
ATOM     32  C   UNL     1      -5.430   0.826  -1.173  0.00  0.00    +0.058 C 
ATOM     33  C   UNL     1      -6.334   0.138  -1.972  0.00  0.00    +0.103 C 
ATOM     34  H   UNL     1      -8.315  -2.788  -0.029  0.00  0.00    +0.154 HD
ENDBRANCH  24  28
ENDBRANCH   2  24
TORSDOF 5
