REMARK  Name = 6918314
REMARK  8 active torsions:
REMARK  status: ('A' for Active; 'I' for Inactive)
REMARK    1  A    between atoms: N_1  and  C_22
REMARK    2  A    between atoms: N_2  and  C_9
REMARK    3  A    between atoms: C_16  and  C_19
REMARK    4  A    between atoms: C_22  and  C_23
REMARK    5  A    between atoms: C_23  and  C_24
REMARK    6  A    between atoms: C_24  and  C_25
REMARK    7  A    between atoms: C_25  and  C_27
REMARK    8  A    between atoms: C_33  and  C_37
REMARK                            x       y       z     vdW  Elec       q    Type
REMARK                         _______ _______ _______ _____ _____    ______ ____
ROOT
ATOM      1  N   UNL     1      -1.106  -3.171  -0.030  0.00  0.00    +0.389 N 
ATOM      2  N   UNL     1       1.573  -2.182  -0.037  0.00  0.00    -0.312 N 
ATOM      3  C   UNL     1      -0.051  -3.882   0.701  0.00  0.00    -0.055 C 
ATOM      4  C   UNL     1      -0.547  -2.550  -1.236  0.00  0.00    -0.055 C 
ATOM      5  C   UNL     1       1.066  -2.925   1.123  0.00  0.00    +0.068 C 
ATOM      6  C   UNL     1       0.554  -1.549  -0.880  0.00  0.00    +0.068 C 
ATOM      7  H   UNL     1      -1.487  -2.439   0.570  0.00  0.00    -0.080 HD
ENDROOT
BRANCH   2   9
ATOM      8  O   UNL     1       6.556   0.186   0.287  0.00  0.00    -0.449 OA
ATOM      9  C   UNL     1       2.851  -1.617   0.051  0.00  0.00    +0.048 C 
ATOM     10  C   UNL     1       3.030  -0.219  -0.092  0.00  0.00    +0.018 C 
ATOM     11  C   UNL     1       3.983  -2.430   0.282  0.00  0.00    +0.018 C 
ATOM     12  C   UNL     1       4.320   0.333  -0.001  0.00  0.00    +0.039 C 
ATOM     13  C   UNL     1       5.393  -0.522   0.229  0.00  0.00    +0.146 C 
ATOM     14  C   UNL     1       5.275  -1.903   0.377  0.00  0.00    +0.039 C 
ATOM     15  C   UNL     1       4.876   1.636  -0.086  0.00  0.00    +0.045 C 
ATOM     16  C   UNL     1       6.232   1.492   0.095  0.00  0.00    +0.198 C 
BRANCH  16  19
ATOM     17  O   UNL     1       7.137   3.683  -0.073  0.00  0.00    -0.267 OA
ATOM     18  N   UNL     1       8.597   1.991   0.322  0.00  0.00    -0.323 N 
ATOM     19  C   UNL     1       7.286   2.448   0.110  0.00  0.00    +0.277 C 
ATOM     20  H   UNL     1       9.345   2.631   0.337  0.00  0.00    +0.145 HD
ATOM     21  H   UNL     1       8.768   1.031   0.455  0.00  0.00    +0.145 HD
ENDBRANCH  16  19
ENDBRANCH   2   9
BRANCH   1  22
ATOM     22  C   UNL     1      -2.193  -4.085  -0.380  0.00  0.00    -0.077 C 
BRANCH  22  23
ATOM     23  C   UNL     1      -3.321  -3.326  -1.077  0.00  0.00    -0.022 C 
BRANCH  23  24
ATOM     24  C   UNL     1      -3.885  -2.225  -0.177  0.00  0.00    +0.003 C 
BRANCH  24  25
ATOM     25  C   UNL     1      -4.992  -1.438  -0.885  0.00  0.00    +0.028 C 
BRANCH  25  27
ATOM     26  N   UNL     1      -6.771   0.774   1.412  0.00  0.00    -0.312 N 
ATOM     27  C   UNL     1      -5.537  -0.330  -0.034  0.00  0.00    -0.006 C 
ATOM     28  C   UNL     1      -5.054   0.994   0.004  0.00  0.00    +0.011 C 
ATOM     29  C   UNL     1      -6.584  -0.451   0.830  0.00  0.00    +0.058 C 
ATOM     30  C   UNL     1      -5.850   1.676   0.927  0.00  0.00    +0.048 C 
ATOM     31  C   UNL     1      -4.020   1.695  -0.648  0.00  0.00    +0.011 C 
ATOM     32  C   UNL     1      -5.664   3.029   1.230  0.00  0.00    +0.015 C 
ATOM     33  C   UNL     1      -3.822   3.049  -0.354  0.00  0.00    +0.069 C 
ATOM     34  C   UNL     1      -4.632   3.704   0.571  0.00  0.00    +0.012 C 
ATOM     35  H   UNL     1      -7.463   0.981   2.081  0.00  0.00    +0.152 HD
BRANCH  33  37
ATOM     36  N   UNL     1      -1.925   4.349  -1.548  0.00  0.00    -0.191 NA
ATOM     37  C   UNL     1      -2.775   3.767  -1.013  0.00  0.00    +0.100 C 
ENDBRANCH  33  37
ENDBRANCH  25  27
ENDBRANCH  24  25
ENDBRANCH  23  24
ENDBRANCH  22  23
ENDBRANCH   1  22
TORSDOF 8
