REMARK  Name = 151172
REMARK  5 active torsions:
REMARK  status: ('A' for Active; 'I' for Inactive)
REMARK    1  A    between atoms: C_1  and  C_11
REMARK    2  A    between atoms: C_2  and  S_7
REMARK    3  A    between atoms: C_5  and  C_15
REMARK    4  A    between atoms: C_15  and  N_16
REMARK    5  A    between atoms: N_16  and  C_19
REMARK                            x       y       z     vdW  Elec       q    Type
REMARK                         _______ _______ _______ _____ _____    ______ ____
ROOT
ATOM      1  C   UNL     1      -1.718  -0.753   0.091  0.00  0.00    -0.005 C 
ATOM      2  C   UNL     1      -0.939   0.387  -0.102  0.00  0.00    +0.102 C 
ATOM      3  C   UNL     1      -1.124  -2.015   0.079  0.00  0.00    -0.003 C 
ATOM      4  C   UNL     1       0.436   0.266  -0.306  0.00  0.00    +0.023 C 
ATOM      5  C   UNL     1       1.031  -0.996  -0.317  0.00  0.00    +0.057 C 
ATOM      6  C   UNL     1       0.251  -2.136  -0.125  0.00  0.00    +0.004 C 
ENDROOT
BRANCH   2   7
ATOM      7  S   UNL     1      -1.653   1.985  -0.095  0.00  0.00    +0.010 S 
ATOM      8  O   UNL     1      -2.575   2.054   1.029  0.00  0.00    -0.169 OA
ATOM      9  O   UNL     1      -0.593   2.973  -0.226  0.00  0.00    -0.169 OA
ATOM     10  C   UNL     1      -2.608   2.044  -1.593  0.00  0.00    +0.182 C 
ENDBRANCH   2   7
BRANCH   1  11
ATOM     11  C   UNL     1      -3.193  -0.658   0.311  0.00  0.00    +0.024 C 
ATOM     12  C   UNL     1      -3.616  -1.201   1.688  0.00  0.00    +0.005 C 
ATOM     13  C   UNL     1      -3.998  -1.359  -0.799  0.00  0.00    +0.005 C 
ENDBRANCH   1  11
BRANCH   5  15
ATOM     14  O   UNL     1       3.001  -2.245  -0.581  0.00  0.00    -0.268 OA
ATOM     15  C   UNL     1       2.464  -1.122  -0.531  0.00  0.00    +0.271 C 
BRANCH  15  16
ATOM     16  N   UNL     1       3.180   0.058  -0.717  0.00  0.00    -0.143 NA
BRANCH  16  19
ATOM     17  N   UNL     1       4.421   1.852   0.302  0.00  0.00    -0.372 N 
ATOM     18  N   UNL     1       3.542   0.180   1.581  0.00  0.00    -0.372 N 
ATOM     19  C   UNL     1       3.692   0.685   0.310  0.00  0.00    +0.185 C 
ATOM     20  H   UNL     1       4.600   2.315  -0.549  0.00  0.00    +0.159 HD
ATOM     21  H   UNL     1       4.764   2.224   1.146  0.00  0.00    +0.159 HD
ATOM     22  H   UNL     1       3.039  -0.654   1.723  0.00  0.00    +0.159 HD
ATOM     23  H   UNL     1       3.938   0.653   2.348  0.00  0.00    +0.159 HD
ENDBRANCH  16  19
ENDBRANCH  15  16
ENDBRANCH   5  15
TORSDOF 5
