REMARK  Name = 4369475
REMARK  7 active torsions:
REMARK  status: ('A' for Active; 'I' for Inactive)
REMARK    1  A    between atoms: N_3  and  C_17
REMARK    2  A    between atoms: C_6  and  S_10
REMARK    3  A    between atoms: S_10  and  C_11
REMARK    4  A    between atoms: C_17  and  O_18
REMARK    5  A    between atoms: O_18  and  C_19
REMARK    6  A    between atoms: C_19  and  C_20
REMARK    7  A    between atoms: C_20  and  O_21
REMARK                            x       y       z     vdW  Elec       q    Type
REMARK                         _______ _______ _______ _____ _____    ______ ____
ROOT
ATOM      1  O   UNL     1       2.655  -2.426   1.227  0.00  0.00    -0.252 OA
ATOM      2  O   UNL     1      -1.853  -2.930   0.491  0.00  0.00    -0.269 OA
ATOM      3  N   UNL     1       1.653  -1.119  -0.426  0.00  0.00    -0.215 N 
ATOM      4  N   UNL     1       0.406  -2.663   0.842  0.00  0.00    -0.235 N 
ATOM      5  C   UNL     1       0.500  -0.781  -1.105  0.00  0.00    +0.082 C 
ATOM      6  C   UNL     1      -0.690  -1.339  -0.855  0.00  0.00    +0.098 C 
ATOM      7  C   UNL     1       1.656  -2.086   0.589  0.00  0.00    +0.316 C 
ATOM      8  C   UNL     1      -0.794  -2.376   0.205  0.00  0.00    +0.260 C 
ATOM      9  H   UNL     1       0.374  -3.347   1.549  0.00  0.00    +0.159 HD
ENDROOT
BRANCH   6  10
ATOM     10  S   UNL     1      -2.129  -0.913  -1.706  0.00  0.00    -0.081 S 
BRANCH  10  11
ATOM     11  C   UNL     1      -2.699   0.408  -0.652  0.00  0.00    +0.030 C 
ATOM     12  C   UNL     1      -2.296   1.720  -0.900  0.00  0.00    +0.006 C 
ATOM     13  C   UNL     1      -3.546   0.128   0.419  0.00  0.00    +0.006 C 
ATOM     14  C   UNL     1      -2.741   2.753  -0.075  0.00  0.00    +0.001 C 
ATOM     15  C   UNL     1      -3.992   1.161   1.244  0.00  0.00    +0.001 C 
ATOM     16  C   UNL     1      -3.590   2.473   0.997  0.00  0.00    +0.000 C 
ENDBRANCH  10  11
ENDBRANCH   6  10
BRANCH   3  17
ATOM     17  C   UNL     1       2.886  -0.433  -0.798  0.00  0.00    +0.248 C 
BRANCH  17  18
ATOM     18  O   UNL     1       3.013   0.736  -0.003  0.00  0.00    -0.331 OA
BRANCH  18  19
ATOM     19  C   UNL     1       4.182   1.471  -0.340  0.00  0.00    +0.176 C 
BRANCH  19  20
ATOM     20  C   UNL     1       4.262   2.703   0.540  0.00  0.00    +0.169 C 
BRANCH  20  21
ATOM     21  O   UNL     1       3.117   3.515   0.308  0.00  0.00    -0.379 OA
ATOM     22  H   UNL     1       3.162   4.305   0.868  0.00  0.00    +0.211 HD
ENDBRANCH  20  21
ENDBRANCH  19  20
ENDBRANCH  18  19
ENDBRANCH  17  18
ENDBRANCH   3  17
TORSDOF 7
