REMARK  Name = 200742
REMARK  9 active torsions:
REMARK  status: ('A' for Active; 'I' for Inactive)
REMARK    1  A    between atoms: C_1  and  C_2
REMARK    2  A    between atoms: C_1  and  C_8
REMARK    3  A    between atoms: C_1  and  O_15
REMARK    4  A    between atoms: C_1  and  C_20
REMARK    5  A    between atoms: C_8  and  C_10
REMARK    6  A    between atoms: C_10  and  N_11
REMARK    7  A    between atoms: O_15  and  C_17
REMARK    8  A    between atoms: C_17  and  C_18
REMARK    9  A    between atoms: C_20  and  C_21
REMARK                            x       y       z     vdW  Elec       q    Type
REMARK                         _______ _______ _______ _____ _____    ______ ____
ROOT
ATOM      1  C   UNL     1       0.272   0.051  -0.249  0.00  0.00    +0.156 C 
ENDROOT
BRANCH   1   2
ATOM      2  C   UNL     1       1.707   0.427  -0.658  0.00  0.00    +0.014 C 
ATOM      3  C   UNL     1       2.657   0.535   0.326  0.00  0.00    -0.001 C 
ATOM      4  C   UNL     1       1.970   0.637  -1.988  0.00  0.00    -0.001 C 
ATOM      5  C   UNL     1       3.958   0.875  -0.045  0.00  0.00    -0.000 C 
ATOM      6  C   UNL     1       3.271   0.977  -2.359  0.00  0.00    -0.000 C 
ATOM      7  C   UNL     1       4.265   1.097  -1.388  0.00  0.00    -0.000 C 
ENDBRANCH   1   2
BRANCH   1   8
ATOM      8  C   UNL     1       0.111  -1.521  -0.166  0.00  0.00    +0.020 C 
ATOM      9  C   UNL     1       0.340  -2.220  -1.521  0.00  0.00    +0.002 C 
BRANCH   8  10
ATOM     10  C   UNL     1       1.060  -2.125   0.907  0.00  0.00    -0.074 C 
BRANCH  10  11
ATOM     11  N   UNL     1       0.885  -3.567   1.073  0.00  0.00    +0.384 N 
ATOM     12  C   UNL     1      -0.463  -3.867   1.556  0.00  0.00    -0.101 C 
ATOM     13  C   UNL     1       1.888  -4.101   1.994  0.00  0.00    -0.101 C 
ATOM     14  H   UNL     1       1.010  -4.013   0.164  0.00  0.00    -0.080 HD
ENDBRANCH  10  11
ENDBRANCH   8  10
ENDBRANCH   1   8
BRANCH   1  15
ATOM     15  O   UNL     1      -0.012   0.572   1.058  0.00  0.00    -0.451 OA
BRANCH  15  17
ATOM     16  O   UNL     1       0.373   2.712   0.287  0.00  0.00    -0.250 OA
ATOM     17  C   UNL     1       0.078   1.928   1.179  0.00  0.00    +0.317 C 
BRANCH  17  18
ATOM     18  C   UNL     1      -0.249   2.311   2.603  0.00  0.00    +0.110 C 
ATOM     19  C   UNL     1      -0.153   3.809   2.829  0.00  0.00    +0.012 C 
ENDBRANCH  17  18
ENDBRANCH  15  17
ENDBRANCH   1  15
BRANCH   1  20
ATOM     20  C   UNL     1      -0.751   0.686  -1.245  0.00  0.00    +0.071 C 
BRANCH  20  21
ATOM     21  C   UNL     1      -2.212   0.395  -0.959  0.00  0.00    -0.018 C 
ATOM     22  C   UNL     1      -2.798  -0.722  -1.524  0.00  0.00    -0.004 C 
ATOM     23  C   UNL     1      -2.920   1.254  -0.139  0.00  0.00    -0.004 C 
ATOM     24  C   UNL     1      -4.141  -0.991  -1.260  0.00  0.00    -0.000 C 
ATOM     25  C   UNL     1      -4.263   0.985   0.125  0.00  0.00    -0.000 C 
ATOM     26  C   UNL     1      -4.873  -0.137  -0.436  0.00  0.00    -0.000 C 
ENDBRANCH  20  21
ENDBRANCH   1  20
TORSDOF 9
