REMARK  Name = 11198924
REMARK  5 active torsions:
REMARK  status: ('A' for Active; 'I' for Inactive)
REMARK    1  A    between atoms: C_5  and  C_11
REMARK    2  A    between atoms: C_6  and  C_14
REMARK    3  A    between atoms: C_11  and  C_12
REMARK    4  A    between atoms: C_14  and  N_15
REMARK    5  A    between atoms: C_17  and  C_22
REMARK                            x       y       z     vdW  Elec       q    Type
REMARK                         _______ _______ _______ _____ _____    ______ ____
ROOT
ATOM      1  N   UNL     1       2.841   1.178  -0.294  0.00  0.00    -0.153 N 
ATOM      2  N   UNL     1       0.883   2.031   0.581  0.00  0.00    -0.253 NA
ATOM      3  N   UNL     1       3.558  -0.879  -0.395  0.00  0.00    -0.341 NA
ATOM      4  N   UNL     1       4.026   1.307  -0.905  0.00  0.00    -0.113 NA
ATOM      5  C   UNL     1       1.317  -0.373   0.664  0.00  0.00    +0.107 C 
ATOM      6  C   UNL     1       0.545   0.722   0.921  0.00  0.00    +0.062 C 
ATOM      7  C   UNL     1       2.561  -0.122   0.010  0.00  0.00    +0.197 C 
ATOM      8  C   UNL     1       2.015   2.240  -0.015  0.00  0.00    +0.243 C 
ATOM      9  C   UNL     1       4.422   0.031  -0.943  0.00  0.00    +0.082 C 
ATOM     10  C   UNL     1       5.703  -0.369  -1.535  0.00  0.00    +0.131 C 
ENDROOT
BRANCH   5  11
ATOM     11  C   UNL     1       0.887  -1.778   1.016  0.00  0.00    +0.014 C 
BRANCH  11  12
ATOM     12  C   UNL     1       1.368  -2.170   2.404  0.00  0.00    +0.001 C 
ATOM     13  C   UNL     1       0.911  -3.577   2.756  0.00  0.00    +0.000 C 
ENDBRANCH  11  12
ENDBRANCH   5  11
BRANCH   6  14
ATOM     14  C   UNL     1      -0.775   0.642   1.646  0.00  0.00    +0.138 C 
BRANCH  14  15
ATOM     15  N   UNL     1      -1.790   1.440   0.980  0.00  0.00    -0.263 N 
ATOM     16  N   UNL     1      -3.437   2.003  -0.388  0.00  0.00    -0.226 NA
ATOM     17  C   UNL     1      -2.642   1.030  -0.001  0.00  0.00    +0.156 C 
ATOM     18  C   UNL     1      -2.050   2.751   1.242  0.00  0.00    +0.088 C 
ATOM     19  C   UNL     1      -3.073   3.079   0.383  0.00  0.00    +0.116 C 
BRANCH  17  22
ATOM     20  F   UNL     1      -1.065   0.227  -2.224  0.00  0.00    -0.202 F 
ATOM     21  N   UNL     1      -3.476  -1.162   0.113  0.00  0.00    -0.239 NA
ATOM     22  C   UNL     1      -2.651  -0.313  -0.535  0.00  0.00    +0.140 C 
ATOM     23  C   UNL     1      -1.866  -0.659  -1.619  0.00  0.00    +0.160 C 
ATOM     24  C   UNL     1      -1.932  -1.972  -2.072  0.00  0.00    +0.033 C 
ATOM     25  C   UNL     1      -3.513  -2.429  -0.355  0.00  0.00    +0.099 C 
ATOM     26  C   UNL     1      -2.768  -2.880  -1.433  0.00  0.00    +0.023 C 
ENDBRANCH  17  22
ENDBRANCH  14  15
ENDBRANCH   6  14
TORSDOF 5
