REMARK  Name = 6323178
REMARK  8 active torsions:
REMARK  status: ('A' for Active; 'I' for Inactive)
REMARK    1  A    between atoms: C_1  and  C_2
REMARK    2  A    between atoms: C_1  and  C_10
REMARK    3  A    between atoms: C_1  and  C_11
REMARK    4  A    between atoms: C_3  and  O_7
REMARK    5  A    between atoms: C_11  and  C_12
REMARK    6  A    between atoms: C_12  and  C_13
REMARK    7  A    between atoms: C_13  and  C_14
REMARK    8  A    between atoms: C_14  and  C_17
REMARK                            x       y       z     vdW  Elec       q    Type
REMARK                         _______ _______ _______ _____ _____    ______ ____
ROOT
ATOM      1  C   UNL     1       1.157   0.359  -0.267  0.00  0.00    +0.067 C 
ENDROOT
BRANCH   1   2
ATOM      2  C   UNL     1       2.362  -0.387   0.287  0.00  0.00    +0.034 C 
ATOM      3  C   UNL     1       3.695   0.170  -0.205  0.00  0.00    +0.111 C 
ATOM      4  C   UNL     1       2.429  -1.842  -0.167  0.00  0.00    +0.003 C 
ATOM      5  C   UNL     1       4.682  -0.938   0.145  0.00  0.00    +0.029 C 
ATOM      6  C   UNL     1       3.894  -2.241   0.012  0.00  0.00    +0.003 C 
BRANCH   3   7
ATOM      7  O   UNL     1       4.019   1.380   0.453  0.00  0.00    -0.384 OA
ATOM      8  H   UNL     1       3.374   2.063   0.210  0.00  0.00    +0.210 HD
ENDBRANCH   3   7
ENDBRANCH   1   2
BRANCH   1  10
ATOM      9  O   UNL     1       1.330   2.751  -0.554  0.00  0.00    -0.288 OA
ATOM     10  C   UNL     1       1.230   1.794   0.208  0.00  0.00    +0.207 C 
ENDBRANCH   1  10
BRANCH   1  11
ATOM     11  C   UNL     1      -0.151  -0.291   0.200  0.00  0.00    +0.008 C 
BRANCH  11  12
ATOM     12  C   UNL     1      -1.389   0.424  -0.354  0.00  0.00    +0.001 C 
BRANCH  12  13
ATOM     13  C   UNL     1      -2.678  -0.262   0.108  0.00  0.00    +0.008 C 
BRANCH  13  14
ATOM     14  C   UNL     1      -3.935   0.407  -0.448  0.00  0.00    +0.060 C 
BRANCH  14  17
ATOM     15  N   UNL     1      -5.761  -1.241  -0.691  0.00  0.00    -0.346 N 
ATOM     16  N   UNL     1      -5.682   0.166   1.202  0.00  0.00    -0.289 NA
ATOM     17  C   UNL     1      -5.203  -0.247   0.069  0.00  0.00    +0.093 C 
ATOM     18  H   UNL     1      -6.584  -1.689  -0.388  0.00  0.00    +0.143 HD
ATOM     19  H   UNL     1      -5.339  -1.508  -1.539  0.00  0.00    +0.143 HD
ATOM     20  H   UNL     1      -6.503  -0.238   1.565  0.00  0.00    +0.188 HD
ENDBRANCH  14  17
ENDBRANCH  13  14
ENDBRANCH  12  13
ENDBRANCH  11  12
ENDBRANCH   1  11
TORSDOF 8
