REMARK  Name = 948
REMARK  0 active torsions:
REMARK  status: ('A' for Active; 'I' for Inactive)
REMARK                            x       y       z     vdW  Elec       q    Type
REMARK                         _______ _______ _______ _____ _____    ______ ____
ROOT
ATOM      1  O   UNL     1       1.306   0.000   0.000  0.00  0.00    -0.079 OA
ATOM      2  N   UNL     1      -0.110   0.000   0.000  0.00  0.00    +0.067 NA
ATOM      3  N   UNL     1      -1.197   0.000   0.000  0.00  0.00    +0.012 NA
ENDROOT
TORSDOF 0
