REMARK  Name = 44564
REMARK  7 active torsions:
REMARK  status: ('A' for Active; 'I' for Inactive)
REMARK    1  A    between atoms: C_2  and  N_9
REMARK    2  A    between atoms: C_3  and  N_17
REMARK    3  A    between atoms: C_7  and  C_25
REMARK    4  A    between atoms: C_10  and  C_13
REMARK    5  A    between atoms: C_13  and  O_14
REMARK    6  A    between atoms: C_18  and  C_21
REMARK    7  A    between atoms: C_21  and  O_22
REMARK                            x       y       z     vdW  Elec       q    Type
REMARK                         _______ _______ _______ _____ _____    ______ ____
ROOT
ATOM      1 CL   UNL     1      -0.001   2.549   0.001  0.00  0.00    -0.080 Cl
ATOM      2  C   UNL     1      -1.208   0.116  -0.002  0.00  0.00    +0.063 C 
ATOM      3  C   UNL     1       1.208   0.116  -0.002  0.00  0.00    +0.063 C 
ATOM      4  C   UNL     1       0.000   0.814  -0.002  0.00  0.00    +0.085 C 
ATOM      5  C   UNL     1      -1.208  -1.278  -0.001  0.00  0.00    +0.026 C 
ATOM      6  C   UNL     1       1.208  -1.278  -0.001  0.00  0.00    +0.026 C 
ATOM      7  C   UNL     1       0.000  -1.976   0.000  0.00  0.00    +0.071 C 
ENDROOT
BRANCH   2   9
ATOM      8  O   UNL     1      -4.037  -0.957   0.003  0.00  0.00    -0.263 OA
ATOM      9  N   UNL     1      -2.438   0.781  -0.001  0.00  0.00    -0.274 N 
ATOM     10  C   UNL     1      -3.710   0.218   0.001  0.00  0.00    +0.325 C 
ATOM     11  H   UNL     1      -2.400   1.765  -0.002  0.00  0.00    +0.155 HD
BRANCH  10  13
ATOM     12  O   UNL     1      -4.580   2.463  -0.003  0.00  0.00    -0.240 OA
ATOM     13  C   UNL     1      -4.804   1.269   0.001  0.00  0.00    +0.393 C 
BRANCH  13  14
ATOM     14  O   UNL     1      -6.011   0.681   0.003  0.00  0.00    -0.474 OA
ATOM     15  H   UNL     1      -6.077  -0.253   0.006  0.00  0.00    +0.296 HD
ENDBRANCH  13  14
ENDBRANCH  10  13
ENDBRANCH   2   9
BRANCH   3  17
ATOM     16  O   UNL     1       4.037  -0.958   0.000  0.00  0.00    -0.263 OA
ATOM     17  N   UNL     1       2.439   0.781  -0.001  0.00  0.00    -0.274 N 
ATOM     18  C   UNL     1       3.711   0.218   0.000  0.00  0.00    +0.325 C 
ATOM     19  H   UNL     1       2.400   1.765  -0.002  0.00  0.00    +0.155 HD
BRANCH  18  21
ATOM     20  O   UNL     1       4.580   2.463   0.002  0.00  0.00    -0.240 OA
ATOM     21  C   UNL     1       4.805   1.268   0.001  0.00  0.00    +0.393 C 
BRANCH  21  22
ATOM     22  O   UNL     1       6.011   0.681   0.001  0.00  0.00    -0.474 OA
ATOM     23  H   UNL     1       6.077  -0.254   0.000  0.00  0.00    +0.296 HD
ENDBRANCH  21  22
ENDBRANCH  18  21
ENDBRANCH   3  17
BRANCH   7  25
ATOM     24  N   UNL     1      -0.001  -4.567   0.000  0.00  0.00    -0.191 NA
ATOM     25  C   UNL     1      -0.001  -3.405   0.000  0.00  0.00    +0.100 C 
ENDBRANCH   7  25
TORSDOF 7
