REMARK  Name = 11450633
REMARK  5 active torsions:
REMARK  status: ('A' for Active; 'I' for Inactive)
REMARK    1  A    between atoms: N_3  and  C_20
REMARK    2  A    between atoms: C_5  and  N_10
REMARK    3  A    between atoms: C_11  and  N_16
REMARK    4  A    between atoms: C_20  and  C_21
REMARK    5  A    between atoms: C_22  and  C_28
REMARK                            x       y       z     vdW  Elec       q    Type
REMARK                         _______ _______ _______ _____ _____    ______ ____
ROOT
ATOM      1  O   UNL     1      -0.557  -3.058   1.270  0.00  0.00    -0.252 OA
ATOM      2  O   UNL     1       3.630  -2.788  -0.746  0.00  0.00    -0.269 OA
ATOM      3  N   UNL     1       0.274  -0.988   0.613  0.00  0.00    -0.227 N 
ATOM      4  N   UNL     1       1.540  -2.982   0.286  0.00  0.00    -0.208 N 
ATOM      5  C   UNL     1       1.290  -0.220   0.035  0.00  0.00    +0.112 C 
ATOM      6  C   UNL     1       2.401  -0.834  -0.409  0.00  0.00    +0.089 C 
ATOM      7  C   UNL     1       0.349  -2.388   0.762  0.00  0.00    +0.318 C 
ATOM      8  C   UNL     1       2.593  -2.292  -0.310  0.00  0.00    +0.259 C 
ATOM      9  C   UNL     1       1.653  -4.430   0.425  0.00  0.00    +0.125 C 
ENDROOT
BRANCH   5  10
ATOM     10  N   UNL     1       1.203   1.135  -0.100  0.00  0.00    -0.298 N 
ATOM     11  C   UNL     1       2.597   3.079   0.439  0.00  0.00    -0.046 C 
ATOM     12  C   UNL     1       1.588   2.055   0.974  0.00  0.00    +0.070 C 
ATOM     13  C   UNL     1       2.039   3.800  -0.796  0.00  0.00    -0.018 C 
ATOM     14  C   UNL     1       1.609   2.789  -1.859  0.00  0.00    +0.019 C 
ATOM     15  C   UNL     1       0.629   1.766  -1.289  0.00  0.00    +0.092 C 
BRANCH  11  16
ATOM     16  N   UNL     1       2.935   4.040   1.487  0.00  0.00    +0.383 N 
ATOM     17  H   UNL     1       3.304   3.543   2.298  0.00  0.00    -0.089 HD
ATOM     18  H   UNL     1       2.098   4.557   1.757  0.00  0.00    -0.089 HD
ATOM     19  H   UNL     1       3.639   4.690   1.138  0.00  0.00    -0.089 HD
ENDBRANCH  11  16
ENDBRANCH   5  10
BRANCH   3  20
ATOM     20  C   UNL     1      -0.931  -0.303   1.087  0.00  0.00    +0.128 C 
BRANCH  20  21
ATOM     21  C   UNL     1      -1.980  -0.205   0.017  0.00  0.00    +0.008 C 
ATOM     22  C   UNL     1      -3.204   0.411   0.259  0.00  0.00    +0.066 C 
ATOM     23  C   UNL     1      -1.699  -0.749  -1.234  0.00  0.00    -0.002 C 
ATOM     24  C   UNL     1      -4.156   0.484  -0.758  0.00  0.00    +0.010 C 
ATOM     25  C   UNL     1      -2.650  -0.675  -2.251  0.00  0.00    -0.000 C 
ATOM     26  C   UNL     1      -3.879  -0.059  -2.013  0.00  0.00    +0.001 C 
BRANCH  22  28
ATOM     27  N   UNL     1      -3.762   1.434   2.574  0.00  0.00    -0.191 NA
ATOM     28  C   UNL     1      -3.512   0.976   1.537  0.00  0.00    +0.100 C 
ENDBRANCH  22  28
ENDBRANCH  20  21
ENDBRANCH   3  20
TORSDOF 5
