REMARK  Name = 216468
REMARK  5 active torsions:
REMARK  status: ('A' for Active; 'I' for Inactive)
REMARK    1  A    between atoms: S_1  and  C_4
REMARK    2  A    between atoms: S_1  and  N_16
REMARK    3  A    between atoms: C_5  and  S_10
REMARK    4  A    between atoms: S_10  and  N_13
REMARK    5  A    between atoms: N_16  and  C_21
REMARK                            x       y       z     vdW  Elec       q    Type
REMARK                         _______ _______ _______ _____ _____    ______ ____
ROOT
ATOM      1  S   UNL     1       0.667  -2.990  -0.277  0.00  0.00    +0.074 S 
ATOM      2  O   UNL     1       0.299  -3.894  -1.351  0.00  0.00    -0.150 OA
ATOM      3  O   UNL     1       0.969  -3.519   1.039  0.00  0.00    -0.150 OA
ENDROOT
BRANCH   1   4
ATOM      4  C   UNL     1      -0.660  -1.833  -0.103  0.00  0.00    +0.125 C 
ATOM      5  C   UNL     1      -2.736  -0.025   0.169  0.00  0.00    +0.122 C 
ATOM      6  C   UNL     1      -0.843  -1.195   1.110  0.00  0.00    +0.022 C 
ATOM      7  C   UNL     1      -1.489  -1.591  -1.184  0.00  0.00    +0.022 C 
ATOM      8  C   UNL     1      -1.890  -0.283   1.247  0.00  0.00    +0.021 C 
ATOM      9  C   UNL     1      -2.536  -0.679  -1.046  0.00  0.00    +0.021 C 
BRANCH   5  10
ATOM     10  S   UNL     1      -4.047   1.115   0.341  0.00  0.00    +0.057 S 
ATOM     11  O   UNL     1      -5.071   0.790  -0.641  0.00  0.00    -0.153 OA
ATOM     12  O   UNL     1      -4.399   1.206   1.751  0.00  0.00    -0.153 OA
BRANCH  10  13
ATOM     13  N   UNL     1      -3.277   2.568  -0.126  0.00  0.00    -0.203 NA
ATOM     14  H   UNL     1      -3.944   3.338  -0.071  0.00  0.00    +0.144 HD
ATOM     15  H   UNL     1      -2.937   2.480  -1.084  0.00  0.00    +0.144 HD
ENDBRANCH  10  13
ENDBRANCH   5  10
ENDBRANCH   1   4
BRANCH   1  16
ATOM     16  N   UNL     1       1.953  -1.975  -0.814  0.00  0.00    -0.214 N 
ATOM     17  H   UNL     1       2.455  -2.193  -1.633  0.00  0.00    +0.174 HD
BRANCH  16  21
ATOM     18 CL   UNL     1       2.248   4.378  -0.198  0.00  0.00    -0.081 Cl
ATOM     19  N   UNL     1       1.577   0.897  -1.761  0.00  0.00    -0.310 N 
ATOM     20  C   UNL     1       2.078   0.479  -0.549  0.00  0.00    +0.064 C 
ATOM     21  C   UNL     1       2.277  -0.814  -0.051  0.00  0.00    +0.078 C 
ATOM     22  C   UNL     1       2.390   1.625   0.185  0.00  0.00    +0.026 C 
ATOM     23  C   UNL     1       2.811  -0.936   1.235  0.00  0.00    +0.017 C 
ATOM     24  C   UNL     1       2.059   2.745  -0.629  0.00  0.00    +0.073 C 
ATOM     25  C   UNL     1       2.927   1.477   1.479  0.00  0.00    +0.002 C 
ATOM     26  C   UNL     1       1.562   2.265  -1.818  0.00  0.00    +0.073 C 
ATOM     27  C   UNL     1       3.131   0.190   1.990  0.00  0.00    +0.001 C 
ATOM     28  H   UNL     1       1.274   0.300  -2.482  0.00  0.00    +0.152 HD
ENDBRANCH  16  21
ENDBRANCH   1  16
TORSDOF 5
