25249
  -OEChem-10051720513D

 56 60  0     1  0  0  0  0  0999 V2000
   -5.4443   -1.2609    0.3738 O   0  0  0  0  0  0  0  0  0  0  0  0
    5.5608    0.2662   -0.1731 N   0  0  0  0  0  0  0  0  0  0  0  0
    6.0064   -0.9962   -0.3226 N   0  0  0  0  0  0  0  0  0  0  0  0
   -2.4155    0.6952   -0.3134 C   0  0  1  0  0  0  0  0  0  0  0  0
   -0.9948    0.9455    0.2126 C   0  0  1  0  0  0  0  0  0  0  0  0
   -3.0592   -0.5853    0.2612 C   0  0  1  0  0  0  0  0  0  0  0  0
   -0.0968   -0.2763   -0.1584 C   0  0  1  0  0  0  0  0  0  0  0  0
    1.3934   -0.0854    0.3108 C   0  0  2  0  0  0  0  0  0  0  0  0
   -4.4908   -0.4878   -0.3516 C   0  0  2  0  0  0  0  0  0  0  0  0
   -2.1948   -1.7801   -0.1745 C   0  0  0  0  0  0  0  0  0  0  0  0
   -0.7314   -1.6235    0.2782 C   0  0  0  0  0  0  0  0  0  0  0  0
    1.9219    1.2792   -0.2939 C   0  0  1  0  0  0  0  0  0  0  0  0
   -3.4773    1.7647   -0.0772 C   0  0  0  0  0  0  0  0  0  0  0  0
   -0.4137    2.2471   -0.3574 C   0  0  0  0  0  0  0  0  0  0  0  0
   -4.8178    1.0264   -0.2481 C   0  0  0  0  0  0  0  0  0  0  0  0
    1.0319    2.4726    0.0720 C   0  0  0  0  0  0  0  0  0  0  0  0
    2.2772   -1.2670   -0.2388 C   0  0  0  0  0  0  0  0  0  0  0  0
   -3.1516   -0.5814    1.8156 C   0  0  0  0  0  0  0  0  0  0  0  0
    1.4950   -0.0853    1.8590 C   0  0  0  0  0  0  0  0  0  0  0  0
    3.4030    1.5862    0.0552 C   0  0  0  0  0  0  0  0  0  0  0  0
   -4.6122   -0.9594   -1.8062 C   0  0  0  0  0  0  0  0  0  0  0  0
    3.7251   -0.9285   -0.2387 C   0  0  0  0  0  0  0  0  0  0  0  0
    4.2041    0.3541   -0.1223 C   0  0  0  0  0  0  0  0  0  0  0  0
    4.8814   -1.7201   -0.3621 C   0  0  0  0  0  0  0  0  0  0  0  0
   -2.3224    0.5882   -1.4048 H   0  0  0  0  0  0  0  0  0  0  0  0
   -1.0329    1.0588    1.3008 H   0  0  0  0  0  0  0  0  0  0  0  0
   -0.0693   -0.3122   -1.2594 H   0  0  0  0  0  0  0  0  0  0  0  0
   -2.1909   -1.8783   -1.2665 H   0  0  0  0  0  0  0  0  0  0  0  0
   -2.6050   -2.7169    0.2212 H   0  0  0  0  0  0  0  0  0  0  0  0
   -0.6769   -1.7433    1.3638 H   0  0  0  0  0  0  0  0  0  0  0  0
   -0.1617   -2.4571   -0.1481 H   0  0  0  0  0  0  0  0  0  0  0  0
    1.8765    1.1732   -1.3899 H   0  0  0  0  0  0  0  0  0  0  0  0
   -3.3886    2.5918   -0.7892 H   0  0  0  0  0  0  0  0  0  0  0  0
   -3.4028    2.1886    0.9306 H   0  0  0  0  0  0  0  0  0  0  0  0
   -1.0145    3.1035   -0.0296 H   0  0  0  0  0  0  0  0  0  0  0  0
   -0.4638    2.2288   -1.4537 H   0  0  0  0  0  0  0  0  0  0  0  0
   -5.4740    1.2371    0.6045 H   0  0  0  0  0  0  0  0  0  0  0  0
   -5.3401    1.3891   -1.1409 H   0  0  0  0  0  0  0  0  0  0  0  0
    1.4082    3.3780   -0.4199 H   0  0  0  0  0  0  0  0  0  0  0  0
    1.0714    2.6677    1.1499 H   0  0  0  0  0  0  0  0  0  0  0  0
    1.9881   -1.4927   -1.2735 H   0  0  0  0  0  0  0  0  0  0  0  0
    2.1135   -2.1781    0.3488 H   0  0  0  0  0  0  0  0  0  0  0  0
   -2.1829   -0.4613    2.3062 H   0  0  0  0  0  0  0  0  0  0  0  0
   -3.7963    0.2193    2.1917 H   0  0  0  0  0  0  0  0  0  0  0  0
   -3.5723   -1.5275    2.1762 H   0  0  0  0  0  0  0  0  0  0  0  0
    2.5205    0.0775    2.2048 H   0  0  0  0  0  0  0  0  0  0  0  0
    0.8786    0.6912    2.3189 H   0  0  0  0  0  0  0  0  0  0  0  0
    1.1806   -1.0451    2.2809 H   0  0  0  0  0  0  0  0  0  0  0  0
    3.4925    1.9381    1.0895 H   0  0  0  0  0  0  0  0  0  0  0  0
    3.7787    2.3843   -0.5957 H   0  0  0  0  0  0  0  0  0  0  0  0
   -5.6371   -0.8133   -2.1689 H   0  0  0  0  0  0  0  0  0  0  0  0
   -3.9401   -0.4285   -2.4856 H   0  0  0  0  0  0  0  0  0  0  0  0
   -4.4188   -2.0345   -1.8919 H   0  0  0  0  0  0  0  0  0  0  0  0
   -5.1491   -2.1874    0.3582 H   0  0  0  0  0  0  0  0  0  0  0  0
    4.9559   -2.7916   -0.4805 H   0  0  0  0  0  0  0  0  0  0  0  0
    6.2416    1.0133   -0.1114 H   0  0  0  0  0  0  0  0  0  0  0  0
  1  9  1  0  0  0  0
  1 54  1  0  0  0  0
  2  3  1  0  0  0  0
  2 23  1  0  0  0  0
  2 56  1  0  0  0  0
  3 24  2  0  0  0  0
  4  5  1  0  0  0  0
  4  6  1  0  0  0  0
  4 13  1  0  0  0  0
  4 25  1  0  0  0  0
  5  7  1  0  0  0  0
  5 14  1  0  0  0  0
  5 26  1  0  0  0  0
  6  9  1  0  0  0  0
  6 10  1  0  0  0  0
  6 18  1  0  0  0  0
  7  8  1  0  0  0  0
  7 11  1  0  0  0  0
  7 27  1  0  0  0  0
  8 12  1  0  0  0  0
  8 17  1  0  0  0  0
  8 19  1  0  0  0  0
  9 15  1  0  0  0  0
  9 21  1  0  0  0  0
 10 11  1  0  0  0  0
 10 28  1  0  0  0  0
 10 29  1  0  0  0  0
 11 30  1  0  0  0  0
 11 31  1  0  0  0  0
 12 16  1  0  0  0  0
 12 20  1  0  0  0  0
 12 32  1  0  0  0  0
 13 15  1  0  0  0  0
 13 33  1  0  0  0  0
 13 34  1  0  0  0  0
 14 16  1  0  0  0  0
 14 35  1  0  0  0  0
 14 36  1  0  0  0  0
 15 37  1  0  0  0  0
 15 38  1  0  0  0  0
 16 39  1  0  0  0  0
 16 40  1  0  0  0  0
 17 22  1  0  0  0  0
 17 41  1  0  0  0  0
 17 42  1  0  0  0  0
 18 43  1  0  0  0  0
 18 44  1  0  0  0  0
 18 45  1  0  0  0  0
 19 46  1  0  0  0  0
 19 47  1  0  0  0  0
 19 48  1  0  0  0  0
 20 23  1  0  0  0  0
 20 49  1  0  0  0  0
 20 50  1  0  0  0  0
 21 51  1  0  0  0  0
 21 52  1  0  0  0  0
 21 53  1  0  0  0  0
 22 23  2  0  0  0  0
 22 24  1  0  0  0  0
 24 55  1  0  0  0  0
M  END
> <DATABASE_ID>
DB06718

> <DATABASE_NAME>
drugbank

> <ORIGINAL_SOURCE>
PUBCHEM

> <ORIGINAL_SOURCE_URL>
https://pubchem.ncbi.nlm.nih.gov/rest/pug/compound/inchikey/LKAJKIOFIWVMDJ-IYRCEVNGSA-N/SDF?record_type=3d

> <SMILES>
[H][C@@]12CC[C@](C)(O)[C@@]1(C)CC[C@@]1([H])[C@@]2([H])CC[C@@]2([H])CC3=NNC=C3C[C@]12C

> <INCHI_IDENTIFIER>
InChI=1S/C21H32N2O/c1-19-11-13-12-22-23-18(13)10-14(19)4-5-15-16(19)6-8-20(2)17(15)7-9-21(20,3)24/h12,14-17,24H,4-11H2,1-3H3,(H,22,23)/t14-,15+,16-,17-,19-,20-,21-/m0/s1

> <INCHI_KEY>
LKAJKIOFIWVMDJ-IYRCEVNGSA-N

> <FORMULA>
C21H32N2O

> <MOLECULAR_WEIGHT>
328.4916

> <EXACT_MASS>
328.251463656

> <JCHEM_ACCEPTOR_COUNT>
2

> <JCHEM_AVERAGE_POLARIZABILITY>
39.21936262648499

> <JCHEM_BIOAVAILABILITY>
1

> <JCHEM_DONOR_COUNT>
2

> <JCHEM_FORMAL_CHARGE>
0

> <JCHEM_GHOSE_FILTER>
1

> <JCHEM_IUPAC>
(1S,2S,10S,13R,14S,17S,18S)-2,17,18-trimethyl-6,7-diazapentacyclo[11.7.0.0²,¹⁰.0⁴,⁸.0¹⁴,¹⁸]icosa-4,7-dien-17-ol

> <ALOGPS_LOGP>
4.33

> <JCHEM_LOGP>
3.8072400120000003

> <ALOGPS_LOGS>
-5.28

> <JCHEM_MDDR_LIKE_RULE>
0

> <JCHEM_NUMBER_OF_RINGS>
5

> <JCHEM_PHYSIOLOGICAL_CHARGE>
0

> <JCHEM_PKA_STRONGEST_ACIDIC>
16.23405245801253

> <JCHEM_PKA_STRONGEST_BASIC>
2.8573894711754946

> <JCHEM_POLAR_SURFACE_AREA>
48.91

> <JCHEM_REFRACTIVITY>
96.79769999999999

> <JCHEM_ROTATABLE_BOND_COUNT>
0

> <JCHEM_RULE_OF_FIVE>
1

> <ALOGPS_SOLUBILITY>
1.73e-03 g/l

> <JCHEM_TRADITIONAL_IUPAC>
stanozolol

> <JCHEM_VEBER_RULE>
0

> <DRUGBANK_ID>
DB06718

> <DRUG_GROUPS>
approved; vet_approved

> <GENERIC_NAME>
Stanozolol

> <SYNONYMS>
Androstanazol; Androstanazole; Estanozolol; Stanozolol

> <INTERNATIONAL_BRANDS>
Stromba; Winstrol; Winstrol Depot

$$$$
