REMARK  Name = 23635314
REMARK  9 active torsions:
REMARK  status: ('A' for Active; 'I' for Inactive)
REMARK    1  A    between atoms: C_2  and  C_8
REMARK    2  A    between atoms: C_3  and  C_23
REMARK    3  A    between atoms: C_7  and  O_13
REMARK    4  A    between atoms: O_13  and  C_14
REMARK    5  A    between atoms: C_14  and  C_15
REMARK    6  A    between atoms: C_15  and  N_17
REMARK    7  A    between atoms: C_23  and  C_26
REMARK    8  A    between atoms: N_25  and  C_28
REMARK    9  A    between atoms: C_28  and  C_29
REMARK                            x       y       z     vdW  Elec       q    Type
REMARK                         _______ _______ _______ _____ _____    ______ ____
ROOT
ATOM      1  N   UNL     1       2.329   2.491  -0.683  0.00  0.00    -0.248 NA
ATOM      2  C   UNL     1       0.316   1.661   0.363  0.00  0.00    +0.019 C 
ATOM      3  C   UNL     1       3.035   1.821   0.255  0.00  0.00    +0.068 C 
ATOM      4  C   UNL     1       1.075   0.986   1.311  0.00  0.00    +0.003 C 
ATOM      5  C   UNL     1       0.983   2.393  -0.605  0.00  0.00    +0.098 C 
ATOM      6  C   UNL     1       2.462   1.063   1.263  0.00  0.00    +0.015 C 
ENDROOT
BRANCH   2   8
ATOM      7  C   UNL     1      -3.907   1.485   0.431  0.00  0.00    +0.138 C 
ATOM      8  C   UNL     1      -1.129   1.601   0.386  0.00  0.00    +0.002 C 
ATOM      9  C   UNL     1      -3.273   2.619  -0.064  0.00  0.00    +0.037 C 
ATOM     10  C   UNL     1      -3.165   0.408   0.905  0.00  0.00    +0.037 C 
ATOM     11  C   UNL     1      -1.880   2.677  -0.087  0.00  0.00    +0.003 C 
ATOM     12  C   UNL     1      -1.772   0.467   0.882  0.00  0.00    +0.003 C 
BRANCH   7  13
ATOM     13  O   UNL     1      -5.276   1.428   0.454  0.00  0.00    -0.478 OA
BRANCH  13  14
ATOM     14  C   UNL     1      -5.866   0.141   0.323  0.00  0.00    +0.183 C 
BRANCH  14  15
ATOM     15  C   UNL     1      -7.227   0.292  -0.336  0.00  0.00    -0.029 C 
BRANCH  15  17
ATOM     16  O   UNL     1     -10.006  -2.845  -0.107  0.00  0.00    -0.358 OA
ATOM     17  N   UNL     1      -7.866  -1.011  -0.506  0.00  0.00    +0.393 N 
ATOM     18  C   UNL     1      -8.094  -1.655   0.795  0.00  0.00    -0.044 C 
ATOM     19  C   UNL     1      -9.137  -0.879  -1.232  0.00  0.00    -0.044 C 
ATOM     20  C   UNL     1      -8.771  -3.007   0.592  0.00  0.00    +0.119 C 
ATOM     21  C   UNL     1      -9.790  -2.249  -1.387  0.00  0.00    +0.119 C 
ATOM     22  H   UNL     1      -7.237  -1.598  -1.054  0.00  0.00    -0.079 HD
ENDBRANCH  15  17
ENDBRANCH  14  15
ENDBRANCH  13  14
ENDBRANCH   7  13
ENDBRANCH   2   8
BRANCH   3  23
ATOM     23  C   UNL     1       4.522   1.926   0.174  0.00  0.00    +0.131 C 
BRANCH  23  26
ATOM     24  O   UNL     1       4.520   0.001  -1.296  0.00  0.00    -0.275 OA
ATOM     25  N   UNL     1       6.552   0.942  -0.683  0.00  0.00    -0.300 N 
ATOM     26  C   UNL     1       5.167   0.848  -0.685  0.00  0.00    +0.229 C 
ATOM     27  H   UNL     1       6.976   1.660  -0.159  0.00  0.00    +0.150 HD
BRANCH  25  28
ATOM     28  C   UNL     1       7.395   0.030  -1.420  0.00  0.00    +0.116 C 
BRANCH  28  29
ATOM     29  C   UNL     1       7.779  -1.167  -0.599  0.00  0.00    -0.003 C 
ATOM     30  C   UNL     1       8.934  -1.129   0.173  0.00  0.00    -0.003 C 
ATOM     31  C   UNL     1       6.975  -2.301  -0.619  0.00  0.00    -0.003 C 
ATOM     32  C   UNL     1       9.291  -2.241   0.936  0.00  0.00    -0.000 C 
ATOM     33  C   UNL     1       7.332  -3.413   0.144  0.00  0.00    -0.000 C 
ATOM     34  C   UNL     1       8.491  -3.383   0.921  0.00  0.00    -0.000 C 
ENDBRANCH  28  29
ENDBRANCH  25  28
ENDBRANCH  23  26
ENDBRANCH   3  23
TORSDOF 9
