REMARK  Name = 4567
REMARK  9 active torsions:
REMARK  status: ('A' for Active; 'I' for Inactive)
REMARK    1  A    between atoms: N_1  and  C_4
REMARK    2  A    between atoms: N_1  and  C_14
REMARK    3  A    between atoms: C_4  and  C_6
REMARK    4  A    between atoms: C_6  and  C_7
REMARK    5  A    between atoms: C_7  and  C_8
REMARK    6  A    between atoms: C_14  and  C_16
REMARK    7  A    between atoms: C_16  and  C_17
REMARK    8  A    between atoms: C_16  and  O_25
REMARK    9  A    between atoms: C_22  and  O_23
REMARK                            x       y       z     vdW  Elec       q    Type
REMARK                         _______ _______ _______ _____ _____    ______ ____
ROOT
ATOM      1  N   UNL     1       0.214   0.200  -0.305  0.00  0.00    +0.388 N 
ATOM      2  H   UNL     1       0.533  -0.542   0.319  0.00  0.00    -0.084 HD
ATOM      3  H   UNL     1       0.298  -0.096  -1.277  0.00  0.00    -0.084 HD
ENDROOT
BRANCH   1   4
ATOM      4  C   UNL     1       1.043   1.388  -0.102  0.00  0.00    -0.061 C 
ATOM      5  C   UNL     1       0.568   2.507  -1.029  0.00  0.00    -0.023 C 
BRANCH   4   6
ATOM      6  C   UNL     1       2.528   1.072  -0.357  0.00  0.00    -0.017 C 
BRANCH   6   7
ATOM      7  C   UNL     1       3.134   0.009   0.571  0.00  0.00    +0.024 C 
BRANCH   7   8
ATOM      8  C   UNL     1       4.605  -0.234   0.344  0.00  0.00    -0.022 C 
ATOM      9  C   UNL     1       5.003  -1.200  -0.567  0.00  0.00    -0.004 C 
ATOM     10  C   UNL     1       5.536   0.514   1.050  0.00  0.00    -0.004 C 
ATOM     11  C   UNL     1       6.364  -1.425  -0.777  0.00  0.00    -0.000 C 
ATOM     12  C   UNL     1       6.896   0.290   0.840  0.00  0.00    -0.000 C 
ATOM     13  C   UNL     1       7.310  -0.680  -0.074  0.00  0.00    -0.000 C 
ENDBRANCH   7   8
ENDBRANCH   6   7
ENDBRANCH   4   6
ENDBRANCH   1   4
BRANCH   1  14
ATOM     14  C   UNL     1      -1.182   0.492  -0.024  0.00  0.00    -0.030 C 
ATOM     15  C   UNL     1      -1.286   0.946   1.434  0.00  0.00    -0.021 C 
BRANCH  14  16
ATOM     16  C   UNL     1      -2.044  -0.757  -0.319  0.00  0.00    +0.113 C 
BRANCH  16  17
ATOM     17  C   UNL     1      -3.526  -0.537  -0.106  0.00  0.00    +0.002 C 
ATOM     18  C   UNL     1      -4.211  -1.359   0.772  0.00  0.00    +0.001 C 
ATOM     19  C   UNL     1      -4.163   0.480  -0.794  0.00  0.00    +0.001 C 
ATOM     20  C   UNL     1      -5.577  -1.157   0.967  0.00  0.00    +0.036 C 
ATOM     21  C   UNL     1      -5.530   0.682  -0.599  0.00  0.00    +0.036 C 
ATOM     22  C   UNL     1      -6.237  -0.137   0.282  0.00  0.00    +0.134 C 
BRANCH  22  23
ATOM     23  O   UNL     1      -7.569   0.060   0.474  0.00  0.00    -0.506 OA
ATOM     24  H   UNL     1      -8.044  -0.490   1.066  0.00  0.00    +0.292 HD
ENDBRANCH  22  23
ENDBRANCH  16  17
BRANCH  16  25
ATOM     25  O   UNL     1      -1.877  -1.155  -1.683  0.00  0.00    -0.382 OA
ATOM     26  H   UNL     1      -0.936  -1.307  -1.862  0.00  0.00    +0.211 HD
ENDBRANCH  16  25
ENDBRANCH  14  16
ENDBRANCH   1  14
TORSDOF 9
