REMARK  Name = 10157080
REMARK  5 active torsions:
REMARK  status: ('A' for Active; 'I' for Inactive)
REMARK    1  A    between atoms: C_3  and  O_8
REMARK    2  A    between atoms: C_6  and  O_18
REMARK    3  A    between atoms: O_8  and  C_13
REMARK    4  A    between atoms: O_18  and  C_20
REMARK    5  A    between atoms: C_19  and  N_25
REMARK                            x       y       z     vdW  Elec       q    Type
REMARK                         _______ _______ _______ _____ _____    ______ ____
ROOT
ATOM      1  N   UNL     1       2.364  -0.184  -0.030  0.00  0.00    -0.277 NA
ATOM      2  N   UNL     1       4.266  -1.646   0.205  0.00  0.00    -0.319 NA
ATOM      3  C   UNL     1       3.226   0.842  -0.116  0.00  0.00    +0.278 C 
ATOM      4  C   UNL     1       4.593   0.725  -0.052  0.00  0.00    +0.156 C 
ATOM      5  C   UNL     1       5.064  -0.562   0.111  0.00  0.00    +0.113 C 
ATOM      6  C   UNL     1       2.946  -1.388   0.128  0.00  0.00    +0.317 C 
ATOM      7  C   UNL     1       6.534  -0.802   0.192  0.00  0.00    +0.063 C 
ENDROOT
BRANCH   3   8
ATOM      8  O   UNL     1       2.674   2.100  -0.282  0.00  0.00    -0.429 OA
BRANCH   8  13
ATOM      9  O   UNL     1      -1.671   2.643   1.738  0.00  0.00    -0.435 OA
ATOM     10  O   UNL     1      -2.778   2.483  -0.397  0.00  0.00    -0.435 OA
ATOM     11  C   UNL     1      -0.794   2.464   0.713  0.00  0.00    +0.179 C 
ATOM     12  C   UNL     1      -1.426   2.373  -0.506  0.00  0.00    +0.177 C 
ATOM     13  C   UNL     1       1.316   2.191  -0.344  0.00  0.00    +0.151 C 
ATOM     14  C   UNL     1       0.578   2.377   0.827  0.00  0.00    +0.078 C 
ATOM     15  C   UNL     1      -0.721   2.189  -1.678  0.00  0.00    +0.043 C 
ATOM     16  C   UNL     1       0.670   2.098  -1.590  0.00  0.00    +0.041 C 
ATOM     17  C   UNL     1      -2.926   2.655   1.027  0.00  0.00    +0.429 C 
ENDBRANCH   8  13
ENDBRANCH   3   8
BRANCH   6  18
ATOM     18  O   UNL     1       2.102  -2.470   0.224  0.00  0.00    -0.375 OA
BRANCH  18  20
ATOM     19  C   UNL     1      -1.973  -1.719  -0.009  0.00  0.00    +0.057 C 
ATOM     20  C   UNL     1       0.749  -2.221   0.147  0.00  0.00    +0.161 C 
ATOM     21  C   UNL     1      -1.246  -1.986  -1.169  0.00  0.00    +0.018 C 
ATOM     22  C   UNL     1      -1.331  -1.705   1.229  0.00  0.00    +0.018 C 
ATOM     23  C   UNL     1       0.124  -2.239  -1.091  0.00  0.00    +0.040 C 
ATOM     24  C   UNL     1       0.038  -1.958   1.308  0.00  0.00    +0.040 C 
BRANCH  19  25
ATOM     25  N   UNL     1      -3.331  -1.468  -0.087  0.00  0.00    -0.246 N 
ATOM     26  N   UNL     1      -5.410  -0.996   0.565  0.00  0.00    -0.224 NA
ATOM     27  C   UNL     1      -4.096  -1.448  -1.226  0.00  0.00    +0.092 C 
ATOM     28  C   UNL     1      -4.172  -1.190   0.962  0.00  0.00    +0.172 C 
ATOM     29  C   UNL     1      -5.369  -1.156  -0.797  0.00  0.00    +0.117 C 
ENDBRANCH  19  25
ENDBRANCH  18  20
ENDBRANCH   6  18
TORSDOF 5
