REMARK  Name = 250653
REMARK  4 active torsions:
REMARK  status: ('A' for Active; 'I' for Inactive)
REMARK    1  A    between atoms: C_1  and  N_11
REMARK    2  A    between atoms: C_4  and  C_8
REMARK    3  A    between atoms: C_8  and  O_9
REMARK    4  A    between atoms: N_11  and  S_13
REMARK                            x       y       z     vdW  Elec       q    Type
REMARK                         _______ _______ _______ _____ _____    ______ ____
ROOT
ATOM      1  C   UNL     1       0.677   0.214   0.661  0.00  0.00    +0.064 C 
ATOM      2  C   UNL     1      -0.063   1.377   0.444  0.00  0.00    +0.016 C 
ATOM      3  C   UNL     1       0.059  -1.033   0.577  0.00  0.00    +0.016 C 
ATOM      4  C   UNL     1      -2.041   0.044   0.059  0.00  0.00    +0.076 C 
ATOM      5  C   UNL     1      -1.423   1.291   0.143  0.00  0.00    +0.008 C 
ATOM      6  C   UNL     1      -1.301  -1.118   0.276  0.00  0.00    +0.008 C 
ENDROOT
BRANCH   4   8
ATOM      7  O   UNL     1      -4.208   0.915  -0.461  0.00  0.00    -0.245 OA
ATOM      8  C   UNL     1      -3.459  -0.045  -0.253  0.00  0.00    +0.338 C 
BRANCH   8   9
ATOM      9  O   UNL     1      -3.902  -1.331  -0.298  0.00  0.00    -0.477 OA
ATOM     10  H   UNL     1      -3.308  -2.037  -0.135  0.00  0.00    +0.295 HD
ENDBRANCH   8   9
ENDBRANCH   4   8
BRANCH   1  11
ATOM     11  N   UNL     1       2.069   0.301   0.968  0.00  0.00    -0.219 N 
ATOM     12  H   UNL     1       2.375   0.646   1.838  0.00  0.00    +0.173 HD
BRANCH  11  13
ATOM     13  S   UNL     1       3.199  -0.213  -0.226  0.00  0.00    +0.056 S 
ATOM     14  O   UNL     1       4.513  -0.282   0.386  0.00  0.00    -0.154 OA
ATOM     15  O   UNL     1       2.679  -1.334  -0.984  0.00  0.00    -0.154 OA
ATOM     16  C   UNL     1       3.201   1.212  -1.291  0.00  0.00    +0.200 C 
ENDBRANCH  11  13
ENDBRANCH   1  11
TORSDOF 4
