REMARK  Name = 46937056
REMARK  8 active torsions:
REMARK  status: ('A' for Active; 'I' for Inactive)
REMARK    1  A    between atoms: N_2  and  C_13
REMARK    2  A    between atoms: N_4  and  C_29
REMARK    3  A    between atoms: C_5  and  O_11
REMARK    4  A    between atoms: C_13  and  C_16
REMARK    5  A    between atoms: N_15  and  C_18
REMARK    6  A    between atoms: C_18  and  C_21
REMARK    7  A    between atoms: C_29  and  C_30
REMARK    8  A    between atoms: C_30  and  C_32
REMARK                            x       y       z     vdW  Elec       q    Type
REMARK                         _______ _______ _______ _____ _____    ______ ____
ROOT
ATOM      1 CL   UNL     1       0.629   2.318  -2.182  0.00  0.00    -0.136 Cl
ATOM      2  N   UNL     1       1.170   2.579   0.356  0.00  0.00    +0.427 N 
ATOM      3  N   UNL     1       3.554   1.643  -0.859  0.00  0.00    -0.261 NA
ATOM      4  N   UNL     1       3.525   0.019   0.823  0.00  0.00    -0.321 N 
ATOM      5  C   UNL     1       2.302   2.163   1.192  0.00  0.00    +0.116 C 
ATOM      6  C   UNL     1       1.595   3.159  -0.924  0.00  0.00    +0.055 C 
ATOM      7  C   UNL     1       3.171   1.246   0.319  0.00  0.00    +0.107 C 
ATOM      8  C   UNL     1       3.087   2.985  -1.221  0.00  0.00    +0.122 C 
ATOM      9  H   UNL     1       0.651   1.728   0.138  0.00  0.00    -0.073 HD
ATOM     10  H   UNL     1       3.207  -0.237   1.718  0.00  0.00    +0.148 HD
ENDROOT
BRANCH   5  11
ATOM     11  O   UNL     1       1.888   1.473   2.361  0.00  0.00    -0.398 OA
ATOM     12  H   UNL     1       1.341   2.059   2.906  0.00  0.00    +0.208 HD
ENDBRANCH   5  11
BRANCH   2  13
ATOM     13  C   UNL     1       0.267   3.479   1.072  0.00  0.00    +0.016 C 
BRANCH  13  16
ATOM     14  O   UNL     1      -1.363   4.238  -0.542  0.00  0.00    -0.277 OA
ATOM     15  N   UNL     1      -1.919   2.492   0.885  0.00  0.00    -0.302 N 
ATOM     16  C   UNL     1      -1.079   3.473   0.377  0.00  0.00    +0.202 C 
ATOM     17  H   UNL     1      -1.590   1.932   1.625  0.00  0.00    +0.150 HD
BRANCH  15  18
ATOM     18  C   UNL     1      -3.252   2.251   0.381  0.00  0.00    +0.117 C 
BRANCH  18  21
ATOM     19 CL   UNL     1      -0.866  -1.502  -3.262  0.00  0.00    -0.082 Cl
ATOM     20  S   UNL     1      -4.847  -1.251   1.511  0.00  0.00    -0.087 S 
ATOM     21  C   UNL     1      -3.676   0.824   0.574  0.00  0.00    +0.004 C 
ATOM     22  C   UNL     1      -3.202  -0.270  -0.226  0.00  0.00    +0.005 C 
ATOM     23  C   UNL     1      -3.770  -1.480   0.184  0.00  0.00    +0.029 C 
ATOM     24  C   UNL     1      -4.567   0.430   1.544  0.00  0.00    +0.033 C 
ATOM     25  C   UNL     1      -2.291  -0.291  -1.310  0.00  0.00    +0.012 C 
ATOM     26  C   UNL     1      -3.455  -2.696  -0.455  0.00  0.00    +0.007 C 
ATOM     27  C   UNL     1      -1.976  -1.495  -1.945  0.00  0.00    +0.058 C 
ATOM     28  C   UNL     1      -2.553  -2.684  -1.521  0.00  0.00    +0.012 C 
ENDBRANCH  18  21
ENDBRANCH  15  18
ENDBRANCH  13  16
ENDBRANCH   2  13
BRANCH   4  29
ATOM     29  C   UNL     1       4.340  -0.898   0.091  0.00  0.00    +0.094 C 
BRANCH  29  30
ATOM     30  C   UNL     1       3.488  -1.777  -0.824  0.00  0.00    +0.067 C 
BRANCH  30  32
ATOM     31  N   UNL     1       2.928  -3.859   0.310  0.00  0.00    -0.248 NA
ATOM     32  C   UNL     1       2.501  -2.634  -0.070  0.00  0.00    +0.061 C 
ATOM     33  C   UNL     1       1.233  -2.139   0.192  0.00  0.00    +0.015 C 
ATOM     34  C   UNL     1       0.348  -2.953   0.889  0.00  0.00    +0.003 C 
ATOM     35  C   UNL     1       2.040  -4.622   0.986  0.00  0.00    +0.098 C 
ATOM     36  C   UNL     1       0.751  -4.220   1.297  0.00  0.00    +0.021 C 
ENDBRANCH  30  32
ENDBRANCH  29  30
ENDBRANCH   4  29
TORSDOF 8
