REMARK  Name = 11492186
REMARK  1 active torsions:
REMARK  status: ('A' for Active; 'I' for Inactive)
REMARK    1  A    between atoms: C_5  and  C_14
REMARK                            x       y       z     vdW  Elec       q    Type
REMARK                         _______ _______ _______ _____ _____    ______ ____
ROOT
ATOM      1  N   UNL     1       3.616   0.938   0.000  0.00  0.00    -0.275 N 
ATOM      2  N   UNL     1       4.138  -0.300   0.000  0.00  0.00    -0.158 NA
ATOM      3  N   UNL     1       3.078  -2.446  -0.001  0.00  0.00    -0.341 N 
ATOM      4  C   UNL     1       1.850  -0.361   0.000  0.00  0.00    +0.050 A 
ATOM      5  C   UNL     1      -0.444   0.384   0.000  0.00  0.00    +0.000 C 
ATOM      6  C   UNL     1       2.248   0.971   0.000  0.00  0.00    +0.077 A 
ATOM      7  C   UNL     1       0.479  -0.669  -0.001  0.00  0.00    +0.004 C 
ATOM      8  C   UNL     1      -0.016   1.713   0.000  0.00  0.00    +0.002 C 
ATOM      9  C   UNL     1       1.345   2.036   0.000  0.00  0.00    +0.019 C 
ATOM     10  C   UNL     1       3.060  -1.087   0.000  0.00  0.00    +0.146 A 
ATOM     11  H   UNL     1       4.171   1.752   0.000  0.00  0.00    +0.189 HD
ATOM     12  H   UNL     1       3.937  -2.927  -0.001  0.00  0.00    +0.144 HD
ATOM     13  H   UNL     1       2.232  -2.950  -0.001  0.00  0.00    +0.144 HD
ENDROOT
BRANCH   5  14
ATOM     14  C   UNL     1      -1.861   0.088   0.000  0.00  0.00    +0.000 C 
ATOM     15  C   UNL     1      -2.542  -0.055   1.208  0.00  0.00    +0.000 C 
ATOM     16  C   UNL     1      -2.543  -0.053  -1.208  0.00  0.00    +0.000 C 
ATOM     17  C   UNL     1      -3.908  -0.340   1.208  0.00  0.00    +0.000 C 
ATOM     18  C   UNL     1      -3.908  -0.338  -1.208  0.00  0.00    +0.000 C 
ATOM     19  C   UNL     1      -4.591  -0.481   0.000  0.00  0.00    +0.000 C 
ENDBRANCH   5  14
TORSDOF 1
