REMARK  Name = 25138294
REMARK  3 active torsions:
REMARK  status: ('A' for Active; 'I' for Inactive)
REMARK    1  A    between atoms: N_4  and  C_7
REMARK    2  A    between atoms: C_5  and  C_25
REMARK    3  A    between atoms: C_6  and  C_15
REMARK                            x       y       z     vdW  Elec       q    Type
REMARK                         _______ _______ _______ _____ _____    ______ ____
ROOT
ATOM      1  N   UNL     1      -2.622  -1.186  -0.134  0.00  0.00    -0.300 N 
ATOM      2  N   UNL     1      -2.391   1.014   0.067  0.00  0.00    -0.302 N 
ATOM      3  C   UNL     1      -1.279  -0.959  -0.029  0.00  0.00    +0.086 C 
ATOM      4  C   UNL     1      -1.161   0.405   0.093  0.00  0.00    +0.058 C 
ATOM      5  C   UNL     1      -3.249   0.028  -0.071  0.00  0.00    +0.227 C 
ATOM      6  H   UNL     1      -3.059  -2.062  -0.236  0.00  0.00    +0.150 HD
ATOM      7  H   UNL     1      -2.587   1.976   0.136  0.00  0.00    +0.150 HD
ENDROOT
BRANCH   4  10
ATOM      8  N   UNL     1       3.178   1.644  -1.619  0.00  0.00    -0.245 NA
ATOM      9  N   UNL     1       3.639   3.206   0.632  0.00  0.00    -0.245 NA
ATOM     10  C   UNL     1       0.073   1.127   0.233  0.00  0.00    -0.006 C 
ATOM     11  C   UNL     1       1.048   1.048  -0.760  0.00  0.00    +0.074 C 
ATOM     12  C   UNL     1       0.303   1.907   1.357  0.00  0.00    -0.022 C 
ATOM     13  C   UNL     1       2.253   1.737  -0.648  0.00  0.00    +0.077 C 
ATOM     14  C   UNL     1       2.486   2.527   0.492  0.00  0.00    +0.077 C 
ATOM     15  C   UNL     1       1.506   2.600   1.478  0.00  0.00    +0.073 C 
ATOM     16  C   UNL     1       4.324   2.330  -1.460  0.00  0.00    +0.119 C 
ATOM     17  C   UNL     1       4.551   3.100  -0.351  0.00  0.00    +0.119 C 
ENDBRANCH   4  10
BRANCH   3  20
ATOM     18  F   UNL     1       2.581  -4.887   0.014  0.00  0.00    -0.202 F 
ATOM     19  N   UNL     1       0.817  -1.777   0.655  0.00  0.00    -0.407 NA
ATOM     20  C   UNL     1      -0.306  -2.023  -0.057  0.00  0.00    +0.127 C 
ATOM     21  C   UNL     1      -0.535  -3.191  -0.765  0.00  0.00    +0.089 C 
ATOM     22  C   UNL     1       1.754  -2.752   0.654  0.00  0.00    +0.136 C 
ATOM     23  C   UNL     1       0.451  -4.171  -0.741  0.00  0.00    +0.013 C 
ATOM     24  C   UNL     1       1.620  -3.955  -0.020  0.00  0.00    +0.161 C 
ATOM     25  C   UNL     1       2.995  -2.483   1.438  0.00  0.00    +0.069 C 
ENDBRANCH   3  20
BRANCH   5  27
ATOM     26  O   UNL     1      -5.073   2.422   0.021  0.00  0.00    -0.275 OA
ATOM     27  N   UNL     1      -4.615   0.109  -0.149  0.00  0.00    -0.274 N 
ATOM     28  C   UNL     1      -5.442   1.258  -0.102  0.00  0.00    +0.225 C 
ATOM     29  C   UNL     1      -6.907   0.922  -0.227  0.00  0.00    +0.095 C 
ATOM     30  H   UNL     1      -5.086  -0.749  -0.252  0.00  0.00    +0.152 HD
ENDBRANCH   5  27
TORSDOF 3
