REMARK  Name = 6102708
REMARK  9 active torsions:
REMARK  status: ('A' for Active; 'I' for Inactive)
REMARK    1  A    between atoms: S_1  and  N_5
REMARK    2  A    between atoms: S_1  and  C_18
REMARK    3  A    between atoms: C_7  and  C_14
REMARK    4  A    between atoms: N_13  and  O_16
REMARK    5  A    between atoms: C_23  and  O_24
REMARK    6  A    between atoms: O_24  and  C_25
REMARK    7  A    between atoms: C_25  and  C_26
REMARK    8  A    between atoms: C_27  and  C_28
REMARK    9  A    between atoms: C_28  and  N_29
REMARK                            x       y       z     vdW  Elec       q    Type
REMARK                         _______ _______ _______ _____ _____    ______ ____
ROOT
ATOM      1  S   UNL     1      -1.620   1.623  -0.165  0.00  0.00    +0.064 S 
ATOM      2  O   UNL     1      -2.090   2.051   1.135  0.00  0.00    -0.153 OA
ATOM      3  O   UNL     1      -1.927   2.382  -1.358  0.00  0.00    -0.153 OA
ENDROOT
BRANCH   1   5
ATOM      4  S   UNL     1      -3.236  -2.883  -1.082  0.00  0.00    -0.139 S 
ATOM      5  N   UNL     1      -2.081  -0.010  -0.414  0.00  0.00    -0.146 NA
ATOM      6  C   UNL     1      -3.116  -2.087   0.576  0.00  0.00    +0.063 C 
ATOM      7  C   UNL     1      -3.151  -0.543   0.484  0.00  0.00    +0.166 C 
ATOM      8  C   UNL     1      -2.166  -0.448  -1.837  0.00  0.00    +0.108 C 
ATOM      9  C   UNL     1      -1.952  -1.946  -1.958  0.00  0.00    +0.077 C 
ATOM     10  C   UNL     1      -1.814  -2.554   1.257  0.00  0.00    +0.013 C 
ATOM     11  C   UNL     1      -4.299  -2.613   1.412  0.00  0.00    +0.013 C 
BRANCH   7  14
ATOM     12  O   UNL     1      -4.952  -0.233  -1.047  0.00  0.00    -0.271 OA
ATOM     13  N   UNL     1      -5.031   0.850   0.995  0.00  0.00    -0.196 N 
ATOM     14  C   UNL     1      -4.465   0.034   0.050  0.00  0.00    +0.261 C 
ATOM     15  H   UNL     1      -4.596   1.030   1.859  0.00  0.00    +0.182 HD
BRANCH  13  16
ATOM     16  O   UNL     1      -6.269   1.412   0.651  0.00  0.00    -0.295 OA
ATOM     17  H   UNL     1      -6.584   1.969   1.380  0.00  0.00    +0.241 HD
ENDBRANCH  13  16
ENDBRANCH   7  14
ENDBRANCH   1   5
BRANCH   1  18
ATOM     18  C   UNL     1       0.132   1.436  -0.073  0.00  0.00    +0.122 C 
ATOM     19  C   UNL     1       0.726   1.204   1.157  0.00  0.00    +0.023 C 
ATOM     20  C   UNL     1       0.886   1.523  -1.232  0.00  0.00    +0.023 C 
ATOM     21  C   UNL     1       2.111   1.057   1.230  0.00  0.00    +0.038 C 
ATOM     22  C   UNL     1       2.272   1.375  -1.159  0.00  0.00    +0.038 C 
ATOM     23  C   UNL     1       2.884   1.142   0.072  0.00  0.00    +0.140 C 
BRANCH  23  24
ATOM     24  O   UNL     1       4.236   0.997   0.144  0.00  0.00    -0.461 OA
BRANCH  24  25
ATOM     25  C   UNL     1       4.745   0.157   1.178  0.00  0.00    +0.281 C 
BRANCH  25  26
ATOM     26  C   UNL     1       5.984  -0.479   0.732  0.00  0.00    -0.046 C 
ATOM     27  C   UNL     1       7.002  -1.000   0.367  0.00  0.00    -0.112 C 
BRANCH  27  28
ATOM     28  C   UNL     1       8.245  -1.641  -0.075  0.00  0.00    -0.007 C 
BRANCH  28  29
ATOM     29  N   UNL     1       8.946  -0.805  -1.041  0.00  0.00    +0.388 N 
ATOM     30  H   UNL     1       9.805  -1.271  -1.333  0.00  0.00    -0.088 HD
ATOM     31  H   UNL     1       9.174   0.091  -0.613  0.00  0.00    -0.088 HD
ATOM     32  H   UNL     1       8.349  -0.652  -1.854  0.00  0.00    -0.088 HD
ENDBRANCH  28  29
ENDBRANCH  27  28
ENDBRANCH  25  26
ENDBRANCH  24  25
ENDBRANCH  23  24
ENDBRANCH   1  18
TORSDOF 9
