REMARK  Name = 24892823
REMARK  8 active torsions:
REMARK  status: ('A' for Active; 'I' for Inactive)
REMARK    1  A    between atoms: C_1  and  C_5
REMARK    2  A    between atoms: C_1  and  O_16
REMARK    3  A    between atoms: C_1  and  C_18
REMARK    4  A    between atoms: N_4  and  C_8
REMARK    5  A    between atoms: C_13  and  C_15
REMARK    6  A    between atoms: C_18  and  O_19
REMARK    7  A    between atoms: O_19  and  C_20
REMARK    8  A    between atoms: C_25  and  C_27
REMARK                            x       y       z     vdW  Elec       q    Type
REMARK                         _______ _______ _______ _____ _____    ______ ____
ROOT
ATOM      1  C   UNL     1      -0.571  -3.274  -0.147  0.00  0.00    +0.197 C 
ATOM      2  C   UNL     1      -0.460  -3.619  -1.634  0.00  0.00    +0.043 C 
ENDROOT
BRANCH   1   5
ATOM      3  O   UNL     1       1.380  -3.069   1.256  0.00  0.00    -0.272 OA
ATOM      4  N   UNL     1       0.972  -1.388  -0.322  0.00  0.00    -0.282 N 
ATOM      5  C   UNL     1       0.708  -2.575   0.353  0.00  0.00    +0.254 C 
ATOM      6  H   UNL     1       0.330  -1.135  -1.023  0.00  0.00    +0.155 HD
BRANCH   4   8
ATOM      7  I   UNL     1       3.321   3.244  -1.901  0.00  0.00    -0.042 I 
ATOM      8  C   UNL     1       2.056  -0.501  -0.118  0.00  0.00    +0.051 C 
ATOM      9  C   UNL     1       2.167   0.655  -0.891  0.00  0.00    +0.021 C 
ATOM     10  C   UNL     1       3.014  -0.782   0.856  0.00  0.00    +0.015 C 
ATOM     11  C   UNL     1       3.236   1.529  -0.690  0.00  0.00    +0.041 C 
ATOM     12  C   UNL     1       4.082   0.091   1.057  0.00  0.00    +0.012 C 
ATOM     13  C   UNL     1       4.193   1.247   0.284  0.00  0.00    +0.074 C 
BRANCH  13  15
ATOM     14  N   UNL     1       6.216   2.805   0.737  0.00  0.00    -0.191 NA
ATOM     15  C   UNL     1       5.311   2.108   0.534  0.00  0.00    +0.101 C 
ENDBRANCH  13  15
ENDBRANCH   4   8
ENDBRANCH   1   5
BRANCH   1  16
ATOM     16  O   UNL     1      -0.702  -4.498   0.576  0.00  0.00    -0.375 OA
ATOM     17  H   UNL     1      -1.501  -4.963   0.282  0.00  0.00    +0.211 HD
ENDBRANCH   1  16
BRANCH   1  18
ATOM     18  C   UNL     1      -1.835  -2.449   0.124  0.00  0.00    +0.241 C 
BRANCH  18  19
ATOM     19  O   UNL     1      -2.012  -1.445  -0.872  0.00  0.00    -0.472 OA
BRANCH  19  20
ATOM     20  C   UNL     1      -2.721  -0.333  -0.504  0.00  0.00    +0.139 C 
ATOM     21  C   UNL     1      -3.721  -0.432   0.464  0.00  0.00    +0.038 C 
ATOM     22  C   UNL     1      -2.444   0.898  -1.096  0.00  0.00    +0.038 C 
ATOM     23  C   UNL     1      -4.443   0.700   0.839  0.00  0.00    +0.013 C 
ATOM     24  C   UNL     1      -3.166   2.031  -0.722  0.00  0.00    +0.013 C 
ATOM     25  C   UNL     1      -4.166   1.932   0.246  0.00  0.00    +0.069 C 
BRANCH  25  27
ATOM     26  N   UNL     1      -5.508   4.035   0.941  0.00  0.00    -0.191 NA
ATOM     27  C   UNL     1      -4.907   3.092   0.630  0.00  0.00    +0.100 C 
ENDBRANCH  25  27
ENDBRANCH  19  20
ENDBRANCH  18  19
ENDBRANCH   1  18
TORSDOF 8
