REMARK  Name = 24768527
REMARK  2 active torsions:
REMARK  status: ('A' for Active; 'I' for Inactive)
REMARK    1  A    between atoms: C_11  and  N_26
REMARK    2  A    between atoms: N_30  and  S_32
REMARK                            x       y       z     vdW  Elec       q    Type
REMARK                         _______ _______ _______ _____ _____    ______ ____
ROOT
ATOM      1  O   UNL     1       2.085  -1.629  -0.637  0.00  0.00    -0.445 OA
ATOM      2  O   UNL     1       3.426  -3.285   0.222  0.00  0.00    -0.252 OA
ATOM      3  N   UNL     1      -2.678  -0.205  -1.329  0.00  0.00    -0.394 NA
ATOM      4  C   UNL     1      -1.084   3.047  -0.604  0.00  0.00    +0.001 C 
ATOM      5  C   UNL     1       0.371   3.425  -0.963  0.00  0.00    +0.005 C 
ATOM      6  C   UNL     1      -1.919   2.706  -1.863  0.00  0.00    +0.007 C 
ATOM      7  C   UNL     1       1.307   3.673   0.232  0.00  0.00    +0.026 C 
ATOM      8  C   UNL     1      -1.467   1.464  -2.643  0.00  0.00    +0.055 C 
ATOM      9  C   UNL     1      -1.786   4.181   0.155  0.00  0.00    +0.000 C 
ATOM     10  C   UNL     1       1.713   2.410   0.951  0.00  0.00    -0.023 C 
ATOM     11  C   UNL     1       4.397  -1.133  -0.434  0.00  0.00    +0.047 C 
ATOM     12  C   UNL     1       4.511  -0.207   0.802  0.00  0.00    +0.017 C 
ATOM     13  C   UNL     1       3.256   0.533   1.209  0.00  0.00    -0.024 C 
ATOM     14  C   UNL     1      -1.481   0.202  -1.817  0.00  0.00    +0.092 C 
ATOM     15  C   UNL     1       2.876   1.722   0.570  0.00  0.00    -0.009 C 
ATOM     16  C   UNL     1       0.934   1.899   1.995  0.00  0.00    -0.004 C 
ATOM     17  C   UNL     1       4.253  -0.361  -1.754  0.00  0.00    -0.011 C 
ATOM     18  C   UNL     1      -0.296  -0.493  -1.580  0.00  0.00    +0.080 C 
ATOM     19  C   UNL     1       3.278  -2.164  -0.248  0.00  0.00    +0.298 C 
ATOM     20  C   UNL     1       2.453   0.037   2.245  0.00  0.00    -0.004 C 
ATOM     21  C   UNL     1      -0.325  -1.643  -0.783  0.00  0.00    +0.010 C 
ATOM     22  C   UNL     1       1.300   0.716   2.636  0.00  0.00    -0.001 C 
ATOM     23  C   UNL     1       0.915  -2.450  -0.496  0.00  0.00    +0.231 C 
ATOM     24  C   UNL     1      -2.684  -1.327  -0.578  0.00  0.00    +0.200 C 
ATOM     25  C   UNL     1      -1.555  -2.072  -0.281  0.00  0.00    +0.045 C 
ATOM     26  N   UNL     1      -3.956  -1.737  -0.075  0.00  0.00    -0.166 N 
ATOM     27  C   UNL     1      -5.022  -2.047  -1.070  0.00  0.00    +0.141 C 
ENDROOT
BRANCH  11  28
ATOM     28  N   UNL     1       5.651  -1.905  -0.518  0.00  0.00    +0.390 N 
ATOM     29  H   UNL     1       6.436  -1.265  -0.643  0.00  0.00    -0.088 HD
ATOM     30  H   UNL     1       5.604  -2.544  -1.312  0.00  0.00    -0.088 HD
ATOM     31  H   UNL     1       5.780  -2.438   0.341  0.00  0.00    -0.088 HD
ENDBRANCH  11  28
BRANCH  26  32
ATOM     32  S   UNL     1      -4.452  -1.095   1.450  0.00  0.00    +0.061 S 
ATOM     33  O   UNL     1      -3.284  -0.669   2.198  0.00  0.00    -0.154 OA
ATOM     34  O   UNL     1      -5.429  -1.975   2.063  0.00  0.00    -0.154 OA
ATOM     35  C   UNL     1      -5.309   0.383   0.947  0.00  0.00    +0.200 C 
ENDBRANCH  26  32
TORSDOF 2
