REMARK  Name = 10450624
REMARK  5 active torsions:
REMARK  status: ('A' for Active; 'I' for Inactive)
REMARK    1  A    between atoms: N_3  and  C_9
REMARK    2  A    between atoms: N_4  and  C_20
REMARK    3  A    between atoms: C_9  and  C_13
REMARK    4  A    between atoms: C_20  and  C_22
REMARK    5  A    between atoms: C_22  and  O_23
REMARK                            x       y       z     vdW  Elec       q    Type
REMARK                         _______ _______ _______ _____ _____    ______ ____
ROOT
ATOM      1  O   UNL     1       1.838  -0.162  -1.939  0.00  0.00    -0.252 OA
ATOM      2  O   UNL     1       1.136   3.144   1.289  0.00  0.00    -0.269 OA
ATOM      3  N   UNL     1       1.439   1.505  -0.361  0.00  0.00    -0.203 N 
ATOM      4  N   UNL     1       3.210  -0.056  -0.069  0.00  0.00    -0.231 N 
ATOM      5  C   UNL     1       2.144   0.381  -0.874  0.00  0.00    +0.318 C 
ATOM      6  C   UNL     1       1.734   2.170   0.837  0.00  0.00    +0.258 C 
ATOM      7  C   UNL     1       3.537   0.565   1.115  0.00  0.00    +0.074 C 
ATOM      8  C   UNL     1       2.876   1.618   1.592  0.00  0.00    +0.075 C 
ENDROOT
BRANCH   3   9
ATOM      9  C   UNL     1       0.317   2.007  -1.147  0.00  0.00    +0.168 C 
BRANCH   9  13
ATOM     10 CL   UNL     1      -4.970  -3.159   0.709  0.00  0.00    -0.086 Cl
ATOM     11  S   UNL     1      -2.353   2.323  -0.557  0.00  0.00    -0.056 S 
ATOM     12  N   UNL     1      -1.103   0.067  -0.581  0.00  0.00    -0.401 NA
ATOM     13  C   UNL     1      -0.976   1.348  -0.764  0.00  0.00    +0.159 C 
ATOM     14  C   UNL     1      -2.420  -0.207  -0.240  0.00  0.00    +0.121 C 
ATOM     15  C   UNL     1      -3.261   0.908  -0.176  0.00  0.00    +0.057 C 
ATOM     16  C   UNL     1      -2.961  -1.481   0.038  0.00  0.00    +0.097 C 
ATOM     17  C   UNL     1      -4.621   0.792   0.156  0.00  0.00    +0.009 C 
ATOM     18  C   UNL     1      -4.313  -1.603   0.369  0.00  0.00    +0.043 C 
ATOM     19  C   UNL     1      -5.131  -0.480   0.427  0.00  0.00    +0.008 C 
ENDBRANCH   9  13
ENDBRANCH   3   9
BRANCH   4  20
ATOM     20  C   UNL     1       4.020  -1.201  -0.473  0.00  0.00    +0.209 C 
BRANCH  20  22
ATOM     21  O   UNL     1       4.022  -3.589  -0.173  0.00  0.00    -0.248 OA
ATOM     22  C   UNL     1       3.485  -2.510   0.046  0.00  0.00    +0.335 C 
BRANCH  22  23
ATOM     23  O   UNL     1       2.353  -2.381   0.776  0.00  0.00    -0.479 OA
ATOM     24  H   UNL     1       1.980  -1.533   0.916  0.00  0.00    +0.295 HD
ENDBRANCH  22  23
ENDBRANCH  20  22
ENDBRANCH   4  20
TORSDOF 5
