REMARK  Name = 46937053
REMARK  3 active torsions:
REMARK  status: ('A' for Active; 'I' for Inactive)
REMARK    1  A    between atoms: C_3  and  C_18
REMARK    2  A    between atoms: C_8  and  N_12
REMARK    3  A    between atoms: C_18  and  C_21
REMARK                            x       y       z     vdW  Elec       q    Type
REMARK                         _______ _______ _______ _____ _____    ______ ____
ROOT
ATOM      1  O   UNL     1      -2.677   2.168   0.168  0.00  0.00    -0.210 OA
ATOM      2  N   UNL     1      -0.526   2.762  -0.505  0.00  0.00    -0.333 NA
ATOM      3  C   UNL     1      -0.829   0.676   0.491  0.00  0.00    +0.080 C 
ATOM      4  C   UNL     1       0.468   0.788   0.198  0.00  0.00    +0.040 C 
ATOM      5  C   UNL     1       0.587   2.111  -0.421  0.00  0.00    +0.145 C 
ATOM      6  C   UNL     1      -1.484   1.937   0.047  0.00  0.00    +0.201 C 
ATOM      7  C   UNL     1       1.608  -0.059   0.366  0.00  0.00    +0.018 C 
ATOM      8  C   UNL     1       2.810   0.377  -0.056  0.00  0.00    +0.052 C 
ATOM      9  C   UNL     1       1.931   2.534  -0.863  0.00  0.00    +0.034 C 
ATOM     10  C   UNL     1       2.959   1.689  -0.675  0.00  0.00    +0.017 C 
ENDROOT
BRANCH   8  12
ATOM     11  O   UNL     1       2.924  -2.490  -0.070  0.00  0.00    -0.253 OA
ATOM     12  N   UNL     1       3.930  -0.393   0.082  0.00  0.00    -0.268 N 
ATOM     13  N   UNL     1       5.192  -2.305   0.226  0.00  0.00    -0.313 N 
ATOM     14  C   UNL     1       3.920  -1.782   0.066  0.00  0.00    +0.301 C 
ATOM     15  H   UNL     1       4.794   0.063   0.198  0.00  0.00    +0.156 HD
ATOM     16  H   UNL     1       5.326  -3.280   0.233  0.00  0.00    +0.146 HD
ATOM     17  H   UNL     1       5.963  -1.701   0.331  0.00  0.00    +0.146 HD
ENDBRANCH   8  12
BRANCH   3  18
ATOM     18  C   UNL     1      -1.584  -0.427   1.130  0.00  0.00    +0.070 C 
ATOM     19  C   UNL     1      -2.179  -0.004   2.484  0.00  0.00    +0.012 C 
BRANCH  18  21
ATOM     20  N   UNL     1      -2.376  -2.022  -0.659  0.00  0.00    -0.315 N 
ATOM     21  C   UNL     1      -2.656  -1.003   0.213  0.00  0.00    +0.030 C 
ATOM     22  C   UNL     1      -3.986  -0.676   0.067  0.00  0.00    +0.012 C 
ATOM     23  C   UNL     1      -3.507  -2.351  -1.360  0.00  0.00    +0.062 C 
ATOM     24  C   UNL     1      -4.524  -1.529  -0.928  0.00  0.00    +0.017 C 
ATOM     25  H   UNL     1      -1.497  -2.452  -0.766  0.00  0.00    +0.152 HD
ENDBRANCH  18  21
ENDBRANCH   3  18
TORSDOF 3
