REMARK  Name = 2782689
REMARK  3 active torsions:
REMARK  status: ('A' for Active; 'I' for Inactive)
REMARK    1  A    between atoms: C_1  and  C_8
REMARK    2  A    between atoms: C_4  and  C_15
REMARK    3  A    between atoms: C_15  and  O_16
REMARK                            x       y       z     vdW  Elec       q    Type
REMARK                         _______ _______ _______ _____ _____    ______ ____
ROOT
ATOM      1  C   UNL     1       0.017  -0.013  -0.004  0.00  0.00    +0.000 C 
ATOM      2  C   UNL     1       0.722   1.164   0.247  0.00  0.00    +0.000 C 
ATOM      3  C   UNL     1       0.707  -1.199  -0.257  0.00  0.00    +0.000 C 
ATOM      4  C   UNL     1       2.807  -0.031  -0.006  0.00  0.00    +0.075 C 
ATOM      5  C   UNL     1       2.116   1.155   0.246  0.00  0.00    +0.006 C 
ATOM      6  C   UNL     1       2.102  -1.208  -0.258  0.00  0.00    +0.006 C 
ENDROOT
BRANCH   1   8
ATOM      7  F   UNL     1      -5.559   0.020   0.005  0.00  0.00    -0.204 F 
ATOM      8  C   UNL     1      -1.430  -0.005  -0.003  0.00  0.00    +0.000 C 
ATOM      9  C   UNL     1      -2.121   1.148  -0.374  0.00  0.00    +0.002 C 
ATOM     10  C   UNL     1      -2.134  -1.150   0.372  0.00  0.00    +0.002 C 
ATOM     11  C   UNL     1      -3.516   1.156  -0.371  0.00  0.00    +0.030 C 
ATOM     12  C   UNL     1      -3.529  -1.142   0.375  0.00  0.00    +0.030 C 
ATOM     13  C   UNL     1      -4.220   0.011   0.003  0.00  0.00    +0.140 C 
ENDBRANCH   1   8
BRANCH   4  15
ATOM     14  O   UNL     1       4.948  -1.038  -0.220  0.00  0.00    -0.245 OA
ATOM     15  C   UNL     1       4.261  -0.040  -0.007  0.00  0.00    +0.338 C 
BRANCH  15  16
ATOM     16  O   UNL     1       4.830   1.172   0.252  0.00  0.00    -0.477 OA
ATOM     17  H   UNL     1       4.288   1.920   0.411  0.00  0.00    +0.295 HD
ENDBRANCH  15  16
ENDBRANCH   4  15
TORSDOF 3
