REMARK  Name = 40636608
REMARK  3 active torsions:
REMARK  status: ('A' for Active; 'I' for Inactive)
REMARK    1  A    between atoms: N_2  and  C_7
REMARK    2  A    between atoms: C_4  and  C_15
REMARK    3  A    between atoms: N_14  and  C_18
REMARK                            x       y       z     vdW  Elec       q    Type
REMARK                         _______ _______ _______ _____ _____    ______ ____
ROOT
ATOM      1  O   UNL     1       2.539  -2.014  -2.127  0.00  0.00    -0.275 OA
ATOM      2  N   UNL     1       2.558  -0.757  -0.141  0.00  0.00    -0.281 N 
ATOM      3  C   UNL     1       1.745  -0.640   1.048  0.00  0.00    +0.103 C 
ATOM      4  C   UNL     1       0.411  -1.239   0.635  0.00  0.00    +0.106 C 
ATOM      5  C   UNL     1       0.750  -2.199  -0.504  0.00  0.00    +0.096 C 
ATOM      6  C   UNL     1       2.047  -1.661  -1.065  0.00  0.00    +0.226 C 
ENDROOT
BRANCH   2   7
ATOM      7  C   UNL     1       3.829  -0.084  -0.250  0.00  0.00    +0.075 C 
ATOM      8  C   UNL     1       3.635   1.433  -0.327  0.00  0.00    +0.020 C 
ATOM      9  C   UNL     1       4.743  -0.470   0.915  0.00  0.00    +0.020 C 
ATOM     10  C   UNL     1       4.971   2.168  -0.388  0.00  0.00    +0.002 C 
ATOM     11  C   UNL     1       6.077   0.269   0.853  0.00  0.00    +0.002 C 
ATOM     12  C   UNL     1       5.881   1.780   0.773  0.00  0.00    +0.000 C 
ENDBRANCH   2   7
BRANCH   4  15
ATOM     13  O   UNL     1      -0.153   0.863  -0.320  0.00  0.00    -0.275 OA
ATOM     14  N   UNL     1      -1.868  -0.575   0.405  0.00  0.00    -0.284 N 
ATOM     15  C   UNL     1      -0.555  -0.184   0.178  0.00  0.00    +0.228 C 
ATOM     16  H   UNL     1      -1.993  -1.459   0.821  0.00  0.00    +0.155 HD
BRANCH  14  18
ATOM     17 CL   UNL     1      -7.031  -0.257   0.439  0.00  0.00    -0.083 Cl
ATOM     18  C   UNL     1      -3.046   0.149   0.109  0.00  0.00    +0.047 C 
ATOM     19  C   UNL     1      -4.306  -0.376   0.398  0.00  0.00    +0.002 C 
ATOM     20  C   UNL     1      -2.935   1.408  -0.482  0.00  0.00    +0.014 C 
ATOM     21  C   UNL     1      -5.454   0.357   0.097  0.00  0.00    +0.055 C 
ATOM     22  C   UNL     1      -4.413  -1.728   1.034  0.00  0.00    +0.033 C 
ATOM     23  C   UNL     1      -4.083   2.141  -0.784  0.00  0.00    +0.002 C 
ATOM     24  C   UNL     1      -5.342   1.615  -0.495  0.00  0.00    +0.011 C 
ENDBRANCH  14  18
ENDBRANCH   4  15
TORSDOF 3
