REMARK  Name = 44629555
REMARK  6 active torsions:
REMARK  status: ('A' for Active; 'I' for Inactive)
REMARK    1  A    between atoms: C_4  and  N_18
REMARK    2  A    between atoms: C_6  and  C_12
REMARK    3  A    between atoms: C_8  and  S_27
REMARK    4  A    between atoms: N_18  and  C_20
REMARK    5  A    between atoms: C_20  and  C_22
REMARK    6  A    between atoms: S_27  and  C_29
REMARK                            x       y       z     vdW  Elec       q    Type
REMARK                         _______ _______ _______ _____ _____    ______ ____
ROOT
ATOM      1  N   UNL     1      -0.476  -1.619  -0.339  0.00  0.00    -0.152 N 
ATOM      2  N   UNL     1       1.810  -0.886  -0.528  0.00  0.00    -0.388 NA
ATOM      3  N   UNL     1      -1.199  -2.775  -0.327  0.00  0.00    -0.173 NA
ATOM      4  C   UNL     1      -0.957  -0.305  -0.226  0.00  0.00    +0.126 C 
ATOM      5  C   UNL     1       0.886  -1.883  -0.489  0.00  0.00    +0.200 C 
ATOM      6  C   UNL     1       1.367   0.333  -0.409  0.00  0.00    +0.136 C 
ATOM      7  C   UNL     1      -0.075   0.708  -0.259  0.00  0.00    +0.064 C 
ATOM      8  C   UNL     1       1.013  -3.251  -0.576  0.00  0.00    +0.173 C 
ATOM      9  C   UNL     1      -0.293  -3.741  -0.470  0.00  0.00    +0.112 C 
ENDROOT
BRANCH   6  12
ATOM     10 CL   UNL     1       3.516   0.391   1.754  0.00  0.00    -0.081 Cl
ATOM     11 CL   UNL     1       5.543   2.874   1.555  0.00  0.00    -0.081 Cl
ATOM     12  C   UNL     1       2.341   1.455  -0.440  0.00  0.00    +0.041 C 
ATOM     13  C   UNL     1       3.365   1.581   0.500  0.00  0.00    +0.071 C 
ATOM     14  C   UNL     1       2.206   2.403  -1.455  0.00  0.00    +0.003 C 
ATOM     15  C   UNL     1       4.252   2.655   0.425  0.00  0.00    +0.068 C 
ATOM     16  C   UNL     1       3.093   3.476  -1.529  0.00  0.00    +0.001 C 
ATOM     17  C   UNL     1       4.116   3.602  -0.590  0.00  0.00    +0.012 C 
ENDBRANCH   6  12
BRANCH   4  18
ATOM     18  N   UNL     1      -2.307  -0.136  -0.097  0.00  0.00    -0.316 N 
ATOM     19  H   UNL     1      -2.879  -0.937  -0.083  0.00  0.00    +0.148 HD
BRANCH  18  20
ATOM     20  C   UNL     1      -2.934   1.154   0.019  0.00  0.00    +0.115 C 
BRANCH  20  22
ATOM     21  N   UNL     1      -7.186   0.723   0.486  0.00  0.00    -0.242 NA
ATOM     22  C   UNL     1      -4.421   1.004   0.182  0.00  0.00    +0.000 C 
ATOM     23  C   UNL     1      -5.216   0.691  -0.915  0.00  0.00    +0.018 C 
ATOM     24  C   UNL     1      -5.007   1.177   1.431  0.00  0.00    +0.018 C 
ATOM     25  C   UNL     1      -6.581   0.563  -0.712  0.00  0.00    +0.099 C 
ATOM     26  C   UNL     1      -6.381   1.027   1.529  0.00  0.00    +0.099 C 
ENDBRANCH  20  22
ENDBRANCH  18  20
ENDBRANCH   4  18
BRANCH   8  27
ATOM     27  S   UNL     1       2.460  -4.190  -0.769  0.00  0.00    -0.022 S 
BRANCH  27  29
ATOM     28  N   UNL     1       3.799  -3.338   1.609  0.00  0.00    -0.184 NA
ATOM     29  C   UNL     1       3.269  -3.693   0.640  0.00  0.00    +0.134 C 
ENDBRANCH  27  29
ENDBRANCH   8  27
TORSDOF 6
