REMARK  Name = 2776424
REMARK  3 active torsions:
REMARK  status: ('A' for Active; 'I' for Inactive)
REMARK    1  A    between atoms: C_2  and  C_7
REMARK    2  A    between atoms: C_3  and  C_11
REMARK    3  A    between atoms: C_11  and  N_12
REMARK                            x       y       z     vdW  Elec       q    Type
REMARK                         _______ _______ _______ _____ _____    ______ ____
ROOT
ATOM      1  S   UNL     1      -1.015   0.927  -0.518  0.00  0.00    -0.093 S 
ATOM      2  C   UNL     1       0.103  -0.266  -0.008  0.00  0.00    +0.035 C 
ATOM      3  C   UNL     1      -2.340  -0.128  -0.262  0.00  0.00    -0.015 C 
ATOM      4  C   UNL     1      -0.522  -1.441   0.349  0.00  0.00    +0.007 C 
ATOM      5  C   UNL     1      -1.937  -1.361   0.202  0.00  0.00    +0.001 C 
ENDROOT
BRANCH   2   7
ATOM      6  S   UNL     1       2.636  -1.245  -0.234  0.00  0.00    -0.086 S 
ATOM      7  C   UNL     1       1.495   0.007   0.014  0.00  0.00    +0.035 C 
ATOM      8  C   UNL     1       2.102   1.226   0.223  0.00  0.00    +0.008 C 
ATOM      9  C   UNL     1       3.523   1.131   0.178  0.00  0.00    +0.008 C 
ATOM     10  C   UNL     1       3.948  -0.157  -0.063  0.00  0.00    +0.035 C 
ENDBRANCH   2   7
BRANCH   3  11
ATOM     11  C   UNL     1      -3.712   0.347  -0.542  0.00  0.00    -0.052 C 
BRANCH  11  12
ATOM     12  N   UNL     1      -4.282   0.958   0.661  0.00  0.00    +0.383 N 
ATOM     13  H   UNL     1      -5.228   1.283   0.461  0.00  0.00    -0.089 HD
ATOM     14  H   UNL     1      -3.704   1.748   0.947  0.00  0.00    -0.089 HD
ATOM     15  H   UNL     1      -4.310   0.268   1.411  0.00  0.00    -0.089 HD
ENDBRANCH  11  12
ENDBRANCH   3  11
TORSDOF 3
