REMARK  Name = 16758226
REMARK  5 active torsions:
REMARK  status: ('A' for Active; 'I' for Inactive)
REMARK    1  A    between atoms: C_9  and  C_16
REMARK    2  A    between atoms: C_13  and  C_26
REMARK    3  A    between atoms: C_14  and  O_24
REMARK    4  A    between atoms: C_21  and  O_22
REMARK    5  A    between atoms: C_26  and  O_27
REMARK                            x       y       z     vdW  Elec       q    Type
REMARK                         _______ _______ _______ _____ _____    ______ ____
ROOT
ATOM      1  F   UNL     1      -0.250   4.044  -1.790  0.00  0.00    -0.204 F 
ATOM      2  F   UNL     1       0.587   4.296   0.206  0.00  0.00    -0.204 F 
ATOM      3  O   UNL     1      -0.116  -0.767  -0.224  0.00  0.00    -0.475 OA
ATOM      4  C   UNL     1       0.413   1.477   0.620  0.00  0.00    +0.054 C 
ATOM      5  C   UNL     1      -1.082   1.780   0.874  0.00  0.00    +0.035 C 
ATOM      6  C   UNL     1       0.698   2.145  -0.730  0.00  0.00    +0.071 C 
ATOM      7  C   UNL     1      -1.395   3.040   0.033  0.00  0.00    +0.071 C 
ATOM      8  C   UNL     1      -0.077   3.437  -0.603  0.00  0.00    +0.264 C 
ATOM      9  C   UNL     1       0.704  -0.026   0.690  0.00  0.00    +0.188 C 
ATOM     10  C   UNL     1      -1.979   0.621   0.508  0.00  0.00    +0.015 C 
ATOM     11  C   UNL     1      -1.458  -0.564  -0.027  0.00  0.00    +0.133 C 
ATOM     12  C   UNL     1      -3.367   0.720   0.695  0.00  0.00    +0.035 C 
ATOM     13  C   UNL     1      -2.306  -1.603  -0.421  0.00  0.00    +0.044 C 
ATOM     14  C   UNL     1      -4.212  -0.326   0.321  0.00  0.00    +0.133 C 
ATOM     15  C   UNL     1      -3.682  -1.483  -0.243  0.00  0.00    +0.038 C 
ENDROOT
BRANCH   9  16
ATOM     16  C   UNL     1       2.169  -0.339   0.447  0.00  0.00    +0.017 C 
ATOM     17  C   UNL     1       3.066  -0.359   1.515  0.00  0.00    +0.002 C 
ATOM     18  C   UNL     1       2.619  -0.604  -0.847  0.00  0.00    +0.002 C 
ATOM     19  C   UNL     1       4.413  -0.644   1.290  0.00  0.00    +0.036 C 
ATOM     20  C   UNL     1       3.966  -0.889  -1.072  0.00  0.00    +0.036 C 
ATOM     21  C   UNL     1       4.863  -0.909  -0.004  0.00  0.00    +0.134 C 
BRANCH  21  22
ATOM     22  O   UNL     1       6.177  -1.188  -0.223  0.00  0.00    -0.506 OA
ATOM     23  H   UNL     1       6.779  -1.201   0.494  0.00  0.00    +0.292 HD
ENDBRANCH  21  22
ENDBRANCH   9  16
BRANCH  14  24
ATOM     24  O   UNL     1      -5.556  -0.209   0.502  0.00  0.00    -0.506 OA
ATOM     25  H   UNL     1      -5.913   0.569   0.882  0.00  0.00    +0.292 HD
ENDBRANCH  14  24
BRANCH  13  26
ATOM     26  C   UNL     1      -1.761  -2.858  -1.022  0.00  0.00    +0.172 C 
BRANCH  26  27
ATOM     27  O   UNL     1      -1.478  -3.789   0.014  0.00  0.00    -0.346 OA
ATOM     28  C   UNL     1      -0.956  -5.005  -0.506  0.00  0.00    +0.175 C 
ENDBRANCH  26  27
ENDBRANCH  13  26
TORSDOF 5
