REMARK  Name = 16757525
REMARK  3 active torsions:
REMARK  status: ('A' for Active; 'I' for Inactive)
REMARK    1  A    between atoms: C_4  and  C_22
REMARK    2  A    between atoms: C_9  and  C_16
REMARK    3  A    between atoms: C_22  and  C_24
REMARK                            x       y       z     vdW  Elec       q    Type
REMARK                         _______ _______ _______ _____ _____    ______ ____
ROOT
ATOM      1  O   UNL     1      -2.793   3.131   0.486  0.00  0.00    -0.270 OA
ATOM      2  N   UNL     1      -0.092  -0.474  -0.304  0.00  0.00    -0.314 N 
ATOM      3  N   UNL     1      -3.819   1.221  -0.311  0.00  0.00    -0.300 N 
ATOM      4  C   UNL     1      -2.582  -0.964  -0.497  0.00  0.00    +0.058 C 
ATOM      5  C   UNL     1      -1.401  -0.083  -0.280  0.00  0.00    +0.031 C 
ATOM      6  C   UNL     1      -3.730  -0.068  -1.006  0.00  0.00    +0.095 C 
ATOM      7  C   UNL     1      -1.451   1.269  -0.012  0.00  0.00    +0.064 C 
ATOM      8  C   UNL     1      -2.714   1.976   0.079  0.00  0.00    +0.247 C 
ATOM      9  C   UNL     1       0.703   0.613  -0.036  0.00  0.00    +0.079 C 
ATOM     10  C   UNL     1      -0.115   1.709   0.155  0.00  0.00    +0.023 C 
ATOM     11  H   UNL     1       0.229  -1.387  -0.485  0.00  0.00    +0.152 HD
ATOM     12  H   UNL     1      -4.715   1.575  -0.109  0.00  0.00    +0.150 HD
ENDROOT
BRANCH   9  16
ATOM     13  N   UNL     1       2.630  -0.724  -0.221  0.00  0.00    -0.337 NA
ATOM     14  N   UNL     1       4.848   0.168   0.084  0.00  0.00    -0.170 NA
ATOM     15  N   UNL     1       4.519  -2.101  -0.415  0.00  0.00    -0.293 N 
ATOM     16  C   UNL     1       2.141   0.511   0.017  0.00  0.00    +0.159 C 
ATOM     17  C   UNL     1       2.932   1.609   0.292  0.00  0.00    +0.056 C 
ATOM     18  C   UNL     1       4.291   1.375   0.312  0.00  0.00    +0.114 C 
ATOM     19  C   UNL     1       3.972  -0.823  -0.172  0.00  0.00    +0.141 C 
ATOM     20  H   UNL     1       3.925  -2.862  -0.608  0.00  0.00    +0.155 HD
ATOM     21  H   UNL     1       5.495  -2.232  -0.392  0.00  0.00    +0.155 HD
ENDBRANCH   9  16
BRANCH   4  22
ATOM     22  C   UNL     1      -2.971  -1.678   0.797  0.00  0.00    +0.045 C 
BRANCH  22  24
ATOM     23  F   UNL     1      -2.260  -3.767  -0.001  0.00  0.00    -0.234 F 
ATOM     24  C   UNL     1      -2.108  -2.901   1.035  0.00  0.00    +0.194 C 
ENDBRANCH  22  24
ENDBRANCH   4  22
TORSDOF 3
