REMARK  Name = 3038525
REMARK  3 active torsions:
REMARK  status: ('A' for Active; 'I' for Inactive)
REMARK    1  A    between atoms: C_6  and  C_14
REMARK    2  A    between atoms: C_10  and  S_20
REMARK    3  A    between atoms: S_20  and  C_23
REMARK                            x       y       z     vdW  Elec       q    Type
REMARK                         _______ _______ _______ _____ _____    ______ ____
ROOT
ATOM      1  O   UNL     1      -3.397   2.244   1.573  0.00  0.00    -0.222 OA
ATOM      2  N   UNL     1       0.019   1.311  -0.329  0.00  0.00    -0.185 N 
ATOM      3  N   UNL     1       1.236   1.108  -0.937  0.00  0.00    -0.170 NA
ATOM      4  N   UNL     1      -1.251   2.827   1.020  0.00  0.00    -0.178 NA
ATOM      5  C   UNL     1      -1.045   0.403  -0.392  0.00  0.00    +0.082 C 
ATOM      6  C   UNL     1      -2.216   0.675   0.236  0.00  0.00    +0.100 C 
ATOM      7  C   UNL     1      -0.814  -0.817  -1.154  0.00  0.00    +0.019 C 
ATOM      8  C   UNL     1      -2.342   1.979   1.001  0.00  0.00    +0.153 C 
ATOM      9  C   UNL     1       0.355  -1.051  -1.759  0.00  0.00    +0.029 C 
ATOM     10  C   UNL     1       1.372   0.005  -1.596  0.00  0.00    +0.128 C 
ATOM     11  C   UNL     1      -0.183   2.469   0.388  0.00  0.00    +0.253 C 
ENDROOT
BRANCH   6  14
ATOM     12 CL   UNL     1      -2.354  -1.404   2.472  0.00  0.00    -0.082 Cl
ATOM     13 CL   UNL     1      -4.200   1.071  -2.055  0.00  0.00    -0.082 Cl
ATOM     14  C   UNL     1      -3.359  -0.232   0.206  0.00  0.00    +0.033 C 
ATOM     15  C   UNL     1      -3.501  -1.214   1.189  0.00  0.00    +0.059 C 
ATOM     16  C   UNL     1      -4.315  -0.122  -0.807  0.00  0.00    +0.059 C 
ATOM     17  C   UNL     1      -4.592  -2.081   1.160  0.00  0.00    +0.011 C 
ATOM     18  C   UNL     1      -5.406  -0.990  -0.836  0.00  0.00    +0.011 C 
ATOM     19  C   UNL     1      -5.545  -1.969   0.148  0.00  0.00    +0.002 C 
ENDBRANCH   6  14
BRANCH  10  20
ATOM     20  S   UNL     1       2.902  -0.310  -2.395  0.00  0.00    -0.064 S 
BRANCH  20  23
ATOM     21  F   UNL     1       2.837  -2.093   0.031  0.00  0.00    -0.204 F 
ATOM     22  F   UNL     1       6.571  -0.218   2.241  0.00  0.00    -0.204 F 
ATOM     23  C   UNL     1       4.003  -0.289  -0.995  0.00  0.00    +0.058 C 
ATOM     24  C   UNL     1       3.831  -1.193   0.054  0.00  0.00    +0.148 C 
ATOM     25  C   UNL     1       5.045   0.640  -0.948  0.00  0.00    +0.011 C 
ATOM     26  C   UNL     1       4.698  -1.169   1.147  0.00  0.00    +0.060 C 
ATOM     27  C   UNL     1       5.912   0.663   0.144  0.00  0.00    +0.030 C 
ATOM     28  C   UNL     1       5.738  -0.241   1.192  0.00  0.00    +0.142 C 
ENDBRANCH  20  23
ENDBRANCH  10  20
TORSDOF 3
