REMARK  Name = 10364585
REMARK  7 active torsions:
REMARK  status: ('A' for Active; 'I' for Inactive)
REMARK    1  A    between atoms: N_3  and  C_30
REMARK    2  A    between atoms: C_11  and  C_20
REMARK    3  A    between atoms: C_17  and  O_28
REMARK    4  A    between atoms: C_21  and  O_26
REMARK    5  A    between atoms: C_30  and  C_31
REMARK    6  A    between atoms: C_31  and  C_32
REMARK    7  A    between atoms: C_32  and  O_33
REMARK                            x       y       z     vdW  Elec       q    Type
REMARK                         _______ _______ _______ _____ _____    ______ ____
ROOT
ATOM      1  O   UNL     1       1.280   3.840   0.562  0.00  0.00    -0.270 OA
ATOM      2  O   UNL     1      -3.160   2.711   0.131  0.00  0.00    -0.270 OA
ATOM      3  N   UNL     1       1.873  -1.265  -0.598  0.00  0.00    -0.327 N 
ATOM      4  N   UNL     1      -1.038   3.632   0.424  0.00  0.00    -0.248 N 
ATOM      5  C   UNL     1       1.204   0.818  -0.141  0.00  0.00    +0.022 A 
ATOM      6  C   UNL     1       0.758  -0.475  -0.458  0.00  0.00    +0.060 A 
ATOM      7  C   UNL     1       2.638   0.772  -0.095  0.00  0.00    +0.020 A 
ATOM      8  C   UNL     1       3.019  -0.540  -0.385  0.00  0.00    +0.060 A 
ATOM      9  C   UNL     1       0.197   1.774   0.042  0.00  0.00    +0.060 C 
ATOM     10  C   UNL     1      -1.150   1.438  -0.088  0.00  0.00    +0.058 C 
ATOM     11  C   UNL     1      -1.576   0.167  -0.399  0.00  0.00    +0.009 C 
ATOM     12  C   UNL     1      -0.605  -0.820  -0.590  0.00  0.00    +0.017 C 
ATOM     13  C   UNL     1       3.661   1.710   0.164  0.00  0.00    +0.038 C 
ATOM     14  C   UNL     1       0.266   3.196   0.373  0.00  0.00    +0.252 C 
ATOM     15  C   UNL     1       4.355  -0.957  -0.428  0.00  0.00    +0.020 C 
ATOM     16  C   UNL     1      -1.946   2.639   0.160  0.00  0.00    +0.252 C 
ATOM     17  C   UNL     1       5.003   1.310   0.124  0.00  0.00    +0.134 C 
ATOM     18  C   UNL     1       5.343  -0.006  -0.169  0.00  0.00    +0.038 C 
ATOM     19  H   UNL     1      -1.293   4.561   0.629  0.00  0.00    +0.158 HD
ENDROOT
BRANCH  11  20
ATOM     20  C   UNL     1      -2.974  -0.179  -0.533  0.00  0.00    +0.034 C 
ATOM     21  C   UNL     1      -3.713  -0.621   0.566  0.00  0.00    +0.139 C 
ATOM     22  C   UNL     1      -3.587  -0.068  -1.783  0.00  0.00    +0.003 C 
ATOM     23  C   UNL     1      -5.060  -0.950   0.416  0.00  0.00    +0.037 C 
ATOM     24  C   UNL     1      -4.935  -0.397  -1.932  0.00  0.00    +0.000 C 
ATOM     25  C   UNL     1      -5.671  -0.838  -0.833  0.00  0.00    +0.003 C 
BRANCH  21  26
ATOM     26  O   UNL     1      -3.141  -0.741   1.798  0.00  0.00    -0.471 OA
ATOM     27  C   UNL     1      -3.977  -1.200   2.857  0.00  0.00    +0.252 C 
ENDBRANCH  21  26
ENDBRANCH  11  20
BRANCH  17  28
ATOM     28  O   UNL     1       5.984   2.221   0.375  0.00  0.00    -0.506 OA
ATOM     29  H   UNL     1       5.759   3.109   0.572  0.00  0.00    +0.292 HD
ENDBRANCH  17  28
BRANCH   3  30
ATOM     30  C   UNL     1       1.843  -2.677  -0.927  0.00  0.00    +0.109 C 
BRANCH  30  31
ATOM     31  C   UNL     1       1.776  -3.594   0.294  0.00  0.00    +0.056 C 
BRANCH  31  32
ATOM     32  C   UNL     1       1.684  -5.072  -0.064  0.00  0.00    +0.139 C 
BRANCH  32  33
ATOM     33  O   UNL     1       1.650  -5.831   1.138  0.00  0.00    -0.382 OA
ATOM     34  H   UNL     1       1.592  -6.775   0.922  0.00  0.00    +0.210 HD
ENDBRANCH  32  33
ENDBRANCH  31  32
ENDBRANCH  30  31
ENDBRANCH   3  30
TORSDOF 7
