REMARK  Name = 5280567
REMARK  1 active torsions:
REMARK  status: ('A' for Active; 'I' for Inactive)
REMARK    1  A    between atoms: C_11  and  O_13
REMARK                            x       y       z     vdW  Elec       q    Type
REMARK                         _______ _______ _______ _____ _____    ______ ____
ROOT
ATOM      1  O   UNL     1      -0.906  -1.531   0.000  0.00  0.00    -0.421 OA
ATOM      2  O   UNL     1      -3.174  -1.825   0.000  0.00  0.00    -0.244 OA
ATOM      3  C   UNL     1       0.005   0.735   0.000  0.00  0.00    +0.031 C 
ATOM      4  C   UNL     1      -1.367   1.260   0.000  0.00  0.00    -0.012 C 
ATOM      5  C   UNL     1       0.192  -0.648   0.000  0.00  0.00    +0.151 C 
ATOM      6  C   UNL     1       1.149   1.546   0.000  0.00  0.00    +0.006 C 
ATOM      7  C   UNL     1       1.462  -1.229   0.000  0.00  0.00    +0.074 C 
ATOM      8  C   UNL     1      -2.392   0.397   0.000  0.00  0.00    +0.078 C 
ATOM      9  C   UNL     1      -1.601   2.743   0.000  0.00  0.00    +0.031 C 
ATOM     10  C   UNL     1       2.428   0.978   0.000  0.00  0.00    +0.037 C 
ATOM     11  C   UNL     1       2.584  -0.407   0.000  0.00  0.00    +0.137 C 
ATOM     12  C   UNL     1      -2.211  -1.065   0.000  0.00  0.00    +0.346 C 
ENDROOT
BRANCH  11  13
ATOM     13  O   UNL     1       3.830  -0.953   0.000  0.00  0.00    -0.505 OA
ATOM     14  H   UNL     1       3.934  -1.885   0.000  0.00  0.00    +0.292 HD
ENDBRANCH  11  13
TORSDOF 1
