REMARK  Name = 24941263
REMARK  2 active torsions:
REMARK  status: ('A' for Active; 'I' for Inactive)
REMARK    1  A    between atoms: C_5  and  C_14
REMARK    2  A    between atoms: C_14  and  C_15
REMARK                            x       y       z     vdW  Elec       q    Type
REMARK                         _______ _______ _______ _____ _____    ______ ____
ROOT
ATOM      1  S   UNL     1      -2.933  -1.286   0.343  0.00  0.00    -0.081 S 
ATOM      2  O   UNL     1      -0.721   1.869  -0.242  0.00  0.00    -0.473 OA
ATOM      3  N   UNL     1       0.948  -0.855  -0.244  0.00  0.00    -0.254 NA
ATOM      4  N   UNL     1      -0.402  -2.665  -0.530  0.00  0.00    -0.342 N 
ATOM      5  C   UNL     1       1.279   0.534   0.037  0.00  0.00    +0.148 C 
ATOM      6  C   UNL     1       0.482   1.454  -0.877  0.00  0.00    +0.229 C 
ATOM      7  C   UNL     1      -1.637   0.897  -0.006  0.00  0.00    +0.148 C 
ATOM      8  C   UNL     1      -0.265  -1.315  -0.262  0.00  0.00    +0.129 C 
ATOM      9  C   UNL     1      -1.444  -0.476  -0.015  0.00  0.00    +0.094 C 
ATOM     10  C   UNL     1      -2.975   1.264   0.331  0.00  0.00    +0.044 C 
ATOM     11  C   UNL     1      -3.783   0.174   0.540  0.00  0.00    +0.039 C 
ATOM     12  H   UNL     1       0.396  -3.218  -0.694  0.00  0.00    +0.144 HD
ATOM     13  H   UNL     1      -1.297  -3.073  -0.556  0.00  0.00    +0.144 HD
ENDROOT
BRANCH   5  14
ATOM     14  C   UNL     1       2.777   0.683  -0.223  0.00  0.00    +0.028 C 
BRANCH  14  15
ATOM     15  C   UNL     1       3.591  -0.204   0.712  0.00  0.00    +0.002 C 
ATOM     16  C   UNL     1       5.081  -0.075   0.436  0.00  0.00    +0.000 C 
ENDBRANCH  14  15
ENDBRANCH   5  14
TORSDOF 2
