REMARK  Name = 24180720
REMARK  6 active torsions:
REMARK  status: ('A' for Active; 'I' for Inactive)
REMARK    1  A    between atoms: C_2  and  C_6
REMARK    2  A    between atoms: C_2  and  C_21
REMARK    3  A    between atoms: C_10  and  C_14
REMARK    4  A    between atoms: C_22  and  N_27
REMARK    5  A    between atoms: N_27  and  S_29
REMARK    6  A    between atoms: S_29  and  C_32
REMARK                            x       y       z     vdW  Elec       q    Type
REMARK                         _______ _______ _______ _____ _____    ______ ____
ROOT
ATOM      1  O   UNL     1       3.775  -2.114  -0.879  0.00  0.00    -0.286 OA
ATOM      2  C   UNL     1       2.711  -1.633  -0.447  0.00  0.00    +0.201 C 
ENDROOT
BRANCH   2   6
ATOM      3  N   UNL     1       0.935  -3.895   1.730  0.00  0.00    -0.297 N 
ATOM      4  N   UNL     1      -1.417  -3.387   1.611  0.00  0.00    -0.229 NA
ATOM      5  C   UNL     1       0.349  -2.220   0.374  0.00  0.00    +0.036 C 
ATOM      6  C   UNL     1       1.759  -2.382   0.322  0.00  0.00    +0.056 C 
ATOM      7  C   UNL     1      -0.134  -3.179   1.260  0.00  0.00    +0.132 C 
ATOM      8  C   UNL     1      -0.588  -1.367  -0.230  0.00  0.00    +0.005 C 
ATOM      9  C   UNL     1       2.091  -3.420   1.167  0.00  0.00    +0.066 C 
ATOM     10  C   UNL     1      -1.931  -1.540   0.099  0.00  0.00    +0.021 C 
ATOM     11  C   UNL     1      -2.275  -2.538   1.000  0.00  0.00    +0.100 C 
ATOM     12  H   UNL     1       0.881  -4.638   2.373  0.00  0.00    +0.154 HD
BRANCH  10  14
ATOM     13  N   UNL     1      -5.226  -0.428  -1.246  0.00  0.00    -0.242 NA
ATOM     14  C   UNL     1      -2.946  -0.695  -0.488  0.00  0.00    +0.021 C 
ATOM     15  C   UNL     1      -2.661   0.615  -0.860  0.00  0.00    +0.003 C 
ATOM     16  C   UNL     1      -4.232  -1.164  -0.701  0.00  0.00    +0.099 C 
ATOM     17  C   UNL     1      -3.658   1.403  -1.425  0.00  0.00    +0.021 C 
ATOM     18  C   UNL     1      -4.912   0.840  -1.595  0.00  0.00    +0.099 C 
ENDBRANCH  10  14
ENDBRANCH   2   6
BRANCH   2  21
ATOM     19  F   UNL     1       2.366   0.369   1.505  0.00  0.00    -0.203 F 
ATOM     20  F   UNL     1       2.552  -0.705  -3.114  0.00  0.00    -0.204 F 
ATOM     21  C   UNL     1       2.465  -0.199  -0.794  0.00  0.00    +0.095 C 
ATOM     22  C   UNL     1       2.072   2.083  -0.105  0.00  0.00    +0.092 C 
ATOM     23  C   UNL     1       2.302   0.746   0.219  0.00  0.00    +0.160 C 
ATOM     24  C   UNL     1       2.398   0.193  -2.131  0.00  0.00    +0.145 C 
ATOM     25  C   UNL     1       2.005   2.475  -1.442  0.00  0.00    +0.020 C 
ATOM     26  C   UNL     1       2.168   1.530  -2.455  0.00  0.00    +0.031 C 
BRANCH  22  27
ATOM     27  N   UNL     1       1.904   3.052   0.930  0.00  0.00    -0.217 N 
ATOM     28  H   UNL     1       2.665   3.331   1.490  0.00  0.00    +0.173 HD
BRANCH  27  29
ATOM     29  S   UNL     1       0.336   3.720   1.172  0.00  0.00    +0.054 S 
ATOM     30  O   UNL     1       0.453   4.850   2.076  0.00  0.00    -0.154 OA
ATOM     31  O   UNL     1      -0.370   3.854  -0.087  0.00  0.00    -0.154 OA
BRANCH  29  32
ATOM     32  C   UNL     1      -0.429   2.402   2.090  0.00  0.00    +0.172 C 
ATOM     33  C   UNL     1      -1.861   2.733   2.446  0.00  0.00    +0.029 C 
ENDBRANCH  29  32
ENDBRANCH  27  29
ENDBRANCH  22  27
ENDBRANCH   2  21
TORSDOF 6
