REMARK  Name = 25181321
REMARK  3 active torsions:
REMARK  status: ('A' for Active; 'I' for Inactive)
REMARK    1  A    between atoms: N_1  and  C_17
REMARK    2  A    between atoms: C_6  and  C_14
REMARK    3  A    between atoms: C_22  and  O_23
REMARK                            x       y       z     vdW  Elec       q    Type
REMARK                         _______ _______ _______ _____ _____    ______ ____
ROOT
ATOM      1  N   UNL     1       1.185  -1.730  -0.032  0.00  0.00    -0.265 N 
ATOM      2  N   UNL     1       0.327  -3.778  -0.116  0.00  0.00    -0.250 NA
ATOM      3  C   UNL     1      -0.175  -1.557  -0.033  0.00  0.00    +0.067 C 
ATOM      4  C   UNL     1      -0.688  -2.850  -0.085  0.00  0.00    +0.074 C 
ATOM      5  C   UNL     1      -0.977  -0.415   0.007  0.00  0.00    +0.020 C 
ATOM      6  C   UNL     1      -2.361  -0.617  -0.009  0.00  0.00    +0.052 C 
ATOM      7  C   UNL     1       1.435  -3.073  -0.082  0.00  0.00    +0.224 C 
ATOM      8  C   UNL     1      -2.081  -3.034  -0.100  0.00  0.00    +0.073 C 
ATOM      9  C   UNL     1      -2.905  -1.902  -0.061  0.00  0.00    -0.015 C 
ENDROOT
BRANCH   6  14
ATOM     10  S   UNL     1      -3.405   4.238   0.172  0.00  0.00    +0.011 S 
ATOM     11  O   UNL     1      -2.615   1.731   0.080  0.00  0.00    -0.412 OA
ATOM     12  N   UNL     1      -4.536   0.561   0.025  0.00  0.00    -0.132 NA
ATOM     13  N   UNL     1      -4.805   1.891   0.074  0.00  0.00    -0.237 N 
ATOM     14  C   UNL     1      -3.248   0.535   0.031  0.00  0.00    +0.248 A 
ATOM     15  C   UNL     1      -3.648   2.612   0.108  0.00  0.00    +0.264 A 
ATOM     16  H   UNL     1      -5.709   2.280   0.084  0.00  0.00    +0.193 HD
ENDBRANCH   6  14
BRANCH   1  17
ATOM     17  C   UNL     1       2.155  -0.729   0.011  0.00  0.00    +0.053 C 
ATOM     18  C   UNL     1       3.388  -0.979   0.613  0.00  0.00    +0.018 C 
ATOM     19  C   UNL     1       1.891   0.522  -0.547  0.00  0.00    +0.018 C 
ATOM     20  C   UNL     1       4.358   0.022   0.656  0.00  0.00    +0.038 C 
ATOM     21  C   UNL     1       2.861   1.523  -0.503  0.00  0.00    +0.038 C 
ATOM     22  C   UNL     1       4.095   1.273   0.098  0.00  0.00    +0.139 C 
BRANCH  22  23
ATOM     23  O   UNL     1       5.042   2.250   0.141  0.00  0.00    -0.471 OA
ATOM     24  C   UNL     1       4.706   3.505  -0.449  0.00  0.00    +0.252 C 
ENDBRANCH  22  23
ENDBRANCH   1  17
TORSDOF 3
