REMARK  Name = 24768528
REMARK  10 active torsions:
REMARK  status: ('A' for Active; 'I' for Inactive)
REMARK    1  A    between atoms: C_3  and  C_11
REMARK    2  A    between atoms: C_3  and  C_20
REMARK    3  A    between atoms: C_8  and  O_15
REMARK    4  A    between atoms: N_10  and  O_13
REMARK    5  A    between atoms: O_15  and  C_16
REMARK    6  A    between atoms: C_20  and  S_21
REMARK    7  A    between atoms: S_21  and  C_24
REMARK    8  A    between atoms: C_29  and  N_30
REMARK    9  A    between atoms: N_30  and  C_32
REMARK   10  A    between atoms: C_32  and  C_33
REMARK                            x       y       z     vdW  Elec       q    Type
REMARK                         _______ _______ _______ _____ _____    ______ ____
ROOT
ATOM      1  O   UNL     1      -5.674   0.942  -1.579  0.00  0.00    -0.226 OA
ATOM      2  N   UNL     1      -4.211  -0.037  -0.061  0.00  0.00    -0.246 N 
ATOM      3  C   UNL     1      -1.447  -0.856   0.412  0.00  0.00    +0.096 C 
ATOM      4  C   UNL     1      -2.246  -0.014   1.428  0.00  0.00    +0.032 C 
ATOM      5  C   UNL     1      -2.021  -0.654  -1.005  0.00  0.00    +0.032 C 
ATOM      6  C   UNL     1      -3.756  -0.227   1.319  0.00  0.00    +0.097 C 
ATOM      7  C   UNL     1      -3.534  -0.855  -1.065  0.00  0.00    +0.097 C 
ATOM      8  C   UNL     1      -5.256   0.815  -0.430  0.00  0.00    +0.405 C 
ENDROOT
BRANCH   3  11
ATOM      9  O   UNL     1      -1.009  -2.704   1.903  0.00  0.00    -0.273 OA
ATOM     10  N   UNL     1      -1.912  -3.161  -0.176  0.00  0.00    -0.197 N 
ATOM     11  C   UNL     1      -1.423  -2.338   0.805  0.00  0.00    +0.245 C 
ATOM     12  H   UNL     1      -2.231  -2.813  -1.040  0.00  0.00    +0.182 HD
BRANCH  10  13
ATOM     13  O   UNL     1      -1.927  -4.529   0.128  0.00  0.00    -0.295 OA
ATOM     14  H   UNL     1      -2.288  -5.023  -0.625  0.00  0.00    +0.241 HD
ENDBRANCH  10  13
ENDBRANCH   3  11
BRANCH   8  15
ATOM     15  O   UNL     1      -5.777   1.504   0.634  0.00  0.00    -0.442 OA
BRANCH  15  16
ATOM     16  C   UNL     1      -6.855   2.400   0.339  0.00  0.00    +0.138 C 
ATOM     17  C   UNL     1      -6.355   3.456  -0.646  0.00  0.00    +0.044 C 
ATOM     18  C   UNL     1      -7.285   3.051   1.651  0.00  0.00    +0.044 C 
ATOM     19  C   UNL     1      -8.005   1.594  -0.264  0.00  0.00    +0.044 C 
ENDBRANCH  15  16
ENDBRANCH   8  15
BRANCH   3  20
ATOM     20  C   UNL     1      -0.017  -0.380   0.420  0.00  0.00    +0.165 C 
BRANCH  20  21
ATOM     21  S   UNL     1       0.956  -1.304  -0.712  0.00  0.00    +0.009 S 
ATOM     22  O   UNL     1       0.503  -1.025  -2.068  0.00  0.00    -0.169 OA
ATOM     23  O   UNL     1       1.018  -2.680  -0.239  0.00  0.00    -0.169 OA
BRANCH  21  24
ATOM     24  C   UNL     1       2.578  -0.611  -0.564  0.00  0.00    +0.106 C 
ATOM     25  C   UNL     1       2.958   0.456  -1.379  0.00  0.00    +0.020 C 
ATOM     26  C   UNL     1       3.477  -1.133   0.366  0.00  0.00    +0.020 C 
ATOM     27  C   UNL     1       4.236   1.001  -1.263  0.00  0.00    +0.016 C 
ATOM     28  C   UNL     1       4.755  -0.588   0.482  0.00  0.00    +0.016 C 
ATOM     29  C   UNL     1       5.135   0.479  -0.333  0.00  0.00    +0.045 C 
BRANCH  29  30
ATOM     30  N   UNL     1       6.428   1.030  -0.216  0.00  0.00    -0.322 N 
ATOM     31  H   UNL     1       6.674   1.782  -0.802  0.00  0.00    +0.148 HD
BRANCH  30  32
ATOM     32  C   UNL     1       7.398   0.544   0.716  0.00  0.00    +0.165 C 
BRANCH  32  33
ATOM     33  C   UNL     1       8.653   1.288   0.582  0.00  0.00    -0.069 C 
ATOM     34  C   UNL     1       9.682   1.897   0.474  0.00  0.00    -0.088 C 
ATOM     35  C   UNL     1      10.935   2.639   0.341  0.00  0.00    +0.090 C 
ENDBRANCH  32  33
ENDBRANCH  30  32
ENDBRANCH  29  30
ENDBRANCH  21  24
ENDBRANCH  20  21
ENDBRANCH   3  20
TORSDOF 10
