REMARK  Name = 3943211
REMARK  1 active torsions:
REMARK  status: ('A' for Active; 'I' for Inactive)
REMARK    1  A    between atoms: C_14  and  N_28
REMARK                            x       y       z     vdW  Elec       q    Type
REMARK                         _______ _______ _______ _____ _____    ______ ____
ROOT
ATOM      1  O   UNL     1       1.330  -0.986   1.218  0.00  0.00    -0.470 OA
ATOM      2  O   UNL     1       1.156   1.599   1.000  0.00  0.00    -0.470 OA
ATOM      3  O   UNL     1      -0.985  -2.655   1.055  0.00  0.00    -0.346 OA
ATOM      4  O   UNL     1      -1.360   2.896   0.592  0.00  0.00    -0.346 OA
ATOM      5  O   UNL     1      -3.457  -1.375   0.402  0.00  0.00    -0.470 OA
ATOM      6  O   UNL     1      -3.633   1.210   0.191  0.00  0.00    -0.470 OA
ATOM      7  C   UNL     1       2.413  -0.362   0.651  0.00  0.00    +0.174 C 
ATOM      8  C   UNL     1       2.319   1.039   0.532  0.00  0.00    +0.172 C 
ATOM      9  C   UNL     1       1.379  -2.409   1.343  0.00  0.00    +0.237 C 
ATOM     10  C   UNL     1       1.014   3.017   0.885  0.00  0.00    +0.237 C 
ATOM     11  C   UNL     1       0.076  -2.867   1.986  0.00  0.00    +0.189 C 
ATOM     12  C   UNL     1      -0.344   3.400   1.460  0.00  0.00    +0.189 C 
ATOM     13  C   UNL     1       3.565  -1.018   0.201  0.00  0.00    +0.055 C 
ATOM     14  C   UNL     1       4.614  -0.290  -0.362  0.00  0.00    +0.054 C 
ATOM     15  C   UNL     1      -2.247  -3.057   1.590  0.00  0.00    +0.189 C 
ATOM     16  C   UNL     1      -2.668   3.209   1.071  0.00  0.00    +0.189 C 
ATOM     17  C   UNL     1      -3.320  -2.791   0.542  0.00  0.00    +0.237 C 
ATOM     18  C   UNL     1      -3.688   2.636   0.096  0.00  0.00    +0.237 C 
ATOM     19  C   UNL     1       3.378   1.758  -0.034  0.00  0.00    +0.041 C 
ATOM     20  C   UNL     1      -4.381  -0.913  -0.502  0.00  0.00    +0.172 C 
ATOM     21  C   UNL     1      -4.477   0.488  -0.616  0.00  0.00    +0.172 C 
ATOM     22  C   UNL     1       4.520   1.093  -0.479  0.00  0.00    +0.018 C 
ATOM     23  C   UNL     1      -5.204  -1.729  -1.287  0.00  0.00    +0.040 C 
ATOM     24  C   UNL     1      -5.394   1.047  -1.512  0.00  0.00    +0.040 C 
ATOM     25  C   UNL     1      -6.114  -1.159  -2.177  0.00  0.00    +0.003 C 
ATOM     26  C   UNL     1      -6.209   0.224  -2.290  0.00  0.00    +0.003 C 
ENDROOT
BRANCH  14  28
ATOM     27  O   UNL     1       7.125   0.789  -1.625  0.00  0.00    -0.275 OA
ATOM     28  N   UNL     1       5.760  -0.950  -0.806  0.00  0.00    -0.284 N 
ATOM     29  C   UNL     1       6.906  -0.395  -1.391  0.00  0.00    +0.227 C 
ATOM     30  C   UNL     1       7.927  -1.451  -1.733  0.00  0.00    +0.095 C 
ATOM     31  H   UNL     1       5.764  -1.928  -0.695  0.00  0.00    +0.155 HD
ENDBRANCH  14  28
TORSDOF 1
