REMARK  Name = 18794
REMARK  4 active torsions:
REMARK  status: ('A' for Active; 'I' for Inactive)
REMARK    1  A    between atoms: N_2  and  S_8
REMARK    2  A    between atoms: C_6  and  S_17
REMARK    3  A    between atoms: S_8  and  C_11
REMARK    4  A    between atoms: S_17  and  N_20
REMARK                            x       y       z     vdW  Elec       q    Type
REMARK                         _______ _______ _______ _____ _____    ______ ____
ROOT
ATOM      1  S   UNL     1       2.036  -1.135  -0.585  0.00  0.00    -0.009 S 
ATOM      2  N   UNL     1      -0.537  -0.071  -0.594  0.00  0.00    -0.192 N 
ATOM      3  N   UNL     1       1.374   1.219   0.180  0.00  0.00    -0.123 NA
ATOM      4  N   UNL     1       2.744   1.138   0.363  0.00  0.00    -0.119 NA
ATOM      5  C   UNL     1       0.903   0.105  -0.304  0.00  0.00    +0.202 A 
ATOM      6  C   UNL     1       3.215  -0.037   0.003  0.00  0.00    +0.256 A 
ATOM      7  H   UNL     1      -0.864  -0.765  -1.211  0.00  0.00    +0.176 HD
ENDROOT
BRANCH   2   8
ATOM      8  S   UNL     1      -1.603   1.012   0.210  0.00  0.00    +0.075 S 
ATOM      9  O   UNL     1      -1.697   2.241  -0.568  0.00  0.00    -0.150 OA
ATOM     10  O   UNL     1      -1.257   1.082   1.624  0.00  0.00    -0.150 OA
BRANCH   8  11
ATOM     11  C   UNL     1      -3.118   0.154   0.077  0.00  0.00    +0.125 C 
ATOM     12  C   UNL     1      -3.500  -0.746   1.071  0.00  0.00    +0.020 C 
ATOM     13  C   UNL     1      -3.947   0.370  -1.024  0.00  0.00    +0.020 C 
ATOM     14  C   UNL     1      -4.710  -1.432   0.964  0.00  0.00    +0.001 C 
ATOM     15  C   UNL     1      -5.157  -0.316  -1.131  0.00  0.00    +0.001 C 
ATOM     16  C   UNL     1      -5.538  -1.216  -0.137  0.00  0.00    +0.000 C 
ENDBRANCH   8  11
ENDBRANCH   2   8
BRANCH   6  17
ATOM     17  S   UNL     1       4.872  -0.545   0.076  0.00  0.00    +0.081 S 
ATOM     18  O   UNL     1       5.563   0.247   1.088  0.00  0.00    -0.151 OA
ATOM     19  O   UNL     1       4.918  -2.002   0.154  0.00  0.00    -0.151 OA
BRANCH  17  20
ATOM     20  N   UNL     1       5.438  -0.069  -1.467  0.00  0.00    -0.202 NA
ATOM     21  H   UNL     1       6.423  -0.315  -1.559  0.00  0.00    +0.144 HD
ATOM     22  H   UNL     1       5.328   0.940  -1.573  0.00  0.00    +0.144 HD
ENDBRANCH  17  20
ENDBRANCH   6  17
TORSDOF 4
