REMARK  Name = 9797857
REMARK  4 active torsions:
REMARK  status: ('A' for Active; 'I' for Inactive)
REMARK    1  A    between atoms: C_3  and  N_9
REMARK    2  A    between atoms: C_8  and  C_19
REMARK    3  A    between atoms: C_13  and  O_17
REMARK    4  A    between atoms: C_24  and  C_26
REMARK                            x       y       z     vdW  Elec       q    Type
REMARK                         _______ _______ _______ _____ _____    ______ ____
ROOT
ATOM      1  O   UNL     1      -2.445  -2.572   1.262  0.00  0.00    -0.270 OA
ATOM      2  N   UNL     1      -1.034  -0.861   0.517  0.00  0.00    -0.276 N 
ATOM      3  C   UNL     1       1.304  -0.376  -1.141  0.00  0.00    +0.074 C 
ATOM      4  C   UNL     1      -0.004   0.400  -1.333  0.00  0.00    +0.041 C 
ATOM      5  C   UNL     1       1.060  -1.724  -0.454  0.00  0.00    +0.041 C 
ATOM      6  C   UNL     1      -0.832   0.478  -0.049  0.00  0.00    +0.095 C 
ATOM      7  C   UNL     1       0.197  -1.599   0.801  0.00  0.00    +0.095 C 
ATOM      8  C   UNL     1      -2.270  -1.451   0.788  0.00  0.00    +0.249 C 
ENDROOT
BRANCH   3   9
ATOM      9  N   UNL     1       2.243   0.419  -0.375  0.00  0.00    -0.320 N 
ATOM     10  N   UNL     1       4.143  -0.780  -1.169  0.00  0.00    -0.229 NA
ATOM     11  C   UNL     1       3.611   0.216  -0.396  0.00  0.00    +0.132 C 
ATOM     12  C   UNL     1       4.423   1.049   0.386  0.00  0.00    +0.071 C 
ATOM     13  C   UNL     1       5.800   0.857   0.375  0.00  0.00    +0.143 C 
ATOM     14  C   UNL     1       5.485  -0.937  -1.155  0.00  0.00    +0.103 C 
ATOM     15  C   UNL     1       6.349  -0.153  -0.407  0.00  0.00    +0.058 C 
ATOM     16  H   UNL     1       1.888   1.142   0.191  0.00  0.00    +0.148 HD
BRANCH  13  17
ATOM     17  O   UNL     1       6.607   1.653   1.127  0.00  0.00    -0.471 OA
ATOM     18  C   UNL     1       8.010   1.399   1.066  0.00  0.00    +0.252 C 
ENDBRANCH  13  17
ENDBRANCH   3   9
BRANCH   8  19
ATOM     19  C   UNL     1      -3.481  -0.681   0.484  0.00  0.00    +0.054 C 
ATOM     20  C   UNL     1      -4.072  -0.786  -0.772  0.00  0.00    +0.005 C 
ATOM     21  C   UNL     1      -4.033   0.153   1.453  0.00  0.00    +0.005 C 
ATOM     22  C   UNL     1      -5.223  -0.053  -1.061  0.00  0.00    +0.010 C 
ATOM     23  C   UNL     1      -5.184   0.886   1.164  0.00  0.00    +0.010 C 
ATOM     24  C   UNL     1      -5.779   0.783  -0.093  0.00  0.00    +0.068 C 
BRANCH  24  26
ATOM     25  N   UNL     1      -7.916   2.146  -0.630  0.00  0.00    -0.191 NA
ATOM     26  C   UNL     1      -6.958   1.535  -0.389  0.00  0.00    +0.100 C 
ENDBRANCH  24  26
ENDBRANCH   8  19
TORSDOF 4
