REMARK  Name = 4566
REMARK  6 active torsions:
REMARK  status: ('A' for Active; 'I' for Inactive)
REMARK    1  A    between atoms: N_4  and  C_14
REMARK    2  A    between atoms: C_6  and  O_26
REMARK    3  A    between atoms: C_15  and  S_20
REMARK    4  A    between atoms: S_20  and  N_23
REMARK    5  A    between atoms: O_26  and  C_27
REMARK    6  A    between atoms: C_27  and  C_28
REMARK                            x       y       z     vdW  Elec       q    Type
REMARK                         _______ _______ _______ _____ _____    ______ ____
ROOT
ATOM      1  N   UNL     1      -0.918  -1.126  -0.088  0.00  0.00    -0.293 NA
ATOM      2  N   UNL     1      -4.511  -1.912  -0.112  0.00  0.00    -0.266 NA
ATOM      3  N   UNL     1      -1.419  -3.508   0.077  0.00  0.00    -0.316 NA
ATOM      4  N   UNL     1       0.785  -2.725   0.070  0.00  0.00    -0.238 N 
ATOM      5  N   UNL     1      -3.797  -4.016   0.061  0.00  0.00    -0.296 N 
ATOM      6  C   UNL     1      -2.231  -0.810  -0.142  0.00  0.00    +0.288 C 
ATOM      7  C   UNL     1      -3.147  -1.840  -0.086  0.00  0.00    +0.215 C 
ATOM      8  C   UNL     1      -2.727  -3.159   0.021  0.00  0.00    +0.196 C 
ATOM      9  C   UNL     1      -0.598  -2.438   0.017  0.00  0.00    +0.207 C 
ATOM     10  C   UNL     1      -4.853  -3.236  -0.021  0.00  0.00    +0.164 C 
ATOM     11  H   UNL     1      -5.134  -1.153  -0.183  0.00  0.00    +0.126 HD
ATOM     12  H   UNL     1       0.988  -3.686   0.145  0.00  0.00    +0.166 HD
ATOM     13  H   UNL     1      -3.778  -4.998   0.134  0.00  0.00    +0.150 HD
ENDROOT
BRANCH   4  14
ATOM     14  C   UNL     1       1.928  -1.907   0.036  0.00  0.00    +0.059 C 
ATOM     15  C   UNL     1       4.198  -0.279  -0.031  0.00  0.00    +0.122 C 
ATOM     16  C   UNL     1       3.093  -2.300   0.698  0.00  0.00    +0.017 C 
ATOM     17  C   UNL     1       1.903  -0.695  -0.660  0.00  0.00    +0.017 C 
ATOM     18  C   UNL     1       4.227  -1.488   0.665  0.00  0.00    +0.021 C 
ATOM     19  C   UNL     1       3.037   0.117  -0.693  0.00  0.00    +0.021 C 
BRANCH  15  20
ATOM     20  S   UNL     1       5.617   0.738  -0.072  0.00  0.00    +0.057 S 
ATOM     21  O   UNL     1       6.788  -0.097   0.156  0.00  0.00    -0.153 OA
ATOM     22  O   UNL     1       5.548   1.579  -1.259  0.00  0.00    -0.153 OA
BRANCH  20  23
ATOM     23  N   UNL     1       5.358   1.714   1.306  0.00  0.00    -0.203 NA
ATOM     24  H   UNL     1       6.131   2.372   1.407  0.00  0.00    +0.144 HD
ATOM     25  H   UNL     1       5.305   1.123   2.136  0.00  0.00    +0.144 HD
ENDBRANCH  20  23
ENDBRANCH  15  20
ENDBRANCH   4  14
BRANCH   6  26
ATOM     26  O   UNL     1      -2.590   0.511  -0.247  0.00  0.00    -0.453 OA
BRANCH  26  27
ATOM     27  C   UNL     1      -1.542   1.461  -0.294  0.00  0.00    +0.208 C 
BRANCH  27  28
ATOM     28  C   UNL     1      -2.157   2.855  -0.406  0.00  0.00    +0.044 C 
ATOM     29  C   UNL     1      -3.067   3.145   0.795  0.00  0.00    +0.004 C 
ATOM     30  C   UNL     1      -1.061   3.922  -0.532  0.00  0.00    +0.004 C 
ATOM     31  C   UNL     1      -3.652   4.554   0.733  0.00  0.00    +0.000 C 
ATOM     32  C   UNL     1      -1.650   5.330  -0.592  0.00  0.00    +0.000 C 
ATOM     33  C   UNL     1      -2.560   5.611   0.600  0.00  0.00    +0.000 C 
ENDBRANCH  27  28
ENDBRANCH  26  27
ENDBRANCH   6  26
TORSDOF 6
