REMARK  Name = 22690393
REMARK  6 active torsions:
REMARK  status: ('A' for Active; 'I' for Inactive)
REMARK    1  A    between atoms: C_1  and  O_16
REMARK    2  A    between atoms: C_2  and  N_8
REMARK    3  A    between atoms: C_9  and  C_11
REMARK    4  A    between atoms: C_11  and  N_12
REMARK    5  A    between atoms: O_16  and  C_17
REMARK    6  A    between atoms: C_17  and  C_18
REMARK                            x       y       z     vdW  Elec       q    Type
REMARK                         _______ _______ _______ _____ _____    ______ ____
ROOT
ATOM      1  C   UNL     1       0.197   0.657  -0.012  0.00  0.00    +0.139 C 
ATOM      2  C   UNL     1      -2.592   0.688   0.011  0.00  0.00    +0.050 C 
ATOM      3  C   UNL     1      -0.487   1.872   0.022  0.00  0.00    +0.038 C 
ATOM      4  C   UNL     1      -0.514  -0.543  -0.034  0.00  0.00    +0.038 C 
ATOM      5  C   UNL     1      -1.881   1.888   0.034  0.00  0.00    +0.018 C 
ATOM      6  C   UNL     1      -1.909  -0.528  -0.023  0.00  0.00    +0.018 C 
ENDROOT
BRANCH   2   8
ATOM      7  O   UNL     1      -4.561  -1.577  -0.032  0.00  0.00    -0.277 OA
ATOM      8  N   UNL     1      -3.987   0.703   0.021  0.00  0.00    -0.286 N 
ATOM      9  C   UNL     1      -4.870  -0.391   0.003  0.00  0.00    +0.204 C 
ATOM     10  H   UNL     1      -4.407   1.594   0.045  0.00  0.00    +0.155 HD
BRANCH   9  11
ATOM     11  C   UNL     1      -6.314   0.079   0.024  0.00  0.00    +0.001 C 
BRANCH  11  12
ATOM     12  N   UNL     1      -7.200  -1.076   0.004  0.00  0.00    +0.386 N 
ATOM     13  H   UNL     1      -8.170  -0.762   0.018  0.00  0.00    -0.089 HD
ATOM     14  H   UNL     1      -7.019  -1.657   0.822  0.00  0.00    -0.089 HD
ATOM     15  H   UNL     1      -7.031  -1.620  -0.843  0.00  0.00    -0.089 HD
ENDBRANCH  11  12
ENDBRANCH   9  11
ENDBRANCH   2   8
BRANCH   1  16
ATOM     16  O   UNL     1       1.567   0.642  -0.024  0.00  0.00    -0.471 OA
BRANCH  16  17
ATOM     17  C   UNL     1       2.194  -0.634  -0.058  0.00  0.00    +0.232 C 
BRANCH  17  18
ATOM     18  C   UNL     1       3.675  -0.460  -0.023  0.00  0.00    +0.021 C 
ATOM     19  C   UNL     1       4.391  -0.333  -1.213  0.00  0.00    -0.001 C 
ATOM     20  C   UNL     1       4.343  -0.423   1.201  0.00  0.00    -0.001 C 
ATOM     21  C   UNL     1       5.776  -0.170  -1.180  0.00  0.00    -0.000 C 
ATOM     22  C   UNL     1       5.728  -0.260   1.234  0.00  0.00    -0.000 C 
ATOM     23  C   UNL     1       6.444  -0.134   0.043  0.00  0.00    -0.000 C 
ENDBRANCH  17  18
ENDBRANCH  16  17
ENDBRANCH   1  16
TORSDOF 6
