REMARK  Name = 6914627
REMARK  5 active torsions:
REMARK  status: ('A' for Active; 'I' for Inactive)
REMARK    1  A    between atoms: N_3  and  C_28
REMARK    2  A    between atoms: C_11  and  C_18
REMARK    3  A    between atoms: C_19  and  C_26
REMARK    4  A    between atoms: C_28  and  C_29
REMARK    5  A    between atoms: C_29  and  N_31
REMARK                            x       y       z     vdW  Elec       q    Type
REMARK                         _______ _______ _______ _____ _____    ______ ____
ROOT
ATOM      1  O   UNL     1       2.322   2.421  -0.749  0.00  0.00    -0.473 OA
ATOM      2  O   UNL     1       4.323   0.463   1.483  0.00  0.00    -0.271 OA
ATOM      3  N   UNL     1       2.041   0.284   1.094  0.00  0.00    -0.251 N 
ATOM      4  C   UNL     1       3.439   1.590  -0.463  0.00  0.00    +0.201 C 
ATOM      5  C   UNL     1       0.920   0.791   0.378  0.00  0.00    +0.088 C 
ATOM      6  C   UNL     1       3.325   0.752   0.820  0.00  0.00    +0.266 C 
ATOM      7  C   UNL     1       1.104   1.850  -0.513  0.00  0.00    +0.152 C 
ATOM      8  C   UNL     1       4.638   2.542  -0.336  0.00  0.00    +0.053 C 
ATOM      9  C   UNL     1       3.684   0.646  -1.652  0.00  0.00    +0.053 C 
ATOM     10  C   UNL     1      -0.379   0.296   0.566  0.00  0.00    +0.015 C 
ATOM     11  C   UNL     1      -1.462   0.852  -0.122  0.00  0.00    -0.007 C 
ATOM     12  C   UNL     1       0.020   2.419  -1.188  0.00  0.00    +0.038 C 
ATOM     13  C   UNL     1      -1.263   1.915  -0.997  0.00  0.00    -0.000 C 
ENDROOT
BRANCH  11  18
ATOM     14  N   UNL     1      -4.516  -1.240  -0.567  0.00  0.00    -0.337 NA
ATOM     15  N   UNL     1      -4.897   0.307   1.240  0.00  0.00    -0.317 NA
ATOM     16  N   UNL     1      -3.218   1.843   1.883  0.00  0.00    -0.335 N 
ATOM     17  N   UNL     1      -6.555  -1.222   0.593  0.00  0.00    -0.283 N 
ATOM     18  C   UNL     1      -2.792   0.316   0.071  0.00  0.00    +0.138 C 
ATOM     19  C   UNL     1      -3.284  -0.710  -0.712  0.00  0.00    +0.112 C 
ATOM     20  C   UNL     1      -3.653   0.789   1.041  0.00  0.00    +0.178 C 
ATOM     21  C   UNL     1      -5.259  -0.692   0.413  0.00  0.00    +0.196 C 
ATOM     22  H   UNL     1      -3.817   2.195   2.581  0.00  0.00    +0.144 HD
ATOM     23  H   UNL     1      -2.317   2.223   1.771  0.00  0.00    +0.144 HD
ATOM     24  H   UNL     1      -6.872  -1.954   0.016  0.00  0.00    +0.156 HD
ATOM     25  H   UNL     1      -7.142  -0.859   1.295  0.00  0.00    +0.156 HD
BRANCH  19  26
ATOM     26  C   UNL     1      -2.453  -1.313  -1.798  0.00  0.00    +0.056 C 
ATOM     27  C   UNL     1      -2.646  -0.602  -3.134  0.00  0.00    +0.008 C 
ENDBRANCH  19  26
ENDBRANCH  11  18
BRANCH   3  28
ATOM     28  C   UNL     1       1.835  -0.687   2.163  0.00  0.00    +0.120 C 
BRANCH  28  29
ATOM     29  C   UNL     1       1.808  -2.115   1.643  0.00  0.00    +0.111 C 
BRANCH  29  31
ATOM     30  O   UNL     1       2.193  -2.962  -1.106  0.00  0.00    -0.275 OA
ATOM     31  N   UNL     1       3.044  -2.480   1.007  0.00  0.00    -0.303 N 
ATOM     32  C   UNL     1       3.133  -2.875  -0.321  0.00  0.00    +0.223 C 
ATOM     33  C   UNL     1       4.548  -3.176  -0.738  0.00  0.00    +0.095 C 
ATOM     34  H   UNL     1       3.871  -2.448   1.541  0.00  0.00    +0.149 HD
ENDBRANCH  29  31
ENDBRANCH  28  29
ENDBRANCH   3  28
TORSDOF 5
