REMARK  Name = 10450114
REMARK  5 active torsions:
REMARK  status: ('A' for Active; 'I' for Inactive)
REMARK    1  A    between atoms: C_1  and  N_2
REMARK    2  A    between atoms: C_1  and  C_6
REMARK    3  A    between atoms: C_1  and  C_19
REMARK    4  A    between atoms: C_6  and  C_14
REMARK    5  A    between atoms: C_19  and  C_23
REMARK                            x       y       z     vdW  Elec       q    Type
REMARK                         _______ _______ _______ _____ _____    ______ ____
ROOT
ATOM      1  C   UNL     1      -0.741   2.684   0.217  0.00  0.00    -0.052 C 
ENDROOT
BRANCH   1   2
ATOM      2  N   UNL     1      -1.790   3.019   1.189  0.00  0.00    +0.382 N 
ATOM      3  H   UNL     1      -1.375   3.508   1.982  0.00  0.00    -0.089 HD
ATOM      4  H   UNL     1      -2.238   2.163   1.515  0.00  0.00    -0.089 HD
ATOM      5  H   UNL     1      -2.486   3.619   0.746  0.00  0.00    -0.089 HD
ENDBRANCH   1   2
BRANCH   1   6
ATOM      6  C   UNL     1       0.304   1.846   0.954  0.00  0.00    +0.064 C 
BRANCH   6  14
ATOM      7  O   UNL     1       1.479   1.926  -1.096  0.00  0.00    -0.275 OA
ATOM      8  O   UNL     1       2.887  -1.133  -2.144  0.00  0.00    -0.273 OA
ATOM      9  N   UNL     1       2.494   0.729   0.634  0.00  0.00    -0.273 N 
ATOM     10  N   UNL     1       2.502  -2.093  -0.107  0.00  0.00    -0.303 N 
ATOM     11  C   UNL     1       3.555   0.139  -0.203  0.00  0.00    +0.152 C 
ATOM     12  C   UNL     1       2.456   0.250   2.021  0.00  0.00    +0.096 C 
ATOM     13  C   UNL     1       1.849  -1.151   2.110  0.00  0.00    +0.043 C 
ATOM     14  C   UNL     1       1.476   1.509   0.065  0.00  0.00    +0.224 C 
ATOM     15  C   UNL     1       2.649  -2.198   1.339  0.00  0.00    +0.091 C 
ATOM     16  C   UNL     1       2.950  -1.066  -0.915  0.00  0.00    +0.241 C 
ATOM     17  C   UNL     1       4.238   1.126  -1.147  0.00  0.00    +0.031 C 
ATOM     18  H   UNL     1       2.032  -2.833  -0.556  0.00  0.00    +0.149 HD
ENDBRANCH   6  14
ENDBRANCH   1   6
BRANCH   1  19
ATOM     19  C   UNL     1      -1.395   1.945  -0.971  0.00  0.00    +0.007 C 
BRANCH  19  23
ATOM     20  F   UNL     1      -4.100   1.738  -0.182  0.00  0.00    -0.204 F 
ATOM     21  F   UNL     1      -1.181  -2.882  -0.393  0.00  0.00    -0.202 F 
ATOM     22  F   UNL     1      -3.810  -2.954   0.356  0.00  0.00    -0.202 F 
ATOM     23  C   UNL     1      -2.045   0.631  -0.613  0.00  0.00    +0.006 C 
ATOM     24  C   UNL     1      -3.378   0.610  -0.235  0.00  0.00    +0.138 C 
ATOM     25  C   UNL     1      -1.295  -0.533  -0.670  0.00  0.00    +0.030 C 
ATOM     26  C   UNL     1      -1.894  -1.749  -0.342  0.00  0.00    +0.167 C 
ATOM     27  C   UNL     1      -3.977  -0.606   0.093  0.00  0.00    +0.061 C 
ATOM     28  C   UNL     1      -3.235  -1.786   0.040  0.00  0.00    +0.170 C 
ENDBRANCH  19  23
ENDBRANCH   1  19
TORSDOF 5
