REMARK  Name = 23653514
REMARK  8 active torsions:
REMARK  status: ('A' for Active; 'I' for Inactive)
REMARK    1  A    between atoms: C_1  and  N_11
REMARK    2  A    between atoms: C_8  and  S_21
REMARK    3  A    between atoms: C_12  and  C_14
REMARK    4  A    between atoms: C_14  and  C_15
REMARK    5  A    between atoms: C_14  and  C_18
REMARK    6  A    between atoms: C_15  and  C_16
REMARK    7  A    between atoms: C_18  and  C_19
REMARK    8  A    between atoms: S_21  and  N_24
REMARK                            x       y       z     vdW  Elec       q    Type
REMARK                         _______ _______ _______ _____ _____    ______ ____
ROOT
ATOM      1  C   UNL     1       0.901   1.307  -1.271  0.00  0.00    +0.080 C 
ATOM      2  C   UNL     1      -0.216   0.452  -1.902  0.00  0.00    +0.046 C 
ATOM      3  C   UNL     1       0.201   2.417  -0.462  0.00  0.00    +0.046 C 
ATOM      4  C   UNL     1      -1.333   0.646  -0.922  0.00  0.00    -0.023 C 
ATOM      5  C   UNL     1      -1.097   1.758  -0.107  0.00  0.00    -0.024 C 
ATOM      6  C   UNL     1      -2.497  -0.095  -0.800  0.00  0.00    +0.015 C 
ATOM      7  C   UNL     1      -2.019   2.154   0.847  0.00  0.00    -0.003 C 
ATOM      8  C   UNL     1      -3.427   0.289   0.168  0.00  0.00    +0.121 C 
ATOM      9  C   UNL     1      -3.190   1.405   0.986  0.00  0.00    +0.020 C 
ENDROOT
BRANCH   1  11
ATOM     10  O   UNL     1       3.297  -0.084  -2.033  0.00  0.00    -0.275 OA
ATOM     11  N   UNL     1       1.747   0.503  -0.412  0.00  0.00    -0.305 N 
ATOM     12  C   UNL     1       2.888  -0.132  -0.873  0.00  0.00    +0.222 C 
ATOM     13  H   UNL     1       1.501   0.405   0.536  0.00  0.00    +0.149 HD
BRANCH  12  14
ATOM     14  C   UNL     1       3.642  -0.929   0.195  0.00  0.00    +0.076 C 
BRANCH  14  15
ATOM     15  C   UNL     1       2.785  -2.073   0.769  0.00  0.00    +0.009 C 
BRANCH  15  16
ATOM     16  C   UNL     1       2.344  -3.073  -0.306  0.00  0.00    +0.000 C 
ATOM     17  C   UNL     1       1.478  -4.176   0.285  0.00  0.00    +0.000 C 
ENDBRANCH  15  16
ENDBRANCH  14  15
BRANCH  14  18
ATOM     18  C   UNL     1       4.156   0.028   1.289  0.00  0.00    +0.009 C 
BRANCH  18  19
ATOM     19  C   UNL     1       5.129   1.082   0.753  0.00  0.00    +0.000 C 
ATOM     20  C   UNL     1       5.637   1.985   1.867  0.00  0.00    +0.000 C 
ENDBRANCH  18  19
ENDBRANCH  14  18
ENDBRANCH  12  14
ENDBRANCH   1  11
BRANCH   8  21
ATOM     21  S   UNL     1      -4.905  -0.624   0.357  0.00  0.00    +0.057 S 
ATOM     22  O   UNL     1      -5.910   0.249   0.948  0.00  0.00    -0.153 OA
ATOM     23  O   UNL     1      -5.187  -1.310  -0.895  0.00  0.00    -0.153 OA
BRANCH  21  24
ATOM     24  N   UNL     1      -4.426  -1.779   1.521  0.00  0.00    -0.203 NA
ATOM     25  H   UNL     1      -5.211  -2.395   1.732  0.00  0.00    +0.144 HD
ATOM     26  H   UNL     1      -4.129  -1.302   2.372  0.00  0.00    +0.144 HD
ENDBRANCH  21  24
ENDBRANCH   8  21
TORSDOF 8
