REMARK  Name = 11995761
REMARK  9 active torsions:
REMARK  status: ('A' for Active; 'I' for Inactive)
REMARK    1  A    between atoms: C_2  and  C_23
REMARK    2  A    between atoms: C_3  and  C_13
REMARK    3  A    between atoms: C_4  and  C_7
REMARK    4  A    between atoms: C_16  and  O_19
REMARK    5  A    between atoms: O_19  and  C_20
REMARK    6  A    between atoms: C_20  and  C_21
REMARK    7  A    between atoms: C_23  and  C_25
REMARK    8  A    between atoms: C_25  and  N_26
REMARK    9  A    between atoms: N_26  and  C_29
REMARK                            x       y       z     vdW  Elec       q    Type
REMARK                         _______ _______ _______ _____ _____    ______ ____
ROOT
ATOM      1  S   UNL     1       2.561   2.664  -0.962  0.00  0.00    -0.087 S 
ATOM      2  C   UNL     1       1.290   0.658  -0.009  0.00  0.00    -0.006 C 
ATOM      3  C   UNL     1       0.301   1.629  -0.315  0.00  0.00    +0.003 C 
ATOM      4  C   UNL     1       2.560   1.082  -0.308  0.00  0.00    +0.027 C 
ATOM      5  C   UNL     1       0.857   2.774  -0.842  0.00  0.00    +0.035 C 
ENDROOT
BRANCH   4   7
ATOM      6 CL   UNL     1       4.049   1.457   2.367  0.00  0.00    -0.082 Cl
ATOM      7  C   UNL     1       3.826   0.403  -0.150  0.00  0.00    +0.016 C 
ATOM      8  C   UNL     1       4.578   0.508   1.021  0.00  0.00    +0.058 C 
ATOM      9  C   UNL     1       4.293  -0.375  -1.210  0.00  0.00    +0.001 C 
ATOM     10  C   UNL     1       5.795  -0.164   1.132  0.00  0.00    +0.011 C 
ATOM     11  C   UNL     1       5.511  -1.047  -1.099  0.00  0.00    +0.000 C 
ATOM     12  C   UNL     1       6.262  -0.941   0.071  0.00  0.00    +0.001 C 
ENDBRANCH   4   7
BRANCH   3  13
ATOM     13  C   UNL     1      -1.124   1.530  -0.136  0.00  0.00    +0.000 C 
ATOM     14  C   UNL     1      -1.918   1.023  -1.161  0.00  0.00    +0.003 C 
ATOM     15  C   UNL     1      -1.703   1.943   1.062  0.00  0.00    +0.003 C 
ATOM     16  C   UNL     1      -3.882   1.339   0.211  0.00  0.00    +0.139 C 
ATOM     17  C   UNL     1      -3.299   0.927  -0.988  0.00  0.00    +0.037 C 
ATOM     18  C   UNL     1      -3.084   1.847   1.236  0.00  0.00    +0.037 C 
BRANCH  16  19
ATOM     19  O   UNL     1      -5.229   1.246   0.380  0.00  0.00    -0.475 OA
BRANCH  19  20
ATOM     20  C   UNL     1      -5.900   0.197  -0.317  0.00  0.00    +0.205 C 
BRANCH  20  21
ATOM     21  C   UNL     1      -7.128  -0.216   0.480  0.00  0.00    +0.047 C 
ATOM     22  C   UNL     1      -7.887  -1.344  -0.196  0.00  0.00    +0.004 C 
ENDBRANCH  20  21
ENDBRANCH  19  20
ENDBRANCH  16  19
ENDBRANCH   3  13
BRANCH   2  23
ATOM     23  C   UNL     1       0.979  -0.684   0.576  0.00  0.00    +0.114 C 
BRANCH  23  25
ATOM     24  O   UNL     1       0.809  -1.498  -1.692  0.00  0.00    -0.273 OA
ATOM     25  C   UNL     1       0.733  -1.738  -0.489  0.00  0.00    +0.252 C 
BRANCH  25  26
ATOM     26  N   UNL     1       0.483  -2.978   0.058  0.00  0.00    -0.147 NA
BRANCH  26  29
ATOM     27  N   UNL     1      -1.783  -2.440   0.067  0.00  0.00    -0.372 N 
ATOM     28  N   UNL     1      -1.200  -4.491   0.879  0.00  0.00    -0.372 N 
ATOM     29  C   UNL     1      -0.751  -3.309   0.333  0.00  0.00    +0.184 C 
ATOM     30  H   UNL     1      -1.594  -1.557  -0.326  0.00  0.00    +0.159 HD
ATOM     31  H   UNL     1      -2.710  -2.700   0.269  0.00  0.00    +0.159 HD
ATOM     32  H   UNL     1      -0.558  -5.198   1.116  0.00  0.00    +0.159 HD
ATOM     33  H   UNL     1      -2.163  -4.628   1.032  0.00  0.00    +0.159 HD
ENDBRANCH  26  29
ENDBRANCH  25  26
ENDBRANCH  23  25
ENDBRANCH   2  23
TORSDOF 9
