REMARK  Name = 15991547
REMARK  2 active torsions:
REMARK  status: ('A' for Active; 'I' for Inactive)
REMARK    1  A    between atoms: N_2  and  C_7
REMARK    2  A    between atoms: C_3  and  C_20
REMARK                            x       y       z     vdW  Elec       q    Type
REMARK                         _______ _______ _______ _____ _____    ______ ____
ROOT
ATOM      1  O   UNL     1      -0.416   1.573   1.478  0.00  0.00    -0.269 OA
ATOM      2  N   UNL     1       0.191  -0.256   0.187  0.00  0.00    -0.294 N 
ATOM      3  C   UNL     1      -0.716   0.642   0.734  0.00  0.00    +0.260 C 
ATOM      4  H   UNL     1      -0.147  -0.970  -0.400  0.00  0.00    +0.150 HD
ENDROOT
BRANCH   2   7
ATOM      5  O   UNL     1       1.469  -2.580   0.759  0.00  0.00    -0.273 OA
ATOM      6  N   UNL     1       3.540  -1.692   0.345  0.00  0.00    -0.283 N 
ATOM      7  C   UNL     1       1.606  -0.183   0.443  0.00  0.00    +0.154 C 
ATOM      8  C   UNL     1       2.300   0.692  -0.595  0.00  0.00    +0.057 C 
ATOM      9  C   UNL     1       3.792   0.589  -0.463  0.00  0.00    -0.007 C 
ATOM     10  C   UNL     1       4.363  -0.616  -0.033  0.00  0.00    +0.046 C 
ATOM     11  C   UNL     1       2.166  -1.601   0.492  0.00  0.00    +0.244 C 
ATOM     12  C   UNL     1       4.627   1.641  -0.858  0.00  0.00    -0.003 C 
ATOM     13  C   UNL     1       5.751  -0.771  -0.002  0.00  0.00    +0.014 C 
ATOM     14  C   UNL     1       6.013   1.492  -0.809  0.00  0.00    -0.000 C 
ATOM     15  C   UNL     1       6.574   0.288  -0.384  0.00  0.00    +0.001 C 
ATOM     16  H   UNL     1       3.967  -2.562   0.516  0.00  0.00    +0.155 HD
ENDBRANCH   2   7
BRANCH   3  20
ATOM     17 CL   UNL     1      -7.864  -0.591  -1.041  0.00  0.00    -0.075 Cl
ATOM     18  S   UNL     1      -5.896   1.106   0.444  0.00  0.00    -0.061 S 
ATOM     19  N   UNL     1      -3.120   1.232   0.873  0.00  0.00    -0.304 N 
ATOM     20  C   UNL     1      -2.144   0.416   0.395  0.00  0.00    +0.103 C 
ATOM     21  C   UNL     1      -3.995  -0.333  -0.380  0.00  0.00    +0.022 C 
ATOM     22  C   UNL     1      -4.277   0.740   0.372  0.00  0.00    +0.080 C 
ATOM     23  C   UNL     1      -2.628  -0.578  -0.392  0.00  0.00    +0.021 C 
ATOM     24  C   UNL     1      -5.094  -0.953  -0.968  0.00  0.00    +0.020 C 
ATOM     25  C   UNL     1      -6.241  -0.257  -0.597  0.00  0.00    +0.088 C 
ATOM     26  H   UNL     1      -3.008   2.014   1.459  0.00  0.00    +0.153 HD
ENDBRANCH   3  20
TORSDOF 2
