REMARK  Name = 23647357
REMARK  9 active torsions:
REMARK  status: ('A' for Active; 'I' for Inactive)
REMARK    1  A    between atoms: N_2  and  CA_13
REMARK    2  A    between atoms: C_3  and  C_6
REMARK    3  A    between atoms: C_7  and  C_9
REMARK    4  A    between atoms: C_9  and  O_10
REMARK    5  A    between atoms: O_10  and  C_11
REMARK    6  A    between atoms: CA_13  and  C_15
REMARK    7  A    between atoms: CA_13  and  CB_18
REMARK    8  A    between atoms: C_15  and  O_16
REMARK    9  A    between atoms: CB_18  and  CG1_20
REMARK                            x       y       z     vdW  Elec       q    Type
REMARK                         _______ _______ _______ _____ _____    ______ ____
ROOT
ATOM      1  O   UNL     1       0.661  -2.454  -1.416  0.00  0.00    -0.272 OA
ATOM      2  N   UNL     1       0.922  -0.338  -0.479  0.00  0.00    -0.295 N 
ATOM      3  C   ACE A   0       0.192  -1.408  -0.974  0.00  0.00    +0.253 C 
ATOM      4  H   UNL     1       0.432   0.450  -0.150  0.00  0.00    +0.150 HD
ENDROOT
BRANCH   3   6
ATOM      5  O   UNL     1      -1.963  -2.257  -0.269  0.00  0.00    -0.333 OA
ATOM      6  C   UNL     1      -1.293  -1.175  -0.895  0.00  0.00    +0.229 C 
ATOM      7  C   UNL     1      -1.918  -1.012   0.439  0.00  0.00    +0.250 C 
BRANCH   7   9
ATOM      8  O   UNL     1      -4.220  -0.953   0.915  0.00  0.00    -0.247 OA
ATOM      9  C   UNL     1      -3.226  -0.353   0.531  0.00  0.00    +0.347 C 
BRANCH   9  10
ATOM     10  O   UNL     1      -3.156   0.949   0.142  0.00  0.00    -0.447 OA
BRANCH  10  11
ATOM     11  C   UNL     1      -4.389   1.674   0.198  0.00  0.00    +0.209 C 
ATOM     12  C   UNL     1      -4.147   3.096  -0.262  0.00  0.00    +0.051 C 
ENDBRANCH  10  11
ENDBRANCH   9  10
ENDBRANCH   7   9
ENDBRANCH   3   6
BRANCH   2  13
ATOM     13  CA  UNL     1       2.362  -0.322  -0.421  0.00  0.00    +0.171 C 
BRANCH  13  15
ATOM     14  OXT UNL     1       4.071  -1.216   1.042  0.00  0.00    -0.248 OA
ATOM     15  C   UNL     1       2.880  -1.014   0.833  0.00  0.00    +0.332 C 
BRANCH  15  16
ATOM     16  O   UNL     1       1.917  -1.403   1.702  0.00  0.00    -0.479 OA
ATOM     17  H   UNL     1       1.015  -1.232   1.510  0.00  0.00    +0.295 HD
ENDBRANCH  15  16
ENDBRANCH  13  15
BRANCH  13  18
ATOM     18  CB  UNL     1       2.952   1.102  -0.569  0.00  0.00    +0.029 C 
ATOM     19  CG2 UNL     1       2.490   1.799  -1.856  0.00  0.00    +0.002 C 
BRANCH  18  20
ATOM     20  CG1 UNL     1       2.630   1.943   0.685  0.00  0.00    +0.002 C 
ATOM     21  CD1 UNL     1       3.236   3.340   0.654  0.00  0.00    +0.000 C 
ENDBRANCH  18  20
ENDBRANCH  13  18
ENDBRANCH   2  13
TORSDOF 9
