REMARK  Name = 486953
REMARK  7 active torsions:
REMARK  status: ('A' for Active; 'I' for Inactive)
REMARK    1  A    between atoms: C_3  and  C_18
REMARK    2  A    between atoms: C_4  and  C_16
REMARK    3  A    between atoms: C_5  and  N_10
REMARK    4  A    between atoms: N_10  and  C_12
REMARK    5  A    between atoms: C_12  and  C_13
REMARK    6  A    between atoms: C_13  and  O_14
REMARK    7  A    between atoms: C_18  and  C_19
REMARK                            x       y       z     vdW  Elec       q    Type
REMARK                         _______ _______ _______ _____ _____    ______ ____
ROOT
ATOM      1  O   UNL     1       2.356  -0.689   2.243  0.00  0.00    -0.266 OA
ATOM      2  N   UNL     1       1.259  -2.468   1.313  0.00  0.00    -0.324 N 
ATOM      3  C   UNL     1       0.006  -0.756  -0.450  0.00  0.00    -0.003 A 
ATOM      4  C   UNL     1      -0.280  -2.206  -0.456  0.00  0.00    -0.013 A 
ATOM      5  C   UNL     1       0.876  -0.217   0.435  0.00  0.00    +0.101 A 
ATOM      6  C   UNL     1       0.369  -3.009   0.414  0.00  0.00    +0.032 A 
ATOM      7  C   UNL     1       1.563  -1.129   1.411  0.00  0.00    +0.270 A 
ATOM      8  C   UNL     1       0.191  -4.496   0.546  0.00  0.00    +0.050 C 
ATOM      9  H   UNL     1       1.712  -3.084   1.933  0.00  0.00    +0.169 HD
ENDROOT
BRANCH   5  10
ATOM     10  N   UNL     1       1.228   1.098   0.558  0.00  0.00    -0.300 N 
ATOM     11  C   UNL     1       0.999   1.831   1.795  0.00  0.00    +0.112 C 
BRANCH  10  12
ATOM     12  C   UNL     1       2.065   1.755  -0.437  0.00  0.00    +0.123 C 
BRANCH  12  13
ATOM     13  C   UNL     1       3.531   1.579  -0.081  0.00  0.00    +0.164 C 
BRANCH  13  14
ATOM     14  O   UNL     1       4.338   2.194  -1.078  0.00  0.00    -0.349 OA
ATOM     15  C   UNL     1       5.721   2.050  -0.791  0.00  0.00    +0.174 C 
ENDBRANCH  13  14
ENDBRANCH  12  13
ENDBRANCH  10  12
ENDBRANCH   5  10
BRANCH   4  16
ATOM     16  C   UNL     1      -1.255  -2.728  -1.483  0.00  0.00    +0.027 C 
ATOM     17  C   UNL     1      -0.549  -3.124  -2.761  0.00  0.00    +0.005 C 
ENDBRANCH   4  16
BRANCH   3  18
ATOM     18  C   UNL     1      -0.733   0.096  -1.458  0.00  0.00    +0.054 C 
BRANCH  18  19
ATOM     19  C   UNL     1      -1.828   0.896  -0.821  0.00  0.00    -0.018 C 
ATOM     20  C   UNL     1      -2.684   0.290   0.094  0.00  0.00    -0.008 C 
ATOM     21  C   UNL     1      -1.982   2.239  -1.150  0.00  0.00    -0.004 C 
ATOM     22  C   UNL     1      -3.703   1.035   0.686  0.00  0.00    -0.022 C 
ATOM     23  C   UNL     1      -3.002   2.984  -0.557  0.00  0.00    -0.001 C 
ATOM     24  C   UNL     1      -3.862   2.382   0.361  0.00  0.00    -0.004 C 
ATOM     25  C   UNL     1      -4.624   0.392   1.667  0.00  0.00    +0.031 C 
ENDBRANCH  18  19
ENDBRANCH   3  18
TORSDOF 7
