REMARK  Name = 24752844
REMARK  3 active torsions:
REMARK  status: ('A' for Active; 'I' for Inactive)
REMARK    1  A    between atoms: C_3  and  C_20
REMARK    2  A    between atoms: C_4  and  N_25
REMARK    3  A    between atoms: C_7  and  C_10
REMARK                            x       y       z     vdW  Elec       q    Type
REMARK                         _______ _______ _______ _____ _____    ______ ____
ROOT
ATOM      1  O   UNL     1      -0.381  -2.567  -1.297  0.00  0.00    -0.267 OA
ATOM      2  N   UNL     1       0.401  -1.081   0.308  0.00  0.00    -0.276 N 
ATOM      3  C   UNL     1       2.560  -0.499   1.096  0.00  0.00    +0.078 C 
ATOM      4  C   UNL     1       1.510  -0.094   2.140  0.00  0.00    -0.035 C 
ATOM      5  C   UNL     1       1.796  -1.503   0.234  0.00  0.00    +0.101 C 
ATOM      6  C   UNL     1       0.212  -0.054   1.333  0.00  0.00    +0.073 C 
ATOM      7  C   UNL     1      -0.576  -1.666  -0.483  0.00  0.00    +0.276 C 
ENDROOT
BRANCH   7  10
ATOM      8  N   UNL     1      -2.172   0.121  -0.585  0.00  0.00    -0.402 NA
ATOM      9  N   UNL     1      -4.235  -1.570   0.194  0.00  0.00    -0.264 NA
ATOM     10  C   UNL     1      -1.957  -1.182  -0.329  0.00  0.00    +0.186 C 
ATOM     11  C   UNL     1      -2.973  -2.015   0.054  0.00  0.00    +0.188 C 
ATOM     12  C   UNL     1      -3.427   0.586  -0.452  0.00  0.00    +0.126 C 
ATOM     13  C   UNL     1      -4.472  -0.270  -0.058  0.00  0.00    +0.084 C 
ATOM     14  C   UNL     1      -3.709   1.927  -0.704  0.00  0.00    +0.086 C 
ATOM     15  C   UNL     1      -5.759   0.246   0.070  0.00  0.00    +0.073 C 
ATOM     16  C   UNL     1      -5.001   2.433  -0.573  0.00  0.00    -0.023 C 
ATOM     17  C   UNL     1      -6.030   1.589  -0.184  0.00  0.00    -0.024 C 
ENDBRANCH   7  10
BRANCH   3  20
ATOM     18  O   UNL     1       2.315   1.636   0.069  0.00  0.00    -0.275 OA
ATOM     19  N   UNL     1       4.300   0.512  -0.295  0.00  0.00    -0.280 N 
ATOM     20  C   UNL     1       3.036   0.653   0.247  0.00  0.00    +0.225 C 
ATOM     21  C   UNL     1       5.203  -0.621  -0.120  0.00  0.00    +0.093 C 
ATOM     22  C   UNL     1       4.900   1.532  -1.142  0.00  0.00    +0.093 C 
ATOM     23  C   UNL     1       6.309  -0.386  -1.140  0.00  0.00    +0.023 C 
ATOM     24  C   UNL     1       6.365   1.133  -1.239  0.00  0.00    +0.023 C 
ENDBRANCH   3  20
BRANCH   4  25
ATOM     25  N   UNL     1       1.786   1.139   2.858  0.00  0.00    +0.383 N 
ATOM     26  H   UNL     1       2.661   1.045   3.372  0.00  0.00    -0.089 HD
ATOM     27  H   UNL     1       1.026   1.330   3.511  0.00  0.00    -0.089 HD
ATOM     28  H   UNL     1       1.863   1.909   2.193  0.00  0.00    -0.089 HD
ENDBRANCH   4  25
TORSDOF 3
