REMARK  Name = 3699841
REMARK  2 active torsions:
REMARK  status: ('A' for Active; 'I' for Inactive)
REMARK    1  A    between atoms: C_2  and  C_9
REMARK    2  A    between atoms: C_9  and  C_11
REMARK                            x       y       z     vdW  Elec       q    Type
REMARK                         _______ _______ _______ _____ _____    ______ ____
ROOT
ATOM      1  N   UNL     1      -4.204   0.733  -0.340  0.00  0.00    +0.384 N 
ATOM      2  C   UNL     1      -1.533  -0.417   0.068  0.00  0.00    +0.000 C 
ATOM      3  C   UNL     1      -2.816  -1.243   0.222  0.00  0.00    -0.023 C 
ATOM      4  C   UNL     1      -1.834   1.068   0.309  0.00  0.00    -0.023 C 
ATOM      5  C   UNL     1      -3.945  -0.677  -0.639  0.00  0.00    -0.082 C 
ATOM      6  C   UNL     1      -3.002   1.543  -0.555  0.00  0.00    -0.082 C 
ATOM      7  H   UNL     1      -4.495   0.820   0.633  0.00  0.00    -0.085 HD
ATOM      8  H   UNL     1      -4.938   1.069  -0.964  0.00  0.00    -0.085 HD
ENDROOT
BRANCH   2   9
ATOM      9  C   UNL     1      -0.442  -0.916   1.011  0.00  0.00    +0.026 C 
BRANCH   9  11
ATOM     10  F   UNL     1       4.669   0.631  -0.740  0.00  0.00    -0.204 F 
ATOM     11  C   UNL     1       0.926  -0.502   0.542  0.00  0.00    -0.022 C 
ATOM     12  C   UNL     1       1.637  -1.333  -0.313  0.00  0.00    -0.002 C 
ATOM     13  C   UNL     1       1.460   0.706   0.971  0.00  0.00    -0.002 C 
ATOM     14  C   UNL     1       2.905  -0.949  -0.748  0.00  0.00    +0.029 C 
ATOM     15  C   UNL     1       2.728   1.090   0.536  0.00  0.00    +0.029 C 
ATOM     16  C   UNL     1       3.451   0.263  -0.323  0.00  0.00    +0.140 C 
ENDBRANCH   9  11
ENDBRANCH   2   9
TORSDOF 2
