REMARK  Name = 24812720
REMARK  5 active torsions:
REMARK  status: ('A' for Active; 'I' for Inactive)
REMARK    1  A    between atoms: N_1  and  S_17
REMARK    2  A    between atoms: N_2  and  C_8
REMARK    3  A    between atoms: C_13  and  N_16
REMARK    4  A    between atoms: S_17  and  C_20
REMARK    5  A    between atoms: C_21  and  C_26
REMARK                            x       y       z     vdW  Elec       q    Type
REMARK                         _______ _______ _______ _____ _____    ______ ____
ROOT
ATOM      1  N   UNL     1       0.755  -2.338  -0.142  0.00  0.00    -0.153 NA
ATOM      2  N   UNL     1      -1.706  -0.826  -0.101  0.00  0.00    -0.305 N 
ATOM      3  C   UNL     1       0.087  -2.000   1.153  0.00  0.00    +0.099 C 
ATOM      4  C   UNL     1      -0.796  -0.748   1.044  0.00  0.00    +0.108 C 
ATOM      5  C   UNL     1       0.306  -1.550  -1.315  0.00  0.00    +0.117 C 
ATOM      6  C   UNL     1      -1.216  -1.461  -1.326  0.00  0.00    +0.110 C 
ATOM      7  C   UNL     1      -0.704  -3.224   1.615  0.00  0.00    +0.021 C 
ENDROOT
BRANCH   2   8
ATOM      8  C   UNL     1      -2.962  -0.223  -0.078  0.00  0.00    +0.048 C 
ATOM      9  C   UNL     1      -3.198   0.862   0.765  0.00  0.00    +0.016 C 
ATOM     10  C   UNL     1      -3.982  -0.705  -0.898  0.00  0.00    +0.016 C 
ATOM     11  C   UNL     1      -4.456   1.465   0.789  0.00  0.00    +0.025 C 
ATOM     12  C   UNL     1      -5.240  -0.102  -0.874  0.00  0.00    +0.025 C 
ATOM     13  C   UNL     1      -5.476   0.983  -0.030  0.00  0.00    +0.143 C 
BRANCH  13  16
ATOM     14  O   UNL     1      -7.661   1.149  -0.751  0.00  0.00    -0.126 OA
ATOM     15  O   UNL     1      -6.949   2.572   0.761  0.00  0.00    -0.126 OA
ATOM     16  N   UNL     1      -6.756   1.597  -0.006  0.00  0.00    +0.058 N 
ENDBRANCH  13  16
ENDBRANCH   2   8
BRANCH   1  17
ATOM     17  S   UNL     1       2.417  -2.727  -0.079  0.00  0.00    +0.063 S 
ATOM     18  O   UNL     1       2.805  -3.364  -1.321  0.00  0.00    -0.153 OA
ATOM     19  O   UNL     1       2.711  -3.348   1.196  0.00  0.00    -0.153 OA
BRANCH  17  20
ATOM     20  C   UNL     1       3.118  -1.106  -0.066  0.00  0.00    +0.122 C 
ATOM     21  C   UNL     1       4.227   1.454  -0.044  0.00  0.00    -0.023 C 
ATOM     22  C   UNL     1       3.439  -0.475  -1.268  0.00  0.00    +0.020 C 
ATOM     23  C   UNL     1       3.351  -0.457   1.147  0.00  0.00    +0.020 C 
ATOM     24  C   UNL     1       3.993   0.805  -1.257  0.00  0.00    -0.003 C 
ATOM     25  C   UNL     1       3.905   0.823   1.157  0.00  0.00    -0.003 C 
BRANCH  21  26
ATOM     26  C   UNL     1       4.819   2.822  -0.033  0.00  0.00    +0.019 C 
ATOM     27  C   UNL     1       5.136   3.429  -1.440  0.00  0.00    +0.004 C 
ATOM     28  C   UNL     1       3.862   3.846   0.654  0.00  0.00    +0.004 C 
ATOM     29  C   UNL     1       6.171   2.847   0.745  0.00  0.00    +0.004 C 
ENDBRANCH  21  26
ENDBRANCH  17  20
ENDBRANCH   1  17
TORSDOF 5
