REMARK  Name = 25093369
REMARK  5 active torsions:
REMARK  status: ('A' for Active; 'I' for Inactive)
REMARK    1  A    between atoms: C_1  and  C_3
REMARK    2  A    between atoms: C_1  and  C_17
REMARK    3  A    between atoms: C_4  and  C_9
REMARK    4  A    between atoms: C_7  and  O_15
REMARK    5  A    between atoms: C_18  and  C_23
REMARK                            x       y       z     vdW  Elec       q    Type
REMARK                         _______ _______ _______ _____ _____    ______ ____
ROOT
ATOM      1  C   UNL     1      -0.099   2.087   1.369  0.00  0.00    +0.086 C 
ATOM      2  C   UNL     1      -0.228   1.899   2.893  0.00  0.00    +0.019 C 
ENDROOT
BRANCH   1   3
ATOM      3  C   UNL     1      -1.310   1.626   0.631  0.00  0.00    -0.007 C 
ATOM      4  C   UNL     1      -2.822  -0.147  -0.008  0.00  0.00    +0.003 C 
ATOM      5  C   UNL     1      -1.690   0.284   0.683  0.00  0.00    -0.003 C 
ATOM      6  C   UNL     1      -2.062   2.536  -0.112  0.00  0.00    +0.034 C 
ATOM      7  C   UNL     1      -3.194   2.104  -0.803  0.00  0.00    +0.138 C 
ATOM      8  C   UNL     1      -3.574   0.763  -0.751  0.00  0.00    +0.037 C 
BRANCH   4   9
ATOM      9  C   UNL     1      -3.217  -1.537   0.046  0.00  0.00    +0.000 C 
ATOM     10  C   UNL     1      -2.727  -2.440  -0.897  0.00  0.00    +0.000 C 
ATOM     11  C   UNL     1      -4.089  -1.976   1.043  0.00  0.00    +0.000 C 
ATOM     12  C   UNL     1      -3.107  -3.780  -0.845  0.00  0.00    +0.000 C 
ATOM     13  C   UNL     1      -4.470  -3.317   1.096  0.00  0.00    +0.000 C 
ATOM     14  C   UNL     1      -3.979  -4.219   0.152  0.00  0.00    +0.000 C 
ENDBRANCH   4   9
BRANCH   7  15
ATOM     15  O   UNL     1      -3.929   2.993  -1.527  0.00  0.00    -0.471 OA
ATOM     16  C   UNL     1      -3.484   4.348  -1.536  0.00  0.00    +0.252 C 
ENDBRANCH   7  15
ENDBRANCH   1   3
BRANCH   1  17
ATOM     17  C   UNL     1       1.142   1.428   0.888  0.00  0.00    -0.087 C 
ATOM     18  C   UNL     1       2.149   0.887   0.519  0.00  0.00    -0.076 C 
BRANCH  18  23
ATOM     19  N   UNL     1       5.505  -0.695   0.604  0.00  0.00    -0.336 NA
ATOM     20  N   UNL     1       4.694  -0.720  -1.665  0.00  0.00    -0.317 NA
ATOM     21  N   UNL     1       2.577   0.192  -2.195  0.00  0.00    -0.334 N 
ATOM     22  N   UNL     1       6.792  -1.621  -1.125  0.00  0.00    -0.283 N 
ATOM     23  C   UNL     1       3.348   0.238   0.086  0.00  0.00    +0.179 C 
ATOM     24  C   UNL     1       4.359  -0.083   0.968  0.00  0.00    +0.120 C 
ATOM     25  C   UNL     1       3.572  -0.107  -1.231  0.00  0.00    +0.186 C 
ATOM     26  C   UNL     1       4.241   0.237   2.424  0.00  0.00    +0.064 C 
ATOM     27  C   UNL     1       5.605  -0.980  -0.708  0.00  0.00    +0.196 C 
ATOM     28  H   UNL     1       2.718  -0.047  -3.139  0.00  0.00    +0.144 HD
ATOM     29  H   UNL     1       1.743   0.638  -1.919  0.00  0.00    +0.144 HD
ATOM     30  H   UNL     1       7.493  -1.835  -0.468  0.00  0.00    +0.156 HD
ATOM     31  H   UNL     1       6.919  -1.853  -2.074  0.00  0.00    +0.156 HD
ENDBRANCH  18  23
ENDBRANCH   1  17
TORSDOF 5
