REMARK  Name = 3506204
REMARK  10 active torsions:
REMARK  status: ('A' for Active; 'I' for Inactive)
REMARK    1  A    between atoms: N_1  and  C_6
REMARK    2  A    between atoms: N_1  and  O_15
REMARK    3  A    between atoms: C_11  and  O_17
REMARK    4  A    between atoms: C_12  and  O_23
REMARK    5  A    between atoms: O_17  and  C_18
REMARK    6  A    between atoms: C_18  and  C_20
REMARK    7  A    between atoms: C_20  and  O_21
REMARK    8  A    between atoms: O_23  and  C_24
REMARK    9  A    between atoms: C_24  and  C_26
REMARK   10  A    between atoms: C_26  and  O_27
REMARK                            x       y       z     vdW  Elec       q    Type
REMARK                         _______ _______ _______ _____ _____    ______ ____
ROOT
ATOM      1  C   UNL     1      -0.782  -1.227   0.093  0.00  0.00    -0.012 C 
ATOM      2  C   UNL     1       0.652  -1.235  -0.107  0.00  0.00    -0.002 C 
ATOM      3  C   UNL     1      -1.229   0.104   0.174  0.00  0.00    +0.090 C 
ATOM      4  C   UNL     1       1.120   0.091  -0.154  0.00  0.00    +0.019 C 
ATOM      5  C   UNL     1      -0.049   0.970   0.021  0.00  0.00    +0.093 C 
ATOM      6  C   UNL     1      -1.692  -2.263   0.206  0.00  0.00    -0.000 C 
ATOM      7  C   UNL     1       1.544  -2.284  -0.246  0.00  0.00    +0.003 C 
ATOM      8  C   UNL     1      -2.553   0.445   0.363  0.00  0.00    +0.021 C 
ATOM      9  C   UNL     1       2.452   0.411  -0.336  0.00  0.00    +0.038 C 
ATOM     10  C   UNL     1      -3.467  -0.603   0.476  0.00  0.00    +0.136 C 
ATOM     11  C   UNL     1       3.347  -0.650  -0.476  0.00  0.00    +0.139 C 
ATOM     12  C   UNL     1      -3.041  -1.943   0.399  0.00  0.00    +0.036 C 
ATOM     13  C   UNL     1       2.898  -1.984  -0.431  0.00  0.00    +0.037 C 
ENDROOT
BRANCH   5  14
ATOM     14  N   UNL     1      -0.013   2.256   0.033  0.00  0.00    -0.138 NA
BRANCH  14  15
ATOM     15  O   UNL     1       1.312   2.664  -0.146  0.00  0.00    -0.266 OA
ATOM     16  H   UNL     1       1.523   3.576  -0.163  0.00  0.00    +0.247 HD
ENDBRANCH  14  15
ENDBRANCH   5  14
BRANCH  10  17
ATOM     17  O   UNL     1      -4.789  -0.329   0.664  0.00  0.00    -0.464 OA
BRANCH  17  18
ATOM     18  C   UNL     1      -5.283   0.887   0.109  0.00  0.00    +0.314 C 
BRANCH  18  20
ATOM     19  O   UNL     1      -7.402  -0.284  -0.105  0.00  0.00    -0.246 OA
ATOM     20  C   UNL     1      -6.737   0.732  -0.243  0.00  0.00    +0.359 C 
BRANCH  20  21
ATOM     21  O   UNL     1      -7.224   1.895  -0.745  0.00  0.00    -0.478 OA
ATOM     22  H   UNL     1      -6.664   2.641  -0.826  0.00  0.00    +0.295 HD
ENDBRANCH  20  21
ENDBRANCH  18  20
ENDBRANCH  17  18
ENDBRANCH  10  17
BRANCH  11  23
ATOM     23  O   UNL     1       4.673  -0.395  -0.659  0.00  0.00    -0.464 OA
BRANCH  23  24
ATOM     24  C   UNL     1       5.189   0.798  -0.073  0.00  0.00    +0.314 C 
BRANCH  24  26
ATOM     25  O   UNL     1       7.287  -0.414   0.107  0.00  0.00    -0.246 OA
ATOM     26  C   UNL     1       6.640   0.609   0.273  0.00  0.00    +0.359 C 
BRANCH  26  27
ATOM     27  O   UNL     1       7.148   1.750   0.803  0.00  0.00    -0.478 OA
ATOM     28  H   UNL     1       6.601   2.504   0.904  0.00  0.00    +0.295 HD
ENDBRANCH  26  27
ENDBRANCH  24  26
ENDBRANCH  23  24
ENDBRANCH  11  23
TORSDOF 10
