REMARK  Name = 25023705
REMARK  6 active torsions:
REMARK  status: ('A' for Active; 'I' for Inactive)
REMARK    1  A    between atoms: C_1  and  C_8
REMARK    2  A    between atoms: C_1  and  C_20
REMARK    3  A    between atoms: C_20  and  N_22
REMARK    4  A    between atoms: C_23  and  C_25
REMARK    5  A    between atoms: C_30  and  O_31
REMARK    6  A    between atoms: O_31  and  C_32
REMARK                            x       y       z     vdW  Elec       q    Type
REMARK                         _______ _______ _______ _____ _____    ______ ____
ROOT
ATOM      1  C   UNL     1      -3.330   2.242  -1.274  0.00  0.00    +0.066 C 
ATOM      2  C   UNL     1      -4.764   2.825  -1.263  0.00  0.00    +0.009 C 
ATOM      3  C   UNL     1      -2.930   2.090  -2.762  0.00  0.00    +0.009 C 
ENDROOT
BRANCH   1   8
ATOM      4  N   UNL     1      -2.989  -0.196  -1.184  0.00  0.00    -0.347 NA
ATOM      5  N   UNL     1      -2.635  -2.484  -1.228  0.00  0.00    -0.266 NA
ATOM      6  N   UNL     1      -2.931  -3.841   0.739  0.00  0.00    -0.316 NA
ATOM      7  N   UNL     1      -2.272  -4.802  -1.292  0.00  0.00    -0.283 N 
ATOM      8  C   UNL     1      -3.330   0.916  -0.489  0.00  0.00    +0.122 C 
ATOM      9  C   UNL     1      -3.669   0.921   0.847  0.00  0.00    +0.026 C 
ATOM     10  C   UNL     1      -3.654  -0.296   1.506  0.00  0.00    +0.001 C 
ATOM     11  C   UNL     1      -2.971  -1.378  -0.553  0.00  0.00    +0.137 C 
ATOM     12  C   UNL     1      -3.303  -1.458   0.804  0.00  0.00    +0.199 C 
ATOM     13  C   UNL     1      -3.265  -2.718   1.397  0.00  0.00    +0.187 C 
ATOM     14  C   UNL     1      -2.631  -3.653  -0.554  0.00  0.00    +0.207 C 
ATOM     15  H   UNL     1      -2.043  -4.722  -2.246  0.00  0.00    +0.156 HD
ATOM     16  H   UNL     1      -2.252  -5.683  -0.852  0.00  0.00    +0.156 HD
ATOM     17  N   UNL     1      -3.592  -2.852   2.769  0.00  0.00    -0.334 N 
ATOM     18  H   UNL     1      -3.568  -3.739   3.196  0.00  0.00    +0.144 HD
ATOM     19  H   UNL     1      -3.844  -2.059   3.295  0.00  0.00    +0.144 HD
ENDBRANCH   1   8
BRANCH   1  20
ATOM     20  C   UNL     1      -2.380   3.279  -0.611  0.00  0.00    +0.096 C 
BRANCH  20  22
ATOM     21  O   UNL     1      -0.825   2.946   1.779  0.00  0.00    -0.270 OA
ATOM     22  N   UNL     1      -1.009   2.845  -0.531  0.00  0.00    -0.300 N 
ATOM     23  C   UNL     1      -0.336   2.713   0.677  0.00  0.00    +0.246 C 
ATOM     24  H   UNL     1      -0.530   2.634  -1.365  0.00  0.00    +0.150 HD
BRANCH  23  25
ATOM     25  C   UNL     1       1.083   2.281   0.588  0.00  0.00    +0.054 C 
ATOM     26  C   UNL     1       1.512   1.515  -0.495  0.00  0.00    +0.008 C 
ATOM     27  C   UNL     1       1.985   2.642   1.590  0.00  0.00    +0.008 C 
ATOM     28  C   UNL     1       2.844   1.109  -0.577  0.00  0.00    +0.038 C 
ATOM     29  C   UNL     1       3.317   2.236   1.507  0.00  0.00    +0.038 C 
ATOM     30  C   UNL     1       3.746   1.469   0.424  0.00  0.00    +0.145 C 
BRANCH  30  31
ATOM     31  O   UNL     1       5.045   1.071   0.345  0.00  0.00    -0.453 OA
BRANCH  31  32
ATOM     32  C   UNL     1       5.295  -0.245  -0.007  0.00  0.00    +0.145 C 
ATOM     33  C   UNL     1       4.563  -1.275   0.583  0.00  0.00    +0.037 C 
ATOM     34  C   UNL     1       6.280  -0.540  -0.950  0.00  0.00    +0.037 C 
ATOM     35  C   UNL     1       4.815  -2.601   0.230  0.00  0.00    +0.003 C 
ATOM     36  C   UNL     1       6.532  -1.866  -1.303  0.00  0.00    +0.003 C 
ATOM     37  C   UNL     1       5.800  -2.896  -0.713  0.00  0.00    +0.000 C 
ENDBRANCH  31  32
ENDBRANCH  30  31
ENDBRANCH  23  25
ENDBRANCH  20  22
ENDBRANCH   1  20
TORSDOF 6
