REMARK  Name = 708346
REMARK  1 active torsions:
REMARK  status: ('A' for Active; 'I' for Inactive)
REMARK    1  A    between atoms: N_2  and  C_17
REMARK                            x       y       z     vdW  Elec       q    Type
REMARK                         _______ _______ _______ _____ _____    ______ ____
ROOT
ATOM      1  O   UNL     1      -1.700  -2.302  -0.265  0.00  0.00    -0.267 OA
ATOM      2  N   UNL     1       0.463  -1.398  -0.232  0.00  0.00    -0.295 N 
ATOM      3  N   UNL     1      -2.682   1.807   0.160  0.00  0.00    -0.280 N 
ATOM      4  N   UNL     1      -1.419   2.273   0.174  0.00  0.00    -0.173 NA
ATOM      5  C   UNL     1      -1.478   0.006  -0.045  0.00  0.00    +0.088 A 
ATOM      6  C   UNL     1       1.318  -0.224  -0.139  0.00  0.00    +0.064 A 
ATOM      7  C   UNL     1       0.758   1.069   0.002  0.00  0.00    +0.035 A 
ATOM      8  C   UNL     1      -0.683   1.163   0.048  0.00  0.00    +0.108 A 
ATOM      9  C   UNL     1      -0.953  -1.330  -0.189  0.00  0.00    +0.263 A 
ATOM     10  C   UNL     1      -2.774   0.450   0.030  0.00  0.00    +0.058 A 
ATOM     11  C   UNL     1       2.718  -0.329  -0.186  0.00  0.00    +0.017 C 
ATOM     12  C   UNL     1       1.573   2.205   0.093  0.00  0.00    +0.003 C 
ATOM     13  C   UNL     1      -4.073  -0.242  -0.006  0.00  0.00    +0.052 C 
ATOM     14  C   UNL     1       3.527   0.807  -0.096  0.00  0.00    +0.001 C 
ATOM     15  C   UNL     1       2.957   2.069   0.044  0.00  0.00    +0.000 C 
ATOM     16  H   UNL     1      -3.470   2.392   0.236  0.00  0.00    +0.189 HD
ENDROOT
BRANCH   2  17
ATOM     17  C   UNL     1       1.093  -2.708  -0.377  0.00  0.00    +0.109 C 
ATOM     18  C   UNL     1       1.355  -3.316   0.987  0.00  0.00    +0.027 C 
ENDBRANCH   2  17
TORSDOF 1
