REMARK  Name = 16058639
REMARK  2 active torsions:
REMARK  status: ('A' for Active; 'I' for Inactive)
REMARK    1  A    between atoms: C_3  and  N_11
REMARK    2  A    between atoms: C_5  and  C_16
REMARK                            x       y       z     vdW  Elec       q    Type
REMARK                         _______ _______ _______ _____ _____    ______ ____
ROOT
ATOM      1 CL   UNL     1       0.363   1.576   1.083  0.00  0.00    -0.080 Cl
ATOM      2  S   UNL     1       1.105  -2.102  -0.894  0.00  0.00    -0.084 S 
ATOM      3  C   UNL     1      -0.833  -0.665  -0.011  0.00  0.00    +0.088 C 
ATOM      4  C   UNL     1       0.360   0.055   0.285  0.00  0.00    +0.079 C 
ATOM      5  C   UNL     1       1.490  -0.612  -0.140  0.00  0.00    +0.041 C 
ATOM      6  C   UNL     1      -0.572  -1.857  -0.651  0.00  0.00    +0.052 C 
ENDROOT
BRANCH   3  11
ATOM      7  S   UNL     1      -2.692   1.285  -0.294  0.00  0.00    +0.130 S 
ATOM      8  O   UNL     1      -2.276   1.433  -1.674  0.00  0.00    -0.135 OA
ATOM      9  O   UNL     1      -2.478   2.335   0.682  0.00  0.00    -0.135 OA
ATOM     10  O   UNL     1      -5.623  -1.049   0.359  0.00  0.00    -0.272 OA
ATOM     11  N   UNL     1      -2.127  -0.216   0.312  0.00  0.00    -0.168 N 
ATOM     12  N   UNL     1      -4.317   0.794  -0.237  0.00  0.00    -0.171 N 
ATOM     13  C   UNL     1      -3.216  -1.192   0.602  0.00  0.00    +0.203 C 
ATOM     14  C   UNL     1      -4.526  -0.523   0.245  0.00  0.00    +0.264 C 
ATOM     15  H   UNL     1      -5.057   1.380  -0.517  0.00  0.00    +0.178 HD
ENDBRANCH   3  11
BRANCH   5  16
ATOM     16  C   UNL     1       2.880  -0.239  -0.041  0.00  0.00    +0.007 C 
ATOM     17  C   UNL     1       3.626  -0.616   1.076  0.00  0.00    +0.001 C 
ATOM     18  C   UNL     1       3.478   0.500  -1.061  0.00  0.00    +0.001 C 
ATOM     19  C   UNL     1       4.970  -0.254   1.172  0.00  0.00    +0.000 C 
ATOM     20  C   UNL     1       4.822   0.862  -0.965  0.00  0.00    +0.000 C 
ATOM     21  C   UNL     1       5.567   0.485   0.151  0.00  0.00    +0.000 C 
ENDBRANCH   5  16
TORSDOF 2
