REMARK  Name = 23653502
REMARK  14 active torsions:
REMARK  status: ('A' for Active; 'I' for Inactive)
REMARK    1  A    between atoms: P_1  and  O_3
REMARK    2  A    between atoms: P_1  and  O_5
REMARK    3  A    between atoms: P_1  and  C_22
REMARK    4  A    between atoms: O_5  and  C_6
REMARK    5  A    between atoms: C_6  and  C_7
REMARK    6  A    between atoms: C_6  and  C_19
REMARK    7  A    between atoms: C_10  and  C_13
REMARK    8  A    between atoms: C_13  and  N_14
REMARK    9  A    between atoms: C_19  and  O_20
REMARK   10  A    between atoms: C_22  and  N_24
REMARK   11  A    between atoms: C_22  and  C_35
REMARK   12  A    between atoms: C_25  and  O_27
REMARK   13  A    between atoms: O_27  and  C_28
REMARK   14  A    between atoms: C_28  and  C_29
REMARK                            x       y       z     vdW  Elec       q    Type
REMARK                         _______ _______ _______ _____ _____    ______ ____
ROOT
ATOM      1  P   UNL     1       2.112  -1.670  -0.150  0.00  0.00    +0.358 P 
ATOM      2  O   UNL     1       2.305  -0.929  -1.440  0.00  0.00    -0.256 OA
ENDROOT
BRANCH   1   3
ATOM      3  O   UNL     1       3.350  -2.635   0.246  0.00  0.00    -0.322 OA
ATOM      4  H   UNL     1       4.175  -2.125   0.232  0.00  0.00    +0.220 HD
ENDBRANCH   1   3
BRANCH   1   5
ATOM      5  O   UNL     1       1.986  -0.723   1.159  0.00  0.00    -0.280 OA
BRANCH   5   6
ATOM      6  C   UNL     1       2.986   0.249   1.407  0.00  0.00    +0.244 C 
BRANCH   6   7
ATOM      7  C   UNL     1       3.043   1.213   0.243  0.00  0.00    +0.015 C 
ATOM      8  C   UNL     1       1.931   1.982  -0.055  0.00  0.00    -0.008 C 
ATOM      9  C   UNL     1       4.208   1.307  -0.500  0.00  0.00    -0.001 C 
ATOM     10  C   UNL     1       1.984   2.870  -1.128  0.00  0.00    -0.044 C 
ATOM     11  C   UNL     1       4.261   2.196  -1.574  0.00  0.00    -0.001 C 
ATOM     12  C   UNL     1       3.150   2.978  -1.888  0.00  0.00    -0.006 C 
BRANCH  10  13
ATOM     13  C   UNL     1       0.796   3.706  -1.465  0.00  0.00    -0.059 C 
BRANCH  13  14
ATOM     14  N   UNL     1      -0.086   3.030  -2.419  0.00  0.00    +0.383 N 
ATOM     15  H   UNL     1      -0.886   3.628  -2.626  0.00  0.00    -0.089 HD
ATOM     16  H   UNL     1      -0.413   2.152  -2.016  0.00  0.00    -0.089 HD
ATOM     17  H   UNL     1       0.427   2.838  -3.279  0.00  0.00    -0.089 HD
ENDBRANCH  13  14
ENDBRANCH  10  13
ENDBRANCH   6   7
BRANCH   6  19
ATOM     18  O   UNL     1       1.734   0.734   3.444  0.00  0.00    -0.247 OA
ATOM     19  C   UNL     1       2.704   0.945   2.726  0.00  0.00    +0.346 C 
BRANCH  19  20
ATOM     20  O   UNL     1       3.647   1.876   3.026  0.00  0.00    -0.478 OA
ATOM     21  H   UNL     1       4.375   2.007   2.451  0.00  0.00    +0.295 HD
ENDBRANCH  19  20
ENDBRANCH   6  19
ENDBRANCH   5   6
ENDBRANCH   1   5
BRANCH   1  22
ATOM     22  C   UNL     1       0.667  -2.734  -0.083  0.00  0.00    +0.179 C 
BRANCH  22  24
ATOM     23  O   UNL     1      -1.912  -2.969   1.242  0.00  0.00    -0.226 OA
ATOM     24  N   UNL     1      -0.476  -1.833  -0.181  0.00  0.00    -0.262 N 
ATOM     25  C   UNL     1      -1.664  -2.031   0.490  0.00  0.00    +0.402 C 
ATOM     26  H   UNL     1      -0.395  -1.039  -0.758  0.00  0.00    +0.153 HD
BRANCH  25  27
ATOM     27  O   UNL     1      -2.534  -1.021   0.195  0.00  0.00    -0.430 OA
BRANCH  27  28
ATOM     28  C   UNL     1      -3.817  -1.097   0.828  0.00  0.00    +0.237 C 
BRANCH  28  29
ATOM     29  C   UNL     1      -4.695   0.046   0.445  0.00  0.00    +0.021 C 
ATOM     30  C   UNL     1      -4.682   1.218   1.201  0.00  0.00    -0.001 C 
ATOM     31  C   UNL     1      -5.528  -0.057  -0.668  0.00  0.00    -0.001 C 
ATOM     32  C   UNL     1      -5.504   2.288   0.843  0.00  0.00    -0.000 C 
ATOM     33  C   UNL     1      -6.349   1.012  -1.026  0.00  0.00    -0.000 C 
ATOM     34  C   UNL     1      -6.337   2.184  -0.270  0.00  0.00    -0.000 C 
ENDBRANCH  28  29
ENDBRANCH  27  28
ENDBRANCH  25  27
ENDBRANCH  22  24
BRANCH  22  35
ATOM     35  C   UNL     1       0.558  -3.881  -1.109  0.00  0.00    +0.030 C 
ATOM     36  C   UNL     1       0.477  -3.348  -2.541  0.00  0.00    +0.002 C 
ATOM     37  C   UNL     1       1.686  -4.907  -0.999  0.00  0.00    +0.002 C 
ENDBRANCH  22  35
ENDBRANCH   1  22
TORSDOF 14
