REMARK  Name = 5227
REMARK  6 active torsions:
REMARK  status: ('A' for Active; 'I' for Inactive)
REMARK    1  A    between atoms: C_1  and  S_2
REMARK    2  A    between atoms: C_1  and  C_9
REMARK    3  A    between atoms: S_2  and  C_5
REMARK    4  A    between atoms: C_9  and  C_10
REMARK    5  A    between atoms: C_10  and  C_11
REMARK    6  A    between atoms: C_11  and  N_12
REMARK                            x       y       z     vdW  Elec       q    Type
REMARK                         _______ _______ _______ _____ _____    ______ ____
ROOT
ATOM      1  C   UNL     1       1.039   0.060  -0.435  0.00  0.00    +0.065 C 
ENDROOT
BRANCH   1   2
ATOM      2  S   UNL     1       2.214   0.382   0.911  0.00  0.00    -0.081 S 
BRANCH   2   5
ATOM      3  N   UNL     1       4.680   0.848   0.104  0.00  0.00    -0.338 N 
ATOM      4  N   UNL     1       3.891  -1.355  -0.214  0.00  0.00    -0.280 NA
ATOM      5  C   UNL     1       3.734  -0.135   0.187  0.00  0.00    +0.144 C 
ATOM      6  H   UNL     1       4.480   1.753   0.434  0.00  0.00    +0.144 HD
ATOM      7  H   UNL     1       5.563   0.650  -0.285  0.00  0.00    +0.144 HD
ATOM      8  H   UNL     1       3.156  -2.004  -0.118  0.00  0.00    +0.189 HD
ENDBRANCH   2   5
ENDBRANCH   1   2
BRANCH   1   9
ATOM      9  C   UNL     1      -0.372   0.476  -0.030  0.00  0.00    +0.010 C 
BRANCH   9  10
ATOM     10  C   UNL     1      -1.368   0.207  -1.162  0.00  0.00    -0.022 C 
BRANCH  10  11
ATOM     11  C   UNL     1      -2.777   0.654  -0.776  0.00  0.00    -0.078 C 
BRANCH  11  12
ATOM     12  N   UNL     1      -3.227  -0.059   0.413  0.00  0.00    +0.384 N 
ATOM     13  C   UNL     1      -3.272  -1.501   0.163  0.00  0.00    -0.101 C 
ATOM     14  C   UNL     1      -4.542   0.424   0.838  0.00  0.00    -0.101 C 
ATOM     15  H   UNL     1      -2.558   0.119   1.163  0.00  0.00    -0.080 HD
ENDBRANCH  11  12
ENDBRANCH  10  11
ENDBRANCH   9  10
ENDBRANCH   1   9
TORSDOF 6
