REMARK  Name = 6540273
REMARK  7 active torsions:
REMARK  status: ('A' for Active; 'I' for Inactive)
REMARK    1  A    between atoms: C_2  and  N_14
REMARK    2  A    between atoms: C_6  and  N_13
REMARK    3  A    between atoms: N_14  and  C_16
REMARK    4  A    between atoms: C_16  and  C_17
REMARK    5  A    between atoms: C_17  and  O_18
REMARK    6  A    between atoms: C_17  and  C_20
REMARK    7  A    between atoms: C_20  and  N_21
REMARK                            x       y       z     vdW  Elec       q    Type
REMARK                         _______ _______ _______ _____ _____    ______ ____
ROOT
ATOM      1  N   UNL     1       0.285  -2.115  -0.092  0.00  0.00    -0.247 NA
ATOM      2  C   UNL     1      -0.370   0.166  -0.050  0.00  0.00    +0.117 C 
ATOM      3  C   UNL     1       0.622  -0.811  -0.055  0.00  0.00    +0.076 C 
ATOM      4  C   UNL     1       1.968  -0.391  -0.021  0.00  0.00    +0.024 C 
ATOM      5  C   UNL     1      -0.058   1.527  -0.013  0.00  0.00    -0.007 C 
ATOM      6  C   UNL     1       2.282   0.979   0.016  0.00  0.00    +0.211 C 
ATOM      7  C   UNL     1       1.270   1.934   0.021  0.00  0.00    +0.004 C 
ATOM      8  C   UNL     1       2.966  -1.373  -0.027  0.00  0.00    +0.001 C 
ATOM      9  C   UNL     1       2.623  -2.717  -0.064  0.00  0.00    +0.020 C 
ATOM     10  C   UNL     1       1.279  -3.032  -0.096  0.00  0.00    +0.098 C 
ENDROOT
BRANCH   6  13
ATOM     11  O   UNL     1       3.836   2.682   0.083  0.00  0.00    -0.130 OA
ATOM     12  O   UNL     1       4.559   0.609   0.048  0.00  0.00    -0.130 OA
ATOM     13  N   UNL     1       3.628   1.448   0.051  0.00  0.00    +0.041 N 
ENDBRANCH   6  13
BRANCH   2  14
ATOM     14  N   UNL     1      -1.738  -0.206  -0.084  0.00  0.00    -0.288 NA
ATOM     15  H   UNL     1      -1.966  -1.163  -0.110  0.00  0.00    +0.124 HD
BRANCH  14  16
ATOM     16  C   UNL     1      -2.796   0.750  -0.081  0.00  0.00    +0.096 C 
BRANCH  16  17
ATOM     17  C   UNL     1      -4.147   0.036  -0.164  0.00  0.00    +0.105 C 
BRANCH  17  18
ATOM     18  O   UNL     1      -4.268  -0.811   0.982  0.00  0.00    -0.385 OA
ATOM     19  H   UNL     1      -3.526  -1.436   1.001  0.00  0.00    +0.210 HD
ENDBRANCH  17  18
BRANCH  17  20
ATOM     20  C   UNL     1      -5.333   1.008  -0.162  0.00  0.00    -0.055 C 
BRANCH  20  21
ATOM     21  N   UNL     1      -6.609   0.318  -0.293  0.00  0.00    +0.382 N 
ATOM     22  H   UNL     1      -7.367   1.001  -0.288  0.00  0.00    -0.089 HD
ATOM     23  H   UNL     1      -6.728  -0.329   0.486  0.00  0.00    -0.089 HD
ATOM     24  H   UNL     1      -6.626  -0.202  -1.171  0.00  0.00    -0.089 HD
ENDBRANCH  20  21
ENDBRANCH  17  20
ENDBRANCH  16  17
ENDBRANCH  14  16
ENDBRANCH   2  14
TORSDOF 7
