REMARK  Name = 24894153
REMARK  0 active torsions:
REMARK  status: ('A' for Active; 'I' for Inactive)
REMARK                            x       y       z     vdW  Elec       q    Type
REMARK                         _______ _______ _______ _____ _____    ______ ____
ROOT
ATOM      1  S   UNL     1       2.580  -0.377   0.036  0.00  0.00    -0.081 S 
ATOM      2  O   UNL     1      -0.866   1.440  -0.060  0.00  0.00    -0.476 OA
ATOM      3  N   UNL     1      -1.115  -1.740  -0.269  0.00  0.00    -0.252 NA
ATOM      4  N   UNL     1       0.798  -2.778   0.397  0.00  0.00    -0.342 N 
ATOM      5  C   UNL     1      -1.870   0.508   0.335  0.00  0.00    +0.190 C 
ATOM      6  C   UNL     1      -1.950  -0.623  -0.682  0.00  0.00    +0.170 C 
ATOM      7  C   UNL     1       0.412   0.986  -0.035  0.00  0.00    +0.148 C 
ATOM      8  C   UNL     1       0.849  -0.329   0.010  0.00  0.00    +0.094 C 
ATOM      9  C   UNL     1      -3.182   1.289   0.373  0.00  0.00    +0.049 C 
ATOM     10  C   UNL     1       0.140  -1.616   0.037  0.00  0.00    +0.130 C 
ATOM     11  C   UNL     1       1.487   1.923  -0.090  0.00  0.00    +0.044 C 
ATOM     12  C   UNL     1       2.717   1.316  -0.053  0.00  0.00    +0.039 C 
ATOM     13  H   UNL     1       0.313  -3.634   0.411  0.00  0.00    +0.144 HD
ATOM     14  H   UNL     1       1.752  -2.748   0.638  0.00  0.00    +0.144 HD
ENDROOT
TORSDOF 0
