REMARK  Name = 6914624
REMARK  5 active torsions:
REMARK  status: ('A' for Active; 'I' for Inactive)
REMARK    1  A    between atoms: C_5  and  O_21
REMARK    2  A    between atoms: CA_6  and  C_14
REMARK    3  A    between atoms: N_13  and  CA_16
REMARK    4  A    between atoms: CA_16  and  C_18
REMARK    5  A    between atoms: C_18  and  O_19
REMARK                            x       y       z     vdW  Elec       q    Type
REMARK                         _______ _______ _______ _____ _____    ______ ____
ROOT
ATOM      1  I   UNL     1      -4.160  -3.078  -0.007  0.00  0.00    -0.043 I 
ATOM      2  N   UNL     1       0.132  -1.080  -0.137  0.00  0.00    -0.263 NA
ATOM      3  C   UNL     1      -1.972   0.784   0.026  0.00  0.00    +0.008 C 
ATOM      4  C   UNL     1      -2.248  -0.599  -0.008  0.00  0.00    +0.006 C 
ATOM      5  C   UNL     1      -0.639   1.210  -0.021  0.00  0.00    +0.176 C 
ATOM      6  CA  UNL     1       0.359   0.251  -0.102  0.00  0.00    +0.138 C 
ATOM      7  C   UNL     1      -3.040   1.692   0.108  0.00  0.00    -0.002 C 
ATOM      8  C   UNL     1      -3.579  -1.047   0.039  0.00  0.00    +0.028 C 
ATOM      9  C   UNL     1      -1.161  -1.471  -0.089  0.00  0.00    +0.152 C 
ATOM     10  C   UNL     1      -4.358   1.236   0.155  0.00  0.00    +0.000 C 
ATOM     11  C   UNL     1      -4.627  -0.131   0.120  0.00  0.00    +0.006 C 
ENDROOT
BRANCH   6  14
ATOM     12  O   UNL     1       2.158   1.660   0.424  0.00  0.00    -0.269 OA
ATOM     13  N   UNL     1       2.627  -0.223  -0.846  0.00  0.00    -0.290 N 
ATOM     14  C   ACE A   1       1.763   0.631  -0.151  0.00  0.00    +0.262 C 
ATOM     15  H   UNL     1       2.246  -1.021  -1.277  0.00  0.00    +0.150 HD
BRANCH  13  16
ATOM     16  CA  UNL     1       4.049   0.005  -0.964  0.00  0.00    +0.201 C 
BRANCH  16  18
ATOM     17  OXT UNL     1       4.330  -1.652   0.763  0.00  0.00    -0.248 OA
ATOM     18  C   UNL     1       4.754  -0.662   0.182  0.00  0.00    +0.334 C 
BRANCH  18  19
ATOM     19  O   UNL     1       5.927  -0.058   0.498  0.00  0.00    -0.479 OA
ATOM     20  H   UNL     1       6.208   0.699   0.022  0.00  0.00    +0.295 HD
ENDBRANCH  18  19
ENDBRANCH  16  18
ENDBRANCH  13  16
ENDBRANCH   6  14
BRANCH   5  21
ATOM     21  O   UNL     1      -0.315   2.532   0.011  0.00  0.00    -0.374 OA
ATOM     22  H   UNL     1      -0.990   3.179   0.065  0.00  0.00    +0.211 HD
ENDBRANCH   5  21
TORSDOF 5
