REMARK  Name = 6857690
REMARK  2 active torsions:
REMARK  status: ('A' for Active; 'I' for Inactive)
REMARK    1  A    between atoms: C_4  and  C_18
REMARK    2  A    between atoms: C_21  and  O_24
REMARK                            x       y       z     vdW  Elec       q    Type
REMARK                         _______ _______ _______ _____ _____    ______ ____
ROOT
ATOM      1  O   UNL     1       1.901   3.058  -0.918  0.00  0.00    -0.252 OA
ATOM      2  N   UNL     1       1.551   1.238   0.447  0.00  0.00    -0.259 N 
ATOM      3  N   UNL     1       3.751   2.113   0.077  0.00  0.00    -0.261 N 
ATOM      4  C   UNL     1      -0.628   0.592  -0.500  0.00  0.00    +0.064 C 
ATOM      5  C   UNL     1       0.113   1.470   0.524  0.00  0.00    +0.104 C 
ATOM      6  C   UNL     1      -0.161  -0.860  -0.428  0.00  0.00    -0.019 C 
ATOM      7  C   UNL     1       1.071  -1.183   0.180  0.00  0.00    -0.010 C 
ATOM      8  C   UNL     1       1.962  -0.127   0.797  0.00  0.00    +0.121 C 
ATOM      9  C   UNL     1       1.490  -2.522   0.232  0.00  0.00    -0.028 C 
ATOM     10  C   UNL     1      -0.904  -1.887  -1.037  0.00  0.00    -0.005 C 
ATOM     11  C   UNL     1       0.723  -3.531  -0.347  0.00  0.00    -0.026 C 
ATOM     12  C   UNL     1       2.373   2.187  -0.176  0.00  0.00    +0.308 C 
ATOM     13  C   UNL     1      -0.469  -3.212  -0.989  0.00  0.00    -0.005 C 
ATOM     14  C   UNL     1       2.777  -2.888   0.908  0.00  0.00    +0.030 C 
ATOM     15  C   UNL     1       1.154  -4.959  -0.295  0.00  0.00    +0.031 C 
ATOM     16  C   UNL     1       4.337   1.611   1.317  0.00  0.00    +0.117 C 
ATOM     17  C   UNL     1       4.673   2.802  -0.816  0.00  0.00    +0.117 C 
ENDROOT
BRANCH   4  18
ATOM     18  C   UNL     1      -2.128   0.791  -0.338  0.00  0.00    -0.014 C 
ATOM     19  C   UNL     1      -2.748   0.428   0.853  0.00  0.00    +0.033 C 
ATOM     20  C   UNL     1      -2.868   1.335  -1.383  0.00  0.00    -0.004 C 
ATOM     21  C   UNL     1      -4.122   0.611   1.002  0.00  0.00    +0.133 C 
ATOM     22  C   UNL     1      -4.243   1.519  -1.234  0.00  0.00    +0.003 C 
ATOM     23  C   UNL     1      -4.870   1.157  -0.042  0.00  0.00    +0.037 C 
BRANCH  21  24
ATOM     24  O   UNL     1      -4.734   0.258   2.165  0.00  0.00    -0.506 OA
ATOM     25  H   UNL     1      -4.232  -0.108   2.866  0.00  0.00    +0.292 HD
ENDBRANCH  21  24
ENDBRANCH   4  18
TORSDOF 2
