REMARK  Name = 57484374
REMARK  9 active torsions:
REMARK  status: ('A' for Active; 'I' for Inactive)
REMARK    1  A    between atoms: C_1  and  C_4
REMARK    2  A    between atoms: C_1  and  N_8
REMARK    3  A    between atoms: C_1  and  C_20
REMARK    4  A    between atoms: C_9  and  C_11
REMARK    5  A    between atoms: C_11  and  S_12
REMARK    6  A    between atoms: S_12  and  C_14
REMARK    7  A    between atoms: C_20  and  C_21
REMARK    8  A    between atoms: C_26  and  N_27
REMARK    9  A    between atoms: N_27  and  C_30
REMARK                            x       y       z     vdW  Elec       q    Type
REMARK                         _______ _______ _______ _____ _____    ______ ____
ROOT
ATOM      1  C   UNL     1      -2.434  -1.732  -0.413  0.00  0.00    +0.153 C 
ENDROOT
BRANCH   1   4
ATOM      2  O   UNL     1      -4.475  -2.684   0.500  0.00  0.00    -0.274 OA
ATOM      3  N   UNL     1      -4.188  -2.680  -1.779  0.00  0.00    -0.327 N 
ATOM      4  C   UNL     1      -3.788  -2.423  -0.485  0.00  0.00    +0.238 C 
ATOM      5  H   UNL     1      -5.050  -3.125  -1.949  0.00  0.00    +0.145 HD
ATOM      6  H   UNL     1      -3.612  -2.418  -2.534  0.00  0.00    +0.145 HD
ENDBRANCH   1   4
BRANCH   1   8
ATOM      7  O   UNL     1      -3.387   0.999  -0.530  0.00  0.00    -0.274 OA
ATOM      8  N   UNL     1      -2.499  -0.783   0.670  0.00  0.00    -0.297 N 
ATOM      9  C   UNL     1      -2.973   0.512   0.521  0.00  0.00    +0.234 C 
ATOM     10  H   UNL     1      -2.191  -1.069   1.561  0.00  0.00    +0.150 HD
BRANCH   9  11
ATOM     11  C   UNL     1      -2.921   1.313   1.801  0.00  0.00    +0.147 C 
BRANCH  11  12
ATOM     12  S   UNL     1      -2.713   3.063   1.391  0.00  0.00    -0.104 S 
BRANCH  12  14
ATOM     13 CL   UNL     1       2.752   2.987  -1.744  0.00  0.00    -0.082 Cl
ATOM     14  C   UNL     1      -1.159   3.042   0.500  0.00  0.00    +0.026 C 
ATOM     15  C   UNL     1      -0.001   2.585   1.129  0.00  0.00    +0.007 C 
ATOM     16  C   UNL     1      -1.108   3.482  -0.823  0.00  0.00    +0.007 C 
ATOM     17  C   UNL     1       1.209   2.568   0.435  0.00  0.00    +0.012 C 
ATOM     18  C   UNL     1       0.102   3.465  -1.517  0.00  0.00    +0.012 C 
ATOM     19  C   UNL     1       1.260   3.008  -0.888  0.00  0.00    +0.058 C 
ENDBRANCH  12  14
ENDBRANCH  11  12
ENDBRANCH   9  11
ENDBRANCH   1   8
BRANCH   1  20
ATOM     20  C   UNL     1      -1.318  -2.763  -0.214  0.00  0.00    +0.055 C 
BRANCH  20  21
ATOM     21  C   UNL     1       0.049  -2.132  -0.106  0.00  0.00    -0.020 C 
ATOM     22  C   UNL     1       0.546  -1.754   1.141  0.00  0.00    -0.003 C 
ATOM     23  C   UNL     1       0.814  -1.926  -1.254  0.00  0.00    -0.003 C 
ATOM     24  C   UNL     1       1.809  -1.170   1.240  0.00  0.00    +0.019 C 
ATOM     25  C   UNL     1       2.077  -1.342  -1.155  0.00  0.00    +0.019 C 
ATOM     26  C   UNL     1       2.574  -0.964   0.093  0.00  0.00    +0.084 C 
BRANCH  26  27
ATOM     27  N   UNL     1       3.840  -0.378   0.192  0.00  0.00    -0.214 NA
BRANCH  27  30
ATOM     28  N   UNL     1       4.900  -2.526   0.463  0.00  0.00    -0.370 N 
ATOM     29  N   UNL     1       6.147  -0.616   0.467  0.00  0.00    -0.370 N 
ATOM     30  C   UNL     1       4.885  -1.152   0.364  0.00  0.00    +0.193 C 
ATOM     31  H   UNL     1       4.057  -3.033   0.405  0.00  0.00    +0.159 HD
ATOM     32  H   UNL     1       5.752  -3.002   0.592  0.00  0.00    +0.159 HD
ATOM     33  H   UNL     1       6.274   0.359   0.412  0.00  0.00    +0.159 HD
ATOM     34  H   UNL     1       6.924  -1.206   0.596  0.00  0.00    +0.159 HD
ENDBRANCH  27  30
ENDBRANCH  26  27
ENDBRANCH  20  21
ENDBRANCH   1  20
TORSDOF 9
