REMARK  Name = 15953860
REMARK  2 active torsions:
REMARK  status: ('A' for Active; 'I' for Inactive)
REMARK    1  A    between atoms: C_4  and  C_17
REMARK    2  A    between atoms: C_5  and  N_23
REMARK                            x       y       z     vdW  Elec       q    Type
REMARK                         _______ _______ _______ _____ _____    ______ ____
ROOT
ATOM      1  N   UNL     1       2.121  -0.401   0.209  0.00  0.00    -0.281 N 
ATOM      2  N   UNL     1       2.498   1.627  -0.607  0.00  0.00    -0.392 NA
ATOM      3  N   UNL     1       6.044   0.678  -0.117  0.00  0.00    -0.240 NA
ATOM      4  C   UNL     1      -0.681  -0.390  -0.318  0.00  0.00    +0.015 C 
ATOM      5  C   UNL     1      -0.126  -1.277   0.831  0.00  0.00    -0.041 C 
ATOM      6  C   UNL     1       0.092   0.947  -0.374  0.00  0.00    +0.077 C 
ATOM      7  C   UNL     1       1.365  -1.576   0.598  0.00  0.00    +0.072 C 
ATOM      8  C   UNL     1       1.566   0.753  -0.285  0.00  0.00    +0.160 C 
ATOM      9  C   UNL     1       3.484  -0.268   0.195  0.00  0.00    +0.153 C 
ATOM     10  C   UNL     1       3.693   1.010  -0.318  0.00  0.00    +0.151 C 
ATOM     11  C   UNL     1       4.530  -1.109   0.560  0.00  0.00    +0.021 C 
ATOM     12  C   UNL     1       5.002   1.470  -0.467  0.00  0.00    +0.128 C 
ATOM     13  C   UNL     1       5.790  -0.560   0.374  0.00  0.00    +0.096 C 
ENDROOT
BRANCH   4  17
ATOM     14  F   UNL     1      -2.522  -1.182  -2.328  0.00  0.00    -0.204 F 
ATOM     15  F   UNL     1      -4.564   1.438   2.017  0.00  0.00    -0.202 F 
ATOM     16  F   UNL     1      -6.224   0.618   0.005  0.00  0.00    -0.202 F 
ATOM     17  C   UNL     1      -2.175  -0.119  -0.234  0.00  0.00    +0.006 C 
ATOM     18  C   UNL     1      -3.015  -0.538  -1.261  0.00  0.00    +0.138 C 
ATOM     19  C   UNL     1      -2.692   0.548   0.873  0.00  0.00    +0.030 C 
ATOM     20  C   UNL     1      -4.062   0.797   0.954  0.00  0.00    +0.167 C 
ATOM     21  C   UNL     1      -4.385  -0.289  -1.180  0.00  0.00    +0.061 C 
ATOM     22  C   UNL     1      -4.909   0.379  -0.073  0.00  0.00    +0.170 C 
ENDBRANCH   4  17
BRANCH   5  23
ATOM     23  N   UNL     1      -0.830  -2.557   0.948  0.00  0.00    +0.383 N 
ATOM     24  H   UNL     1      -1.823  -2.386   1.103  0.00  0.00    -0.089 HD
ATOM     25  H   UNL     1      -0.448  -3.084   1.733  0.00  0.00    -0.089 HD
ATOM     26  H   UNL     1      -0.707  -3.092   0.088  0.00  0.00    -0.089 HD
ENDBRANCH   5  23
TORSDOF 2
