REMARK  Name = 24894155
REMARK  3 active torsions:
REMARK  status: ('A' for Active; 'I' for Inactive)
REMARK    1  A    between atoms: C_1  and  C_6
REMARK    2  A    between atoms: C_1  and  O_15
REMARK    3  A    between atoms: O_15  and  C_23
REMARK                            x       y       z     vdW  Elec       q    Type
REMARK                         _______ _______ _______ _____ _____    ______ ____
ROOT
ATOM      1  C   UNL     1      -0.342  -1.285  -1.020  0.00  0.00    +0.233 C 
ENDROOT
BRANCH   1   6
ATOM      2  S   UNL     1      -5.936   0.035   0.923  0.00  0.00    -0.081 S 
ATOM      3  O   UNL     1      -2.948   1.325  -1.222  0.00  0.00    -0.473 OA
ATOM      4  N   UNL     1      -2.286  -1.366   0.368  0.00  0.00    -0.250 NA
ATOM      5  N   UNL     1      -3.775  -1.734   2.049  0.00  0.00    -0.342 N 
ATOM      6  C   UNL     1      -1.763  -0.752  -0.843  0.00  0.00    +0.191 C 
ATOM      7  C   UNL     1      -1.752   0.763  -0.697  0.00  0.00    +0.233 C 
ATOM      8  C   UNL     1      -4.092   1.018  -0.561  0.00  0.00    +0.148 C 
ATOM      9  C   UNL     1      -4.298   0.001   0.359  0.00  0.00    +0.094 C 
ATOM     10  C   UNL     1      -3.420  -1.040   0.907  0.00  0.00    +0.130 C 
ATOM     11  C   UNL     1      -5.274   1.776  -0.819  0.00  0.00    +0.044 C 
ATOM     12  C   UNL     1      -6.345   1.351  -0.075  0.00  0.00    +0.039 C 
ATOM     13  H   UNL     1      -3.179  -2.431   2.407  0.00  0.00    +0.144 HD
ATOM     14  H   UNL     1      -4.625  -1.533   2.504  0.00  0.00    +0.144 HD
ENDBRANCH   1   6
BRANCH   1  15
ATOM     15  O   UNL     1       0.419  -0.918   0.115  0.00  0.00    -0.473 OA
BRANCH  15  23
ATOM     16  N   UNL     1       6.004   1.275   1.381  0.00  0.00    +0.387 N 
ATOM     17  C   UNL     1       4.501  -0.280  -0.471  0.00  0.00    -0.030 C 
ATOM     18  C   UNL     1       5.982  -0.080  -0.665  0.00  0.00    +0.003 C 
ATOM     19  C   UNL     1       3.821   0.413   0.547  0.00  0.00    -0.045 C 
ATOM     20  C   UNL     1       6.497   1.194   0.007  0.00  0.00    -0.077 C 
ATOM     21  C   UNL     1       4.545   1.430   1.396  0.00  0.00    -0.054 C 
ATOM     22  C   UNL     1       2.448   0.200   0.729  0.00  0.00    +0.030 C 
ATOM     23  C   UNL     1       1.764  -0.712  -0.074  0.00  0.00    +0.138 C 
ATOM     24  C   UNL     1       3.807  -1.201  -1.265  0.00  0.00    -0.002 C 
ATOM     25  C   UNL     1       2.442  -1.414  -1.068  0.00  0.00    +0.037 C 
ATOM     26  H   UNL     1       6.431   2.078   1.844  0.00  0.00    -0.084 HD
ATOM     27  H   UNL     1       6.250   0.415   1.871  0.00  0.00    -0.084 HD
ENDBRANCH  15  23
ENDBRANCH   1  15
TORSDOF 3
