REMARK  Name = 11711595
REMARK  10 active torsions:
REMARK  status: ('A' for Active; 'I' for Inactive)
REMARK    1  A    between atoms: C_1  and  C_9
REMARK    2  A    between atoms: C_3  and  C_17
REMARK    3  A    between atoms: C_5  and  O_7
REMARK    4  A    between atoms: C_9  and  C_10
REMARK    5  A    between atoms: C_10  and  C_12
REMARK    6  A    between atoms: C_10  and  C_15
REMARK    7  A    between atoms: C_12  and  O_13
REMARK    8  A    between atoms: C_17  and  N_19
REMARK    9  A    between atoms: C_20  and  C_23
REMARK   10  A    between atoms: C_26  and  C_32
REMARK                            x       y       z     vdW  Elec       q    Type
REMARK                         _______ _______ _______ _____ _____    ______ ____
ROOT
ATOM      1  C   UNL     1       3.817  -0.309   0.077  0.00  0.00    -0.022 C 
ATOM      2  C   UNL     1       2.763  -0.650   0.926  0.00  0.00    -0.004 C 
ATOM      3  C   UNL     1       2.095  -1.863   0.756  0.00  0.00    +0.031 C 
ATOM      4  C   UNL     1       4.202  -1.181  -0.941  0.00  0.00    -0.001 C 
ATOM      5  C   UNL     1       2.481  -2.735  -0.263  0.00  0.00    +0.136 C 
ATOM      6  C   UNL     1       3.534  -2.394  -1.111  0.00  0.00    +0.036 C 
ENDROOT
BRANCH   5   7
ATOM      7  O   UNL     1       1.839  -3.923  -0.443  0.00  0.00    -0.472 OA
ATOM      8  C   UNL     1       2.299  -4.753  -1.508  0.00  0.00    +0.252 C 
ENDBRANCH   5   7
BRANCH   1   9
ATOM      9  C   UNL     1       4.540   1.004   0.261  0.00  0.00    +0.037 C 
BRANCH   9  10
ATOM     10  C   UNL     1       3.918   2.158  -0.547  0.00  0.00    +0.103 C 
BRANCH  10  12
ATOM     11  O   UNL     1       2.733   3.169   1.325  0.00  0.00    -0.250 OA
ATOM     12  C   UNL     1       2.703   2.699   0.194  0.00  0.00    +0.314 C 
BRANCH  12  13
ATOM     13  O   UNL     1       1.566   2.630  -0.544  0.00  0.00    -0.480 OA
ATOM     14  H   UNL     1       1.588   2.263  -1.406  0.00  0.00    +0.295 HD
ENDBRANCH  12  13
ENDBRANCH  10  12
BRANCH  10  15
ATOM     15  C   UNL     1       4.953   3.279  -0.757  0.00  0.00    +0.011 C 
ATOM     16  C   UNL     1       4.400   4.443  -1.570  0.00  0.00    +0.001 C 
ENDBRANCH  10  15
ENDBRANCH   9  10
ENDBRANCH   1   9
BRANCH   3  17
ATOM     17  C   UNL     1       0.970  -2.211   1.673  0.00  0.00    +0.120 C 
BRANCH  17  19
ATOM     18  O   UNL     1      -0.208   0.369   2.118  0.00  0.00    -0.270 OA
ATOM     19  N   UNL     1      -0.301  -1.749   1.177  0.00  0.00    -0.297 N 
ATOM     20  C   UNL     1      -0.791  -0.478   1.446  0.00  0.00    +0.248 C 
ATOM     21  H   UNL     1      -0.844  -2.358   0.627  0.00  0.00    +0.150 HD
BRANCH  20  23
ATOM     22  F   UNL     1      -1.756  -1.631  -0.945  0.00  0.00    -0.204 F 
ATOM     23  C   UNL     1      -2.130  -0.163   0.885  0.00  0.00    +0.081 C 
ATOM     24  C   UNL     1      -2.552  -0.765  -0.300  0.00  0.00    +0.144 C 
ATOM     25  C   UNL     1      -2.966   0.736   1.547  0.00  0.00    +0.007 C 
ATOM     26  C   UNL     1      -4.646   0.430  -0.162  0.00  0.00    +0.074 C 
ATOM     27  C   UNL     1      -3.810  -0.469  -0.824  0.00  0.00    +0.034 C 
ATOM     28  C   UNL     1      -4.224   1.033   1.023  0.00  0.00    +0.004 C 
BRANCH  26  32
ATOM     29  F   UNL     1      -6.701   1.641   0.030  0.00  0.00    -0.166 F 
ATOM     30  F   UNL     1      -5.949   1.290  -1.974  0.00  0.00    -0.166 F 
ATOM     31  F   UNL     1      -6.789  -0.356  -0.828  0.00  0.00    -0.166 F 
ATOM     32  C   UNL     1      -5.992   0.747  -0.722  0.00  0.00    +0.419 C 
ENDBRANCH  26  32
ENDBRANCH  20  23
ENDBRANCH  17  19
ENDBRANCH   3  17
TORSDOF 10
