REMARK  Name = 46937051
REMARK  7 active torsions:
REMARK  status: ('A' for Active; 'I' for Inactive)
REMARK    1  A    between atoms: C_2  and  N_6
REMARK    2  A    between atoms: C_4  and  O_16
REMARK    3  A    between atoms: C_5  and  C_18
REMARK    4  A    between atoms: C_18  and  O_19
REMARK    5  A    between atoms: O_19  and  P_20
REMARK    6  A    between atoms: P_20  and  O_22
REMARK    7  A    between atoms: P_20  and  O_24
REMARK                            x       y       z     vdW  Elec       q    Type
REMARK                         _______ _______ _______ _____ _____    ______ ____
ROOT
ATOM      1  O   UNL     1      -1.063   0.930   0.958  0.00  0.00    -0.335 OA
ATOM      2  C   UNL     1       0.163   1.319   0.311  0.00  0.00    +0.199 C 
ATOM      3  C   UNL     1      -0.237   1.987  -1.000  0.00  0.00    +0.083 C 
ATOM      4  C   UNL     1      -1.561   2.618  -0.640  0.00  0.00    +0.144 C 
ATOM      5  C   UNL     1      -2.167   1.613   0.331  0.00  0.00    +0.174 C 
ENDROOT
BRANCH   2   6
ATOM      6  N   UNL     1       1.097   0.151   0.119  0.00  0.00    -0.264 N 
ATOM      7  C   UNL     1       2.472   0.215   0.138  0.00  0.00    +0.053 C 
ATOM      8  C   UNL     1       0.687  -1.137  -0.099  0.00  0.00    +0.067 C 
ATOM      9  C   UNL     1       2.947  -1.081  -0.077  0.00  0.00    +0.011 C 
ATOM     10  C   UNL     1       1.810  -1.923  -0.224  0.00  0.00    +0.017 C 
ATOM     11  C   UNL     1       3.324   1.309   0.326  0.00  0.00    +0.015 C 
ATOM     12  C   UNL     1       4.339  -1.297  -0.105  0.00  0.00    -0.021 C 
ATOM     13  C   UNL     1       4.700   1.071   0.293  0.00  0.00    +0.001 C 
ATOM     14  C   UNL     1       5.202  -0.212   0.081  0.00  0.00    -0.004 C 
ATOM     15  C   UNL     1       4.936  -2.651  -0.328  0.00  0.00    +0.031 C 
ENDBRANCH   2   6
BRANCH   4  16
ATOM     16  O   UNL     1      -1.308   3.846   0.037  0.00  0.00    -0.382 OA
ATOM     17  H   UNL     1      -0.922   4.485  -0.583  0.00  0.00    +0.210 HD
ENDBRANCH   4  16
BRANCH   5  18
ATOM     18  C   UNL     1      -3.031   0.570  -0.364  0.00  0.00    +0.186 C 
BRANCH  18  19
ATOM     19  O   UNL     1      -3.539  -0.322   0.613  0.00  0.00    -0.271 OA
BRANCH  19  20
ATOM     20  P   UNL     1      -4.496  -1.535   0.129  0.00  0.00    +0.473 P 
ATOM     21  O   UNL     1      -4.989  -2.431   1.228  0.00  0.00    -0.227 OA
BRANCH  20  22
ATOM     22  O   UNL     1      -3.633  -2.268  -1.026  0.00  0.00    -0.303 OA
ATOM     23  H   UNL     1      -3.359  -1.614  -1.688  0.00  0.00    +0.222 HD
ENDBRANCH  20  22
BRANCH  20  24
ATOM     24  O   UNL     1      -5.655  -0.771  -0.701  0.00  0.00    -0.303 OA
ATOM     25  H   UNL     1      -5.250  -0.218  -1.387  0.00  0.00    +0.222 HD
ENDBRANCH  20  24
ENDBRANCH  19  20
ENDBRANCH  18  19
ENDBRANCH   5  18
TORSDOF 7
