REMARK  Name = 10038928
REMARK  1 active torsions:
REMARK  status: ('A' for Active; 'I' for Inactive)
REMARK    1  A    between atoms: C_11  and  C_19
REMARK                            x       y       z     vdW  Elec       q    Type
REMARK                         _______ _______ _______ _____ _____    ______ ____
ROOT
ATOM      1  F   UNL     1       5.611  -1.049  -0.010  0.00  0.00    -0.204 F 
ATOM      2  O   UNL     1       0.820   1.661  -0.004  0.00  0.00    -0.430 OA
ATOM      3  O   UNL     1       0.718  -2.425   0.021  0.00  0.00    -0.290 OA
ATOM      4  N   UNL     1      -1.468   1.795   0.006  0.00  0.00    -0.355 NA
ATOM      5  C   UNL     1      -0.474  -0.395   0.015  0.00  0.00    +0.173 C 
ATOM      6  C   UNL     1       2.023  -0.464   0.004  0.00  0.00    +0.072 C 
ATOM      7  C   UNL     1       0.752  -1.203   0.014  0.00  0.00    +0.190 C 
ATOM      8  C   UNL     1      -0.381   0.990   0.006  0.00  0.00    +0.269 C 
ATOM      9  C   UNL     1       1.982   0.930  -0.005  0.00  0.00    +0.151 C 
ATOM     10  C   UNL     1      -1.734  -0.989   0.024  0.00  0.00    +0.000 C 
ATOM     11  C   UNL     1      -2.864  -0.181   0.025  0.00  0.00    +0.093 C 
ATOM     12  C   UNL     1       3.245  -1.140   0.002  0.00  0.00    +0.036 C 
ATOM     13  C   UNL     1      -2.679   1.192   0.015  0.00  0.00    +0.184 C 
ATOM     14  C   UNL     1       3.175   1.655  -0.015  0.00  0.00    +0.040 C 
ATOM     15  C   UNL     1       4.434  -0.410  -0.008  0.00  0.00    +0.140 C 
ATOM     16  C   UNL     1       4.399   0.985  -0.017  0.00  0.00    +0.033 C 
ATOM     17  N   UNL     1      -3.828   2.022   0.016  0.00  0.00    -0.333 N 
ATOM     18  H   UNL     1      -3.727   3.001   0.010  0.00  0.00    +0.145 HD
ATOM     19  H   UNL     1      -4.726   1.620   0.023  0.00  0.00    +0.145 HD
ENDROOT
BRANCH  11  22
ATOM     20  O   UNL     1      -4.789  -1.100   1.072  0.00  0.00    -0.270 OA
ATOM     21  N   UNL     1      -4.762  -1.074  -1.197  0.00  0.00    -0.325 N 
ATOM     22  C   UNL     1      -4.183  -0.798   0.035  0.00  0.00    +0.246 C 
ATOM     23  H   UNL     1      -5.652  -1.491  -1.240  0.00  0.00    +0.145 HD
ATOM     24  H   UNL     1      -4.281  -0.853  -2.027  0.00  0.00    +0.145 HD
ENDBRANCH  11  22
TORSDOF 1
