REMARK  Name = 16058629
REMARK  7 active torsions:
REMARK  status: ('A' for Active; 'I' for Inactive)
REMARK    1  A    between atoms: C_2  and  C_10
REMARK    2  A    between atoms: C_3  and  O_21
REMARK    3  A    between atoms: N_9  and  C_12
REMARK    4  A    between atoms: C_12  and  C_15
REMARK    5  A    between atoms: O_21  and  C_22
REMARK    6  A    between atoms: C_22  and  C_24
REMARK    7  A    between atoms: C_24  and  O_25
REMARK                            x       y       z     vdW  Elec       q    Type
REMARK                         _______ _______ _______ _____ _____    ______ ____
ROOT
ATOM      1 CL   UNL     1       6.112  -1.600  -0.715  0.00  0.00    -0.082 Cl
ATOM      2  C   UNL     1       2.497   0.984   0.062  0.00  0.00    +0.087 C 
ATOM      3  C   UNL     1       2.336  -0.372  -0.224  0.00  0.00    +0.145 C 
ATOM      4  C   UNL     1       3.775   1.541   0.109  0.00  0.00    +0.008 C 
ATOM      5  C   UNL     1       3.454  -1.171  -0.464  0.00  0.00    +0.048 C 
ATOM      6  C   UNL     1       4.893   0.741  -0.132  0.00  0.00    +0.012 C 
ATOM      7  C   UNL     1       4.732  -0.614  -0.418  0.00  0.00    +0.061 C 
ENDROOT
BRANCH   2  10
ATOM      8  O   UNL     1       1.445   2.828   1.058  0.00  0.00    -0.270 OA
ATOM      9  N   UNL     1       0.149   1.494  -0.328  0.00  0.00    -0.297 N 
ATOM     10  C   UNL     1       1.343   1.836   0.316  0.00  0.00    +0.249 C 
ATOM     11  H   UNL     1       0.142   0.694  -0.901  0.00  0.00    +0.150 HD
BRANCH   9  12
ATOM     12  C   UNL     1      -1.073   2.253  -0.196  0.00  0.00    +0.119 C 
BRANCH  12  15
ATOM     13 BR   UNL     1      -6.074  -1.341  -0.583  0.00  0.00    -0.049 Br
ATOM     14  F   UNL     1      -2.260   1.038   2.061  0.00  0.00    -0.204 F 
ATOM     15  C   UNL     1      -2.290   1.379  -0.287  0.00  0.00    +0.025 C 
ATOM     16  C   UNL     1      -2.822   0.813   0.865  0.00  0.00    +0.138 C 
ATOM     17  C   UNL     1      -2.873   1.144  -1.527  0.00  0.00    +0.000 C 
ATOM     18  C   UNL     1      -3.952   0.000   0.777  0.00  0.00    +0.036 C 
ATOM     19  C   UNL     1      -4.003   0.331  -1.615  0.00  0.00    +0.007 C 
ATOM     20  C   UNL     1      -4.543  -0.241  -0.463  0.00  0.00    +0.037 C 
ENDBRANCH  12  15
ENDBRANCH   9  12
ENDBRANCH   2  10
BRANCH   3  21
ATOM     21  O   UNL     1       1.096  -0.934  -0.274  0.00  0.00    -0.464 OA
BRANCH  21  22
ATOM     22  C   UNL     1       0.830  -1.998   0.638  0.00  0.00    +0.314 C 
BRANCH  22  24
ATOM     23  O   UNL     1      -1.379  -2.067  -0.370  0.00  0.00    -0.246 OA
ATOM     24  C   UNL     1      -0.570  -2.506   0.433  0.00  0.00    +0.359 C 
BRANCH  24  25
ATOM     25  O   UNL     1      -0.821  -3.539   1.276  0.00  0.00    -0.478 OA
ATOM     26  H   UNL     1      -0.158  -3.831   1.871  0.00  0.00    +0.295 HD
ENDBRANCH  24  25
ENDBRANCH  22  24
ENDBRANCH  21  22
ENDBRANCH   3  21
TORSDOF 7
