REMARK  Name = 46937046
REMARK  4 active torsions:
REMARK  status: ('A' for Active; 'I' for Inactive)
REMARK    1  A    between atoms: N_1  and  C_9
REMARK    2  A    between atoms: C_4  and  C_16
REMARK    3  A    between atoms: C_16  and  O_17
REMARK    4  A    between atoms: O_17  and  C_18
REMARK                            x       y       z     vdW  Elec       q    Type
REMARK                         _______ _______ _______ _____ _____    ______ ____
ROOT
ATOM      1  N   UNL     1      -0.904  -0.485  -0.062  0.00  0.00    -0.238 N 
ATOM      2  N   UNL     1      -0.473  -1.831  -0.391  0.00  0.00    -0.266 N 
ATOM      3  C   UNL     1       0.262   0.201   0.203  0.00  0.00    +0.122 C 
ATOM      4  C   UNL     1       1.395  -0.680   0.048  0.00  0.00    +0.083 C 
ATOM      5  C   UNL     1       0.903  -1.939  -0.323  0.00  0.00    +0.043 C 
ATOM      6  C   UNL     1       0.193   1.618   0.576  0.00  0.00    +0.028 C 
ATOM      7  C   UNL     1       1.589  -3.211  -0.613  0.00  0.00    +0.048 C 
ATOM      8  H   UNL     1      -1.080  -2.568  -0.631  0.00  0.00    +0.170 HD
ENDROOT
BRANCH   1   9
ATOM      9  C   UNL     1      -2.249  -0.015  -0.032  0.00  0.00    +0.065 C 
ATOM     10  C   UNL     1      -2.641   1.033  -0.865  0.00  0.00    +0.016 C 
ATOM     11  C   UNL     1      -3.174  -0.603   0.831  0.00  0.00    +0.016 C 
ATOM     12  C   UNL     1      -3.958   1.493  -0.836  0.00  0.00    +0.001 C 
ATOM     13  C   UNL     1      -4.490  -0.143   0.861  0.00  0.00    +0.001 C 
ATOM     14  C   UNL     1      -4.882   0.905   0.028  0.00  0.00    +0.000 C 
ENDBRANCH   1   9
BRANCH   4  16
ATOM     15  O   UNL     1       3.660  -1.170   0.606  0.00  0.00    -0.245 OA
ATOM     16  C   UNL     1       2.783  -0.365   0.230  0.00  0.00    +0.340 C 
BRANCH  16  17
ATOM     17  O   UNL     1       3.063   0.950  -0.060  0.00  0.00    -0.446 OA
BRANCH  17  18
ATOM     18  C   UNL     1       4.418   1.387   0.083  0.00  0.00    +0.209 C 
ATOM     19  C   UNL     1       4.505   2.854  -0.283  0.00  0.00    +0.051 C 
ENDBRANCH  17  18
ENDBRANCH  16  17
ENDBRANCH   4  16
TORSDOF 4
