REMARK  Name = 46937045
REMARK  3 active torsions:
REMARK  status: ('A' for Active; 'I' for Inactive)
REMARK    1  A    between atoms: C_3  and  C_13
REMARK    2  A    between atoms: C_9  and  O_11
REMARK    3  A    between atoms: C_13  and  C_16
REMARK                            x       y       z     vdW  Elec       q    Type
REMARK                         _______ _______ _______ _____ _____    ______ ____
ROOT
ATOM      1  O   UNL     1      -1.207   2.446   0.016  0.00  0.00    -0.210 OA
ATOM      2  N   UNL     1       1.019   2.161  -0.607  0.00  0.00    -0.333 NA
ATOM      3  C   UNL     1      -0.050   0.397   0.479  0.00  0.00    +0.080 C 
ATOM      4  C   UNL     1       1.199   0.003   0.225  0.00  0.00    +0.042 C 
ATOM      5  C   UNL     1       1.810   1.151  -0.454  0.00  0.00    +0.145 C 
ATOM      6  C   UNL     1      -0.184   1.781  -0.049  0.00  0.00    +0.201 C 
ATOM      7  C   UNL     1       1.941  -1.194   0.472  0.00  0.00    +0.040 C 
ATOM      8  C   UNL     1       3.221   1.020  -0.872  0.00  0.00    +0.036 C 
ATOM      9  C   UNL     1       3.221  -1.253   0.068  0.00  0.00    +0.134 C 
ATOM     10  C   UNL     1       3.861  -0.132  -0.609  0.00  0.00    +0.039 C 
ENDROOT
BRANCH   9  11
ATOM     11  O   UNL     1       4.026  -2.353   0.254  0.00  0.00    -0.506 OA
ATOM     12  H   UNL     1       3.688  -3.114   0.682  0.00  0.00    +0.292 HD
ENDBRANCH   9  11
BRANCH   3  13
ATOM     13  C   UNL     1      -1.147  -0.341   1.148  0.00  0.00    +0.070 C 
ATOM     14  C   UNL     1      -1.565   0.328   2.468  0.00  0.00    +0.012 C 
BRANCH  13  16
ATOM     15  N   UNL     1      -2.437  -1.643  -0.588  0.00  0.00    -0.315 N 
ATOM     16  C   UNL     1      -2.348  -0.550   0.233  0.00  0.00    +0.030 C 
ATOM     17  C   UNL     1      -3.478   0.214   0.043  0.00  0.00    +0.012 C 
ATOM     18  C   UNL     1      -3.608  -1.590  -1.299  0.00  0.00    +0.062 C 
ATOM     19  C   UNL     1      -4.275  -0.444  -0.926  0.00  0.00    +0.017 C 
ATOM     20  H   UNL     1      -1.763  -2.358  -0.657  0.00  0.00    +0.152 HD
ENDBRANCH  13  16
ENDBRANCH   3  13
TORSDOF 3
