REMARK  Name = 450268
REMARK  5 active torsions:
REMARK  status: ('A' for Active; 'I' for Inactive)
REMARK    1  A    between atoms: N_2  and  C_13
REMARK    2  A    between atoms: C_3  and  C_5
REMARK    3  A    between atoms: C_8  and  O_11
REMARK    4  A    between atoms: C_13  and  C_15
REMARK    5  A    between atoms: C_15  and  O_16
REMARK                            x       y       z     vdW  Elec       q    Type
REMARK                         _______ _______ _______ _____ _____    ______ ____
ROOT
ATOM      1  O   UNL     1      -0.784  -1.165  -1.360  0.00  0.00    -0.270 OA
ATOM      2  N   UNL     1      -1.484   0.793  -0.333  0.00  0.00    -0.291 N 
ATOM      3  C   UNL     1      -0.509  -0.134  -0.721  0.00  0.00    +0.246 C 
ATOM      4  H   UNL     1      -1.195   1.588   0.171  0.00  0.00    +0.150 HD
ENDROOT
BRANCH   3   5
ATOM      5  C   UNL     1       0.862   0.143  -0.323  0.00  0.00    +0.056 C 
ATOM      6  C   UNL     1       1.764  -0.907  -0.150  0.00  0.00    +0.041 C 
ATOM      7  C   UNL     1       1.274   1.459  -0.112  0.00  0.00    +0.005 C 
ATOM      8  C   UNL     1       3.079  -0.640   0.233  0.00  0.00    +0.134 C 
ATOM      9  C   UNL     1       2.588   1.725   0.271  0.00  0.00    +0.003 C 
ATOM     10  C   UNL     1       3.491   0.675   0.443  0.00  0.00    +0.037 C 
BRANCH   8  11
ATOM     11  O   UNL     1       3.960  -1.664   0.400  0.00  0.00    -0.506 OA
ATOM     12  H   UNL     1       3.683  -2.548   0.259  0.00  0.00    +0.292 HD
ENDBRANCH   8  11
ENDBRANCH   3   5
BRANCH   2  13
ATOM     13  C   UNL     1      -2.890   0.646  -0.633  0.00  0.00    +0.201 C 
BRANCH  13  15
ATOM     14  O   UNL     1      -4.842  -0.341   0.371  0.00  0.00    -0.248 OA
ATOM     15  C   UNL     1      -3.643  -0.103   0.437  0.00  0.00    +0.334 C 
BRANCH  15  16
ATOM     16  O   UNL     1      -2.867  -0.485   1.477  0.00  0.00    -0.479 OA
ATOM     17  H   UNL     1      -1.953  -0.278   1.481  0.00  0.00    +0.295 HD
ENDBRANCH  15  16
ENDBRANCH  13  15
ENDBRANCH   2  13
TORSDOF 5
