REMARK  Name = 6852141
REMARK  6 active torsions:
REMARK  status: ('A' for Active; 'I' for Inactive)
REMARK    1  A    between atoms: C_3  and  N_18
REMARK    2  A    between atoms: C_7  and  C_31
REMARK    3  A    between atoms: C_9  and  C_13
REMARK    4  A    between atoms: C_19  and  C_21
REMARK    5  A    between atoms: C_24  and  O_28
REMARK    6  A    between atoms: C_31  and  O_32
REMARK                            x       y       z     vdW  Elec       q    Type
REMARK                         _______ _______ _______ _____ _____    ______ ____
ROOT
ATOM      1  C   UNL     1      -1.478  -0.872   0.141  0.00  0.00    +0.014 C 
ATOM      2  C   UNL     1      -2.885  -0.836  -0.003  0.00  0.00    +0.001 C 
ATOM      3  C   UNL     1      -0.768   0.335   0.252  0.00  0.00    +0.051 C 
ATOM      4  C   UNL     1      -0.822  -2.113   0.169  0.00  0.00    +0.004 C 
ATOM      5  C   UNL     1      -3.542   0.405  -0.031  0.00  0.00    +0.007 C 
ATOM      6  C   UNL     1      -1.437   1.559   0.223  0.00  0.00    +0.021 C 
ATOM      7  C   UNL     1      -2.821   1.594   0.081  0.00  0.00    +0.077 C 
ATOM      8  C   UNL     1      -3.595  -2.043  -0.115  0.00  0.00    +0.000 C 
ATOM      9  C   UNL     1      -1.543  -3.302   0.057  0.00  0.00    +0.031 C 
ATOM     10  C   UNL     1      -2.927  -3.267  -0.084  0.00  0.00    +0.003 C 
ENDROOT
BRANCH   9  13
ATOM     11  N   UNL     1      -1.540  -5.784  -0.020  0.00  0.00    -0.343 N 
ATOM     12  N   UNL     1       0.466  -4.611   0.228  0.00  0.00    -0.285 NA
ATOM     13  C   UNL     1      -0.848  -4.579   0.089  0.00  0.00    +0.117 C 
ATOM     14  H   UNL     1      -1.050  -6.637   0.004  0.00  0.00    +0.144 HD
ATOM     15  H   UNL     1      -2.520  -5.781  -0.121  0.00  0.00    +0.144 HD
ATOM     16  H   UNL     1       0.938  -5.474   0.250  0.00  0.00    +0.188 HD
ENDBRANCH   9  13
BRANCH   3  18
ATOM     17  O   UNL     1       1.231   2.387  -0.630  0.00  0.00    -0.270 OA
ATOM     18  N   UNL     1       0.625   0.362   0.395  0.00  0.00    -0.280 N 
ATOM     19  C   UNL     1       1.512   1.351  -0.039  0.00  0.00    +0.249 C 
ATOM     20  H   UNL     1       1.027  -0.409   0.856  0.00  0.00    +0.155 HD
BRANCH  19  21
ATOM     21  C   UNL     1       2.947   1.078   0.236  0.00  0.00    +0.053 C 
ATOM     22  C   UNL     1       3.715   0.401  -0.689  0.00  0.00    +0.016 C 
ATOM     23  C   UNL     1       3.467   1.524   1.435  0.00  0.00    +0.004 C 
ATOM     24  C   UNL     1       5.059   0.159  -0.404  0.00  0.00    +0.130 C 
ATOM     25  C   UNL     1       3.136  -0.075  -1.984  0.00  0.00    +0.034 C 
ATOM     26  C   UNL     1       4.811   1.282   1.720  0.00  0.00    +0.003 C 
ATOM     27  C   UNL     1       5.606   0.600   0.800  0.00  0.00    +0.036 C 
BRANCH  24  28
ATOM     28  O   UNL     1       5.853  -0.505  -1.291  0.00  0.00    -0.506 OA
ATOM     29  H   UNL     1       5.497  -0.806  -2.104  0.00  0.00    +0.292 HD
ENDBRANCH  24  28
ENDBRANCH  19  21
ENDBRANCH   3  18
BRANCH   7  31
ATOM     30  O   UNL     1      -4.675   3.049   0.449  0.00  0.00    -0.245 OA
ATOM     31  C   UNL     1      -3.516   2.872   0.050  0.00  0.00    +0.341 C 
BRANCH  31  32
ATOM     32  O   UNL     1      -2.729   3.860  -0.476  0.00  0.00    -0.441 OA
ATOM     33  C   UNL     1      -3.303   5.169  -0.559  0.00  0.00    +0.256 C 
ENDBRANCH  31  32
ENDBRANCH   7  31
TORSDOF 6
