REMARK  Name = 11987860
REMARK  5 active torsions:
REMARK  status: ('A' for Active; 'I' for Inactive)
REMARK    1  A    between atoms: N_2  and  C_19
REMARK    2  A    between atoms: C_3  and  C_11
REMARK    3  A    between atoms: N_9  and  O_17
REMARK    4  A    between atoms: C_19  and  C_20
REMARK    5  A    between atoms: C_23  and  C_26
REMARK                            x       y       z     vdW  Elec       q    Type
REMARK                         _______ _______ _______ _____ _____    ______ ____
ROOT
ATOM      1  O   UNL     1       0.970   2.251  -1.579  0.00  0.00    -0.272 OA
ATOM      2  N   UNL     1       0.561   2.166   0.711  0.00  0.00    -0.298 N 
ATOM      3  C   UNL     1       1.278   1.901  -0.443  0.00  0.00    +0.253 C 
ATOM      4  H   UNL     1       0.912   1.831   1.568  0.00  0.00    +0.150 HD
ENDROOT
BRANCH   3  11
ATOM      5  O   UNL     1       2.045  -0.976  -0.925  0.00  0.00    -0.327 OA
ATOM      6  O   UNL     1       3.186   0.983  -1.430  0.00  0.00    -0.320 OA
ATOM      7  O   UNL     1       6.074  -1.171   1.946  0.00  0.00    -0.250 OA
ATOM      8  N   UNL     1       4.649  -0.969   0.124  0.00  0.00    -0.255 N 
ATOM      9  N   UNL     1       6.977  -1.115  -0.159  0.00  0.00    -0.181 N 
ATOM     10  C   UNL     1       2.253  -0.279   0.311  0.00  0.00    +0.174 C 
ATOM     11  C   UNL     1       2.533   1.136  -0.167  0.00  0.00    +0.222 C 
ATOM     12  C   UNL     1       3.090  -0.418  -1.727  0.00  0.00    +0.256 C 
ATOM     13  C   UNL     1       3.461  -0.932   0.990  0.00  0.00    +0.128 C 
ATOM     14  C   UNL     1       4.405  -1.088  -1.328  0.00  0.00    +0.156 C 
ATOM     15  C   UNL     1       5.917  -1.093   0.723  0.00  0.00    +0.326 C 
ATOM     16  H   UNL     1       6.853  -1.053  -1.133  0.00  0.00    +0.184 HD
BRANCH   9  17
ATOM     17  O   UNL     1       8.245  -1.233   0.431  0.00  0.00    -0.294 OA
ATOM     18  H   UNL     1       8.925  -1.241  -0.262  0.00  0.00    +0.241 HD
ENDBRANCH   9  17
ENDBRANCH   3  11
BRANCH   2  19
ATOM     19  C   UNL     1      -0.678   2.910   0.718  0.00  0.00    +0.116 C 
BRANCH  19  20
ATOM     20  C   UNL     1      -1.850   1.984   0.547  0.00  0.00    -0.003 C 
ATOM     21  C   UNL     1      -2.456   1.431   1.669  0.00  0.00    -0.003 C 
ATOM     22  C   UNL     1      -2.313   1.692  -0.729  0.00  0.00    -0.003 C 
ATOM     23  C   UNL     1      -4.015   0.273   0.233  0.00  0.00    -0.000 C 
ATOM     24  C   UNL     1      -3.543   0.572   1.510  0.00  0.00    -0.000 C 
ATOM     25  C   UNL     1      -3.400   0.833  -0.887  0.00  0.00    -0.000 C 
BRANCH  23  26
ATOM     26  C   UNL     1      -5.144  -0.618   0.068  0.00  0.00    -0.000 C 
ATOM     27  C   UNL     1      -4.935  -1.990  -0.068  0.00  0.00    -0.000 C 
ATOM     28  C   UNL     1      -6.440  -0.104   0.047  0.00  0.00    -0.000 C 
ATOM     29  C   UNL     1      -6.023  -2.849  -0.226  0.00  0.00    +0.000 C 
ATOM     30  C   UNL     1      -7.528  -0.962  -0.111  0.00  0.00    +0.000 C 
ATOM     31  C   UNL     1      -7.320  -2.335  -0.248  0.00  0.00    +0.000 C 
ENDBRANCH  23  26
ENDBRANCH  19  20
ENDBRANCH   2  19
TORSDOF 5
