REMARK  Name = 46937048
REMARK  4 active torsions:
REMARK  status: ('A' for Active; 'I' for Inactive)
REMARK    1  A    between atoms: C_2  and  C_20
REMARK    2  A    between atoms: C_8  and  C_12
REMARK    3  A    between atoms: C_17  and  O_18
REMARK    4  A    between atoms: C_20  and  O_21
REMARK                            x       y       z     vdW  Elec       q    Type
REMARK                         _______ _______ _______ _____ _____    ______ ____
ROOT
ATOM      1  O   UNL     1      -0.314  -1.360   0.735  0.00  0.00    -0.352 OA
ATOM      2  C   UNL     1      -2.604  -0.496   0.318  0.00  0.00    +0.055 C 
ATOM      3  C   UNL     1      -2.116   0.146  -1.007  0.00  0.00    +0.007 C 
ATOM      4  C   UNL     1      -0.624   0.525  -0.823  0.00  0.00    +0.032 C 
ATOM      5  C   UNL     1      -0.496   1.639   0.262  0.00  0.00    +0.003 C 
ATOM      6  C   UNL     1      -2.537   0.594   1.424  0.00  0.00    +0.005 C 
ATOM      7  C   UNL     1      -1.169   1.260   1.591  0.00  0.00    +0.000 C 
ATOM      8  C   UNL     1       0.180  -0.761  -0.467  0.00  0.00    +0.137 C 
ATOM      9  C   UNL     1      -1.699  -1.698   0.680  0.00  0.00    +0.145 C 
ATOM     10  C   UNL     1      -2.333  -0.716  -2.260  0.00  0.00    +0.000 C 
ATOM     11  C   UNL     1      -1.034   2.986  -0.244  0.00  0.00    +0.000 C 
ENDROOT
BRANCH   8  12
ATOM     12  C   UNL     1       1.637  -0.497  -0.276  0.00  0.00    +0.005 C 
ATOM     13  C   UNL     1       2.399   0.009  -1.329  0.00  0.00    +0.001 C 
ATOM     14  C   UNL     1       2.236  -0.755   0.957  0.00  0.00    +0.001 C 
ATOM     15  C   UNL     1       3.760   0.256  -1.150  0.00  0.00    +0.036 C 
ATOM     16  C   UNL     1       3.598  -0.508   1.136  0.00  0.00    +0.036 C 
ATOM     17  C   UNL     1       4.359  -0.003   0.083  0.00  0.00    +0.134 C 
BRANCH  17  18
ATOM     18  O   UNL     1       5.687   0.238   0.258  0.00  0.00    -0.506 OA
ATOM     19  H   UNL     1       6.199   0.578  -0.450  0.00  0.00    +0.292 HD
ENDBRANCH  17  18
ENDBRANCH   8  12
BRANCH   2  20
ATOM     20  C   UNL     1      -4.060  -0.984   0.218  0.00  0.00    +0.139 C 
BRANCH  20  21
ATOM     21  O   UNL     1      -4.872   0.125  -0.106  0.00  0.00    -0.382 OA
ATOM     22  H   UNL     1      -5.796  -0.160  -0.175  0.00  0.00    +0.210 HD
ENDBRANCH  20  21
ENDBRANCH   2  20
TORSDOF 4
