REMARK  Name = 25271577
REMARK  8 active torsions:
REMARK  status: ('A' for Active; 'I' for Inactive)
REMARK    1  A    between atoms: C_1  and  C_8
REMARK    2  A    between atoms: C_1  and  N_16
REMARK    3  A    between atoms: C_1  and  C_20
REMARK    4  A    between atoms: C_4  and  C_11
REMARK    5  A    between atoms: N_10  and  C_13
REMARK    6  A    between atoms: C_13  and  C_14
REMARK    7  A    between atoms: C_20  and  C_21
REMARK    8  A    between atoms: C_20  and  C_27
REMARK                            x       y       z     vdW  Elec       q    Type
REMARK                         _______ _______ _______ _____ _____    ______ ____
ROOT
ATOM      1  C   UNL     1       0.701   0.952   0.090  0.00  0.00    +0.021 C 
ENDROOT
BRANCH   1   8
ATOM      2  O   UNL     1      -0.913  -0.494  -0.895  0.00  0.00    -0.277 OA
ATOM      3  N   UNL     1      -1.562   0.685   0.988  0.00  0.00    -0.275 N 
ATOM      4  C   UNL     1      -2.858   0.041   1.151  0.00  0.00    +0.152 C 
ATOM      5  C   UNL     1      -3.302   0.412   2.561  0.00  0.00    +0.031 C 
ATOM      6  C   UNL     1      -2.633   1.764   2.798  0.00  0.00    +0.024 C 
ATOM      7  C   UNL     1      -1.302   1.628   2.074  0.00  0.00    +0.094 C 
ATOM      8  C   UNL     1      -0.659   0.306   0.007  0.00  0.00    +0.206 C 
BRANCH   4  11
ATOM      9  O   UNL     1      -3.637   1.764  -0.307  0.00  0.00    -0.273 OA
ATOM     10  N   UNL     1      -4.753  -0.279  -0.279  0.00  0.00    -0.303 N 
ATOM     11  C   UNL     1      -3.771   0.616   0.110  0.00  0.00    +0.241 C 
ATOM     12  H   UNL     1      -4.757  -1.176   0.128  0.00  0.00    +0.149 HD
BRANCH  10  13
ATOM     13  C   UNL     1      -5.772   0.039  -1.253  0.00  0.00    +0.089 C 
BRANCH  13  14
ATOM     14  C   UNL     1      -5.343  -0.305  -2.674  0.00  0.00    +0.021 C 
ATOM     15  C   UNL     1      -5.052  -1.788  -2.859  0.00  0.00    +0.002 C 
ENDBRANCH  13  14
ENDBRANCH  10  13
ENDBRANCH   4  11
ENDBRANCH   1   8
BRANCH   1  16
ATOM     16  N   UNL     1       0.543   2.230  -0.603  0.00  0.00    +0.388 N 
ATOM     17  H   UNL     1      -0.177   2.782  -0.137  0.00  0.00    -0.089 HD
ATOM     18  H   UNL     1       0.268   2.060  -1.570  0.00  0.00    -0.089 HD
ATOM     19  H   UNL     1       1.427   2.738  -0.585  0.00  0.00    -0.089 HD
ENDBRANCH   1  16
BRANCH   1  20
ATOM     20  C   UNL     1       1.782   0.046  -0.557  0.00  0.00    +0.033 C 
BRANCH  20  21
ATOM     21  C   UNL     1       1.903  -1.329   0.101  0.00  0.00    -0.020 C 
ATOM     22  C   UNL     1       2.306  -2.431  -0.653  0.00  0.00    -0.004 C 
ATOM     23  C   UNL     1       1.613  -1.481   1.457  0.00  0.00    -0.004 C 
ATOM     24  C   UNL     1       2.417  -3.685  -0.053  0.00  0.00    -0.000 C 
ATOM     25  C   UNL     1       1.725  -2.735   2.058  0.00  0.00    -0.000 C 
ATOM     26  C   UNL     1       2.127  -3.837   1.303  0.00  0.00    -0.000 C 
ENDBRANCH  20  21
BRANCH  20  27
ATOM     27  C   UNL     1       3.154   0.708  -0.663  0.00  0.00    -0.020 C 
ATOM     28  C   UNL     1       4.018   0.360  -1.702  0.00  0.00    -0.004 C 
ATOM     29  C   UNL     1       3.543   1.661   0.278  0.00  0.00    -0.004 C 
ATOM     30  C   UNL     1       5.270   0.966  -1.800  0.00  0.00    -0.000 C 
ATOM     31  C   UNL     1       4.796   2.267   0.180  0.00  0.00    -0.000 C 
ATOM     32  C   UNL     1       5.660   1.919  -0.859  0.00  0.00    -0.000 C 
ENDBRANCH  20  27
ENDBRANCH   1  20
TORSDOF 8
