REMARK  Name = 44144378
REMARK  5 active torsions:
REMARK  status: ('A' for Active; 'I' for Inactive)
REMARK    1  A    between atoms: C_1  and  C_3
REMARK    2  A    between atoms: C_1  and  C_18
REMARK    3  A    between atoms: C_4  and  C_9
REMARK    4  A    between atoms: C_8  and  O_16
REMARK    5  A    between atoms: C_19  and  C_24
REMARK                            x       y       z     vdW  Elec       q    Type
REMARK                         _______ _______ _______ _____ _____    ______ ____
ROOT
ATOM      1  C   UNL     1       0.328   0.782  -1.906  0.00  0.00    +0.086 C 
ATOM      2  C   UNL     1       0.590   2.036  -2.763  0.00  0.00    +0.019 C 
ENDROOT
BRANCH   1   3
ATOM      3  C   UNL     1      -0.720   1.006  -0.869  0.00  0.00    -0.007 C 
ATOM      4  C   UNL     1      -2.883   0.477   0.069  0.00  0.00    +0.003 C 
ATOM      5  C   UNL     1      -1.903   0.268  -0.902  0.00  0.00    -0.003 C 
ATOM      6  C   UNL     1      -0.516   1.952   0.135  0.00  0.00    +0.034 C 
ATOM      7  C   UNL     1      -2.679   1.424   1.073  0.00  0.00    +0.037 C 
ATOM      8  C   UNL     1      -1.496   2.162   1.106  0.00  0.00    +0.138 C 
BRANCH   4   9
ATOM      9  C   UNL     1      -4.111  -0.289   0.035  0.00  0.00    +0.000 C 
ATOM     10  C   UNL     1      -4.621  -0.735  -1.184  0.00  0.00    -0.000 C 
ATOM     11  C   UNL     1      -4.783  -0.581   1.222  0.00  0.00    -0.000 C 
ATOM     12  C   UNL     1      -6.477  -1.765  -0.030  0.00  0.00    -0.022 C 
ATOM     13  C   UNL     1      -5.804  -1.473  -1.217  0.00  0.00    -0.004 C 
ATOM     14  C   UNL     1      -5.966  -1.319   1.189  0.00  0.00    -0.004 C 
ATOM     15  C   UNL     1      -7.742  -2.554  -0.065  0.00  0.00    +0.031 C 
ENDBRANCH   4   9
BRANCH   8  16
ATOM     16  O   UNL     1      -1.297   3.086   2.085  0.00  0.00    -0.471 OA
ATOM     17  C   UNL     1      -0.064   3.805   2.058  0.00  0.00    +0.252 C 
ENDBRANCH   8  16
ENDBRANCH   1   3
BRANCH   1  18
ATOM     18  C   UNL     1       1.606   0.300  -1.323  0.00  0.00    -0.087 C 
ATOM     19  C   UNL     1       2.651  -0.071  -0.860  0.00  0.00    -0.076 C 
BRANCH  19  24
ATOM     20  N   UNL     1       5.116  -1.982   1.151  0.00  0.00    -0.336 NA
ATOM     21  N   UNL     1       6.291  -0.324  -0.146  0.00  0.00    -0.317 NA
ATOM     22  N   UNL     1       5.110   1.134  -1.585  0.00  0.00    -0.334 N 
ATOM     23  N   UNL     1       7.450  -1.777   1.286  0.00  0.00    -0.283 N 
ATOM     24  C   UNL     1       3.896  -0.507  -0.309  0.00  0.00    +0.179 C 
ATOM     25  C   UNL     1       3.965  -1.538   0.605  0.00  0.00    +0.120 C 
ATOM     26  C   UNL     1       5.103   0.069  -0.651  0.00  0.00    +0.186 C 
ATOM     27  C   UNL     1       2.729  -2.247   1.060  0.00  0.00    +0.064 C 
ATOM     28  C   UNL     1       6.225  -1.339   0.737  0.00  0.00    +0.196 C 
ATOM     29  H   UNL     1       5.961   1.558  -1.842  0.00  0.00    +0.144 HD
ATOM     30  H   UNL     1       4.265   1.451  -1.978  0.00  0.00    +0.144 HD
ATOM     31  H   UNL     1       7.461  -2.516   1.937  0.00  0.00    +0.156 HD
ATOM     32  H   UNL     1       8.292  -1.343   1.019  0.00  0.00    +0.156 HD
ENDBRANCH  19  24
ENDBRANCH   1  18
TORSDOF 5
