REMARK  Name = 5459348
REMARK  5 active torsions:
REMARK  status: ('A' for Active; 'I' for Inactive)
REMARK    1  A    between atoms: C_4  and  C_11
REMARK    2  A    between atoms: C_6  and  O_13
REMARK    3  A    between atoms: O_13  and  C_14
REMARK    4  A    between atoms: C_17  and  C_20
REMARK    5  A    between atoms: C_21  and  C_23
REMARK                            x       y       z     vdW  Elec       q    Type
REMARK                         _______ _______ _______ _____ _____    ______ ____
ROOT
ATOM      1  I   UNL     1       1.422  -2.848  -1.629  0.00  0.00    -0.034 I 
ATOM      2  O   UNL     1       4.389  -2.344  -0.515  0.00  0.00    -0.267 OA
ATOM      3  N   UNL     1       4.283  -0.185   0.235  0.00  0.00    -0.324 N 
ATOM      4  C   UNL     1       2.339   1.143   0.009  0.00  0.00    +0.024 A 
ATOM      5  C   UNL     1       3.620   1.011   0.418  0.00  0.00    +0.035 A 
ATOM      6  C   UNL     1       1.670  -0.021  -0.588  0.00  0.00    +0.152 A 
ATOM      7  C   UNL     1       2.314  -1.187  -0.785  0.00  0.00    +0.120 A 
ATOM      8  C   UNL     1       4.446   2.074   1.087  0.00  0.00    +0.050 C 
ATOM      9  C   UNL     1       3.744  -1.309  -0.357  0.00  0.00    +0.266 A 
ATOM     10  H   UNL     1       5.214  -0.241   0.552  0.00  0.00    +0.169 HD
ENDROOT
BRANCH   4  11
ATOM     11  C   UNL     1       1.577   2.441   0.090  0.00  0.00    +0.031 C 
ATOM     12  C   UNL     1       1.790   3.285  -1.149  0.00  0.00    +0.005 C 
ENDBRANCH   4  11
BRANCH   6  13
ATOM     13  O   UNL     1       0.336   0.110  -0.939  0.00  0.00    -0.453 OA
BRANCH  13  14
ATOM     14  C   UNL     1      -0.581  -0.212   0.017  0.00  0.00    +0.145 C 
ATOM     15  C   UNL     1      -1.943  -0.106  -0.263  0.00  0.00    +0.038 C 
ATOM     16  C   UNL     1      -0.156  -0.648   1.271  0.00  0.00    +0.037 C 
ATOM     17  C   UNL     1      -2.881  -0.436   0.715  0.00  0.00    +0.004 C 
ATOM     18  C   UNL     1      -1.095  -0.977   2.248  0.00  0.00    +0.003 C 
ATOM     19  C   UNL     1      -2.457  -0.871   1.971  0.00  0.00    +0.000 C 
BRANCH  17  20
ATOM     20  C   UNL     1      -4.303  -0.326   0.426  0.00  0.00    +0.011 C 
ATOM     21  C   UNL     1      -4.852   0.415  -0.562  0.00  0.00    +0.078 C 
BRANCH  21  23
ATOM     22  N   UNL     1      -7.405   0.519  -0.937  0.00  0.00    -0.191 NA
ATOM     23  C   UNL     1      -6.258   0.471  -0.766  0.00  0.00    +0.101 C 
ENDBRANCH  21  23
ENDBRANCH  17  20
ENDBRANCH  13  14
ENDBRANCH   6  13
TORSDOF 5
