447734
  -OEChem-10051720563D

 51 54  0     0  0  0  0  0  0999 V2000
   -5.4454    0.1212   -0.3726 O   0  0  0  0  0  0  0  0  0  0  0  0
   -0.8046    0.7907   -0.4846 O   0  0  0  0  0  0  0  0  0  0  0  0
   -0.9403   -1.4887    0.0548 N   0  0  0  0  0  0  0  0  0  0  0  0
    8.3951    1.5779    0.4094 N   0  0  0  0  0  0  0  0  0  0  0  0
    8.2078   -0.6784   -0.1698 N   0  0  0  0  0  0  0  0  0  0  0  0
   -5.3794    1.2519    0.4875 C   0  0  0  0  0  0  0  0  0  0  0  0
   -6.7443    1.4905    1.1147 C   0  0  0  0  0  0  0  0  0  0  0  0
   -5.1469    2.5195   -0.3206 C   0  0  0  0  0  0  0  0  0  0  0  0
   -7.5440    2.2105    0.0298 C   0  0  0  0  0  0  0  0  0  0  0  0
   -6.5176    2.8452   -0.9090 C   0  0  0  0  0  0  0  0  0  0  0  0
   -4.5793   -0.8985   -0.1229 C   0  0  0  0  0  0  0  0  0  0  0  0
   -3.2036   -0.6711   -0.1630 C   0  0  0  0  0  0  0  0  0  0  0  0
   -5.0675   -2.1712    0.1735 C   0  0  0  0  0  0  0  0  0  0  0  0
   -2.3374   -1.7200    0.0938 C   0  0  0  0  0  0  0  0  0  0  0  0
   -4.1802   -3.2164    0.4298 C   0  0  0  0  0  0  0  0  0  0  0  0
   -2.8047   -2.9891    0.3897 C   0  0  0  0  0  0  0  0  0  0  0  0
    3.3531    0.6980    0.0961 C   0  0  0  0  0  0  0  0  0  0  0  0
    3.9955   -0.5272   -0.2027 C   0  0  0  0  0  0  0  0  0  0  0  0
    1.1912   -0.3732   -0.2143 C   0  0  0  0  0  0  0  0  0  0  0  0
    1.9501    0.7584    0.0860 C   0  0  0  0  0  0  0  0  0  0  0  0
   -0.2608   -0.2939   -0.2210 C   0  0  0  0  0  0  0  0  0  0  0  0
    3.2158   -1.6559   -0.5030 C   0  0  0  0  0  0  0  0  0  0  0  0
    1.8228   -1.5779   -0.5083 C   0  0  0  0  0  0  0  0  0  0  0  0
    5.3986   -0.5874   -0.1928 C   0  0  0  0  0  0  0  0  0  0  0  0
    4.1328    1.8268    0.3963 C   0  0  0  0  0  0  0  0  0  0  0  0
    6.1576    0.5441    0.1079 C   0  0  0  0  0  0  0  0  0  0  0  0
    5.5258    1.7488    0.4018 C   0  0  0  0  0  0  0  0  0  0  0  0
    7.6097    0.4652    0.1136 C   0  0  0  0  0  0  0  0  0  0  0  0
   -4.6185    1.1312    1.2685 H   0  0  0  0  0  0  0  0  0  0  0  0
   -6.6479    2.1454    1.9889 H   0  0  0  0  0  0  0  0  0  0  0  0
   -7.2411    0.5662    1.4253 H   0  0  0  0  0  0  0  0  0  0  0  0
   -4.3984    2.3948   -1.1088 H   0  0  0  0  0  0  0  0  0  0  0  0
   -4.8289    3.3352    0.3392 H   0  0  0  0  0  0  0  0  0  0  0  0
   -8.2142    2.9591    0.4646 H   0  0  0  0  0  0  0  0  0  0  0  0
   -8.1653    1.4982   -0.5253 H   0  0  0  0  0  0  0  0  0  0  0  0
   -6.6144    2.4112   -1.9110 H   0  0  0  0  0  0  0  0  0  0  0  0
   -6.6648    3.9256   -1.0048 H   0  0  0  0  0  0  0  0  0  0  0  0
   -2.8891    0.3310   -0.4114 H   0  0  0  0  0  0  0  0  0  0  0  0
   -6.1381   -2.3539    0.2067 H   0  0  0  0  0  0  0  0  0  0  0  0
   -4.5605   -4.2072    0.6608 H   0  0  0  0  0  0  0  0  0  0  0  0
   -2.1225   -3.8103    0.5909 H   0  0  0  0  0  0  0  0  0  0  0  0
   -0.3904   -2.3078    0.2988 H   0  0  0  0  0  0  0  0  0  0  0  0
    1.4549    1.6992    0.3212 H   0  0  0  0  0  0  0  0  0  0  0  0
    3.6885   -2.6058   -0.7443 H   0  0  0  0  0  0  0  0  0  0  0  0
    1.2769   -2.4745   -0.7864 H   0  0  0  0  0  0  0  0  0  0  0  0
    5.8816   -1.5350   -0.4243 H   0  0  0  0  0  0  0  0  0  0  0  0
    3.6599    2.7788    0.6290 H   0  0  0  0  0  0  0  0  0  0  0  0
    6.0669    2.6574    0.6417 H   0  0  0  0  0  0  0  0  0  0  0  0
    9.4072    1.5032    0.4068 H   0  0  0  0  0  0  0  0  0  0  0  0
    8.0198    2.4901    0.6366 H   0  0  0  0  0  0  0  0  0  0  0  0
    9.2221   -0.5333   -0.1161 H   0  0  0  0  0  0  0  0  0  0  0  0
  1  6  1  0  0  0  0
  1 11  1  0  0  0  0
  2 21  2  0  0  0  0
  3 14  1  0  0  0  0
  3 21  1  0  0  0  0
  3 42  1  0  0  0  0
  4 28  1  0  0  0  0
  4 49  1  0  0  0  0
  4 50  1  0  0  0  0
  5 28  2  0  0  0  0
  5 51  1  0  0  0  0
  6  7  1  0  0  0  0
  6  8  1  0  0  0  0
  6 29  1  0  0  0  0
  7  9  1  0  0  0  0
  7 30  1  0  0  0  0
  7 31  1  0  0  0  0
  8 10  1  0  0  0  0
  8 32  1  0  0  0  0
  8 33  1  0  0  0  0
  9 10  1  0  0  0  0
  9 34  1  0  0  0  0
  9 35  1  0  0  0  0
 10 36  1  0  0  0  0
 10 37  1  0  0  0  0
 11 12  1  0  0  0  0
 11 13  2  0  0  0  0
 12 14  2  0  0  0  0
 12 38  1  0  0  0  0
 13 15  1  0  0  0  0
 13 39  1  0  0  0  0
 14 16  1  0  0  0  0
 15 16  2  0  0  0  0
 15 40  1  0  0  0  0
 16 41  1  0  0  0  0
 17 18  2  0  0  0  0
 17 20  1  0  0  0  0
 17 25  1  0  0  0  0
 18 22  1  0  0  0  0
 18 24  1  0  0  0  0
 19 20  2  0  0  0  0
 19 21  1  0  0  0  0
 19 23  1  0  0  0  0
 20 43  1  0  0  0  0
 22 23  2  0  0  0  0
 22 44  1  0  0  0  0
 23 45  1  0  0  0  0
 24 26  2  0  0  0  0
 24 46  1  0  0  0  0
 25 27  2  0  0  0  0
 25 47  1  0  0  0  0
 26 27  1  0  0  0  0
 26 28  1  0  0  0  0
 27 48  1  0  0  0  0
M  END
> <DATABASE_ID>
DB07076

> <DATABASE_NAME>
drugbank

> <ORIGINAL_SOURCE>
PUBCHEM

> <ORIGINAL_SOURCE_URL>
https://pubchem.ncbi.nlm.nih.gov/rest/pug/compound/inchikey/FWTQOPWAMQXIMI-UHFFFAOYSA-N/SDF?record_type=3d

> <SMILES>
NC(=N)C1=CC2=CC=C(C=C2C=C1)C(=O)NC1=CC=CC(OC2CCCC2)=C1

> <INCHI_IDENTIFIER>
InChI=1S/C23H23N3O2/c24-22(25)17-10-8-16-13-18(11-9-15(16)12-17)23(27)26-19-4-3-7-21(14-19)28-20-5-1-2-6-20/h3-4,7-14,20H,1-2,5-6H2,(H3,24,25)(H,26,27)

> <INCHI_KEY>
FWTQOPWAMQXIMI-UHFFFAOYSA-N

> <FORMULA>
C23H23N3O2

> <MOLECULAR_WEIGHT>
373.4476

> <EXACT_MASS>
373.179026995

> <JCHEM_ACCEPTOR_COUNT>
4

> <JCHEM_AVERAGE_POLARIZABILITY>
42.18358408283505

> <JCHEM_BIOAVAILABILITY>
1

> <JCHEM_DONOR_COUNT>
3

> <JCHEM_FORMAL_CHARGE>
0

> <JCHEM_GHOSE_FILTER>
1

> <JCHEM_IUPAC>
6-carbamimidoyl-N-[3-(cyclopentyloxy)phenyl]naphthalene-2-carboxamide

> <ALOGPS_LOGP>
4.24

> <JCHEM_LOGP>
3.6639021968300445

> <ALOGPS_LOGS>
-5.35

> <JCHEM_MDDR_LIKE_RULE>
0

> <JCHEM_NUMBER_OF_RINGS>
4

> <JCHEM_PHYSIOLOGICAL_CHARGE>
1

> <JCHEM_PKA_STRONGEST_ACIDIC>
11.790265799164679

> <JCHEM_PKA_STRONGEST_BASIC>
11.124455028608258

> <JCHEM_POLAR_SURFACE_AREA>
88.2

> <JCHEM_REFRACTIVITY>
122.59059999999998

> <JCHEM_ROTATABLE_BOND_COUNT>
5

> <JCHEM_RULE_OF_FIVE>
1

> <ALOGPS_SOLUBILITY>
1.68e-03 g/l

> <JCHEM_TRADITIONAL_IUPAC>
6-carbamimidoyl-N-[3-(cyclopentyloxy)phenyl]naphthalene-2-carboxamide

> <JCHEM_VEBER_RULE>
0

> <DRUGBANK_ID>
DB07076

> <DRUG_GROUPS>
experimental

> <GENERIC_NAME>
6-[(Z)-AMINO(IMINO)METHYL]-N-[3-(CYCLOPENTYLOXY)PHENYL]-2-NAPHTHAMIDE

$$$$
