REMARK  Name = 16058630
REMARK  8 active torsions:
REMARK  status: ('A' for Active; 'I' for Inactive)
REMARK    1  A    between atoms: N_2  and  C_18
REMARK    2  A    between atoms: C_3  and  C_6
REMARK    3  A    between atoms: C_7  and  O_12
REMARK    4  A    between atoms: O_12  and  C_13
REMARK    5  A    between atoms: C_13  and  C_15
REMARK    6  A    between atoms: C_15  and  O_16
REMARK    7  A    between atoms: C_18  and  C_19
REMARK    8  A    between atoms: C_22  and  N_27
REMARK                            x       y       z     vdW  Elec       q    Type
REMARK                         _______ _______ _______ _____ _____    ______ ____
ROOT
ATOM      1  O   UNL     1       1.336  -2.861  -0.276  0.00  0.00    -0.270 OA
ATOM      2  N   UNL     1       0.460  -1.258   1.153  0.00  0.00    -0.297 N 
ATOM      3  C   UNL     1       1.444  -1.762   0.296  0.00  0.00    +0.249 C 
ATOM      4  H   UNL     1       0.611  -0.380   1.571  0.00  0.00    +0.150 HD
ENDROOT
BRANCH   3   6
ATOM      5 CL   UNL     1       6.371   1.514  -0.474  0.00  0.00    -0.082 Cl
ATOM      6  C   UNL     1       2.637  -0.948   0.111  0.00  0.00    +0.087 C 
ATOM      7  C   UNL     1       2.577   0.442   0.203  0.00  0.00    +0.145 C 
ATOM      8  C   UNL     1       3.852  -1.577  -0.162  0.00  0.00    +0.008 C 
ATOM      9  C   UNL     1       3.731   1.204   0.022  0.00  0.00    +0.048 C 
ATOM     10  C   UNL     1       5.006  -0.816  -0.343  0.00  0.00    +0.012 C 
ATOM     11  C   UNL     1       4.946   0.575  -0.251  0.00  0.00    +0.061 C 
BRANCH   7  12
ATOM     12  O   UNL     1       1.399   1.075   0.468  0.00  0.00    -0.464 OA
BRANCH  12  13
ATOM     13  C   UNL     1       0.926   1.999  -0.509  0.00  0.00    +0.314 C 
BRANCH  13  15
ATOM     14  O   UNL     1      -0.951   2.349   0.994  0.00  0.00    -0.246 OA
ATOM     15  C   UNL     1      -0.367   2.612  -0.047  0.00  0.00    +0.359 C 
BRANCH  15  16
ATOM     16  O   UNL     1      -0.809   3.516  -0.957  0.00  0.00    -0.478 OA
ATOM     17  H   UNL     1      -0.316   3.674  -1.738  0.00  0.00    +0.295 HD
ENDBRANCH  15  16
ENDBRANCH  13  15
ENDBRANCH  12  13
ENDBRANCH   7  12
ENDBRANCH   3   6
BRANCH   2  18
ATOM     18  C   UNL     1      -0.768  -1.958   1.456  0.00  0.00    +0.117 C 
BRANCH  18  19
ATOM     19  C   UNL     1      -1.868  -1.604   0.490  0.00  0.00    -0.001 C 
ATOM     20  C   UNL     1      -2.708  -0.536   0.771  0.00  0.00    +0.021 C 
ATOM     21  C   UNL     1      -2.027  -2.353  -0.667  0.00  0.00    -0.003 C 
ATOM     22  C   UNL     1      -3.728  -0.210  -0.123  0.00  0.00    +0.143 C 
ATOM     23  C   UNL     1      -3.046  -2.027  -1.562  0.00  0.00    +0.001 C 
ATOM     24  C   UNL     1      -3.897  -0.955  -1.290  0.00  0.00    +0.024 C 
BRANCH  22  27
ATOM     25  O   UNL     1      -5.502   1.159  -0.665  0.00  0.00    -0.126 OA
ATOM     26  O   UNL     1      -4.424   1.539   1.209  0.00  0.00    -0.126 OA
ATOM     27  N   UNL     1      -4.592   0.882   0.153  0.00  0.00    +0.058 N 
ENDBRANCH  22  27
ENDBRANCH  18  19
ENDBRANCH   2  18
TORSDOF 8
