REMARK  Name = 736186
REMARK  5 active torsions:
REMARK  status: ('A' for Active; 'I' for Inactive)
REMARK    1  A    between atoms: C_1  and  C_11
REMARK    2  A    between atoms: C_2  and  O_7
REMARK    3  A    between atoms: C_4  and  O_9
REMARK    4  A    between atoms: C_12  and  C_14
REMARK    5  A    between atoms: C_14  and  O_15
REMARK                            x       y       z     vdW  Elec       q    Type
REMARK                         _______ _______ _______ _____ _____    ______ ____
ROOT
ATOM      1  C   UNL     1       0.263   0.167   0.038  0.00  0.00    +0.003 C 
ATOM      2  C   UNL     1      -2.463  -0.366  -0.215  0.00  0.00    +0.172 C 
ATOM      3  C   UNL     1      -0.648   1.219  -0.049  0.00  0.00    +0.040 C 
ATOM      4  C   UNL     1      -2.011   0.953  -0.175  0.00  0.00    +0.168 C 
ATOM      5  C   UNL     1      -0.189  -1.152  -0.001  0.00  0.00    +0.003 C 
ATOM      6  C   UNL     1      -1.552  -1.419  -0.128  0.00  0.00    +0.040 C 
ENDROOT
BRANCH   2   7
ATOM      7  O   UNL     1      -3.792  -0.639  -0.340  0.00  0.00    -0.468 OA
ATOM      8  C   UNL     1      -4.544  -0.766   0.865  0.00  0.00    +0.253 C 
ENDBRANCH   2   7
BRANCH   4   9
ATOM      9  O   UNL     1      -2.892   1.989  -0.260  0.00  0.00    -0.503 OA
ATOM     10  H   UNL     1      -3.809   1.819  -0.345  0.00  0.00    +0.292 HD
ENDBRANCH   4   9
BRANCH   1  11
ATOM     11  C   UNL     1       1.685   0.444   0.171  0.00  0.00    +0.007 C 
ATOM     12  C   UNL     1       2.680  -0.425  -0.112  0.00  0.00    +0.082 C 
BRANCH  12  14
ATOM     13  O   UNL     1       4.488   1.065   0.451  0.00  0.00    -0.245 OA
ATOM     14  C   UNL     1       4.089  -0.017   0.056  0.00  0.00    +0.338 C 
BRANCH  14  15
ATOM     15  O   UNL     1       4.886  -1.051  -0.302  0.00  0.00    -0.477 OA
ATOM     16  H   UNL     1       4.506  -1.855  -0.597  0.00  0.00    +0.295 HD
ENDBRANCH  14  15
ENDBRANCH  12  14
ENDBRANCH   1  11
TORSDOF 5
