REMARK  Name = 622262
REMARK  0 active torsions:
REMARK  status: ('A' for Active; 'I' for Inactive)
REMARK                            x       y       z     vdW  Elec       q    Type
REMARK                         _______ _______ _______ _____ _____    ______ ____
ROOT
ATOM      1  S   UNL     1      -0.336   1.572   0.019  0.00  0.00    -0.054 S 
ATOM      2  O   UNL     1      -5.247  -0.267  -0.130  0.00  0.00    -0.350 OA
ATOM      3  O   UNL     1       2.561   2.737   0.167  0.00  0.00    -0.295 OA
ATOM      4  N   UNL     1      -2.444  -0.077  -0.072  0.00  0.00    -0.274 N 
ATOM      5  N   UNL     1      -0.265  -1.016   0.137  0.00  0.00    -0.388 NA
ATOM      6  C   UNL     1       3.513  -0.816  -0.120  0.00  0.00    +0.013 C 
ATOM      7  C   UNL     1       2.186  -1.485   0.343  0.00  0.00    +0.056 C 
ATOM      8  C   UNL     1       3.650   0.616   0.472  0.00  0.00    +0.066 C 
ATOM      9  C   UNL     1       1.032  -0.553   0.216  0.00  0.00    +0.106 C 
ATOM     10  C   UNL     1       4.695  -1.671   0.372  0.00  0.00    +0.001 C 
ATOM     11  C   UNL     1       3.575  -0.757  -1.661  0.00  0.00    +0.001 C 
ATOM     12  C   UNL     1       1.177   0.817   0.175  0.00  0.00    +0.160 C 
ATOM     13  C   UNL     1       2.435   1.517   0.236  0.00  0.00    +0.167 C 
ATOM     14  C   UNL     1      -1.073   0.017   0.030  0.00  0.00    +0.211 C 
ATOM     15  C   UNL     1      -3.101  -1.389  -0.067  0.00  0.00    +0.126 C 
ATOM     16  C   UNL     1      -3.245   1.002  -0.659  0.00  0.00    +0.126 C 
ATOM     17  C   UNL     1      -4.485  -1.261   0.557  0.00  0.00    +0.164 C 
ATOM     18  C   UNL     1      -4.628   1.015  -0.016  0.00  0.00    +0.164 C 
ENDROOT
TORSDOF 0
