REMARK  Name = 20843156
REMARK  7 active torsions:
REMARK  status: ('A' for Active; 'I' for Inactive)
REMARK    1  A    between atoms: N_3  and  C_34
REMARK    2  A    between atoms: C_5  and  C_28
REMARK    3  A    between atoms: C_9  and  C_16
REMARK    4  A    between atoms: C_17  and  C_24
REMARK    5  A    between atoms: C_34  and  C_35
REMARK    6  A    between atoms: C_35  and  C_36
REMARK    7  A    between atoms: C_36  and  O_37
REMARK                            x       y       z     vdW  Elec       q    Type
REMARK                         _______ _______ _______ _____ _____    ______ ____
ROOT
ATOM      1  O   UNL     1      -1.770   1.317   0.622  0.00  0.00    -0.464 OA
ATOM      2  O   UNL     1      -2.921  -1.350  -1.456  0.00  0.00    -0.270 OA
ATOM      3  N   UNL     1      -0.720  -0.710  -1.050  0.00  0.00    -0.253 N 
ATOM      4  C   UNL     1       0.141   0.162  -0.325  0.00  0.00    +0.088 C 
ATOM      5  C   UNL     1      -2.504   0.123   0.411  0.00  0.00    +0.264 C 
ATOM      6  C   UNL     1      -2.096  -0.701  -0.812  0.00  0.00    +0.274 C 
ATOM      7  C   UNL     1      -0.420   1.149   0.492  0.00  0.00    +0.153 C 
ATOM      8  C   UNL     1       1.538   0.102  -0.434  0.00  0.00    +0.015 C 
ATOM      9  C   UNL     1       2.347   1.007   0.259  0.00  0.00    -0.007 C 
ATOM     10  C   UNL     1       0.387   2.067   1.169  0.00  0.00    +0.038 C 
ATOM     11  C   UNL     1       1.772   1.990   1.059  0.00  0.00    -0.000 C 
ENDROOT
BRANCH   9  16
ATOM     12  N   UNL     1       5.890   0.054   0.925  0.00  0.00    -0.337 NA
ATOM     13  N   UNL     1       5.835   1.548  -0.965  0.00  0.00    -0.317 NA
ATOM     14  N   UNL     1       3.781   2.416  -1.753  0.00  0.00    -0.335 N 
ATOM     15  N   UNL     1       7.866   0.679  -0.174  0.00  0.00    -0.283 N 
ATOM     16  C   UNL     1       3.788   0.927   0.140  0.00  0.00    +0.138 C 
ATOM     17  C   UNL     1       4.546   0.159   1.000  0.00  0.00    +0.112 C 
ATOM     18  C   UNL     1       4.494   1.606  -0.833  0.00  0.00    +0.178 C 
ATOM     19  C   UNL     1       6.461   0.764  -0.066  0.00  0.00    +0.196 C 
ATOM     20  H   UNL     1       4.267   2.908  -2.454  0.00  0.00    +0.144 HD
ATOM     21  H   UNL     1       2.801   2.485  -1.691  0.00  0.00    +0.144 HD
ATOM     22  H   UNL     1       8.375   0.121   0.457  0.00  0.00    +0.156 HD
ATOM     23  H   UNL     1       8.337   1.177  -0.881  0.00  0.00    +0.156 HD
BRANCH  17  24
ATOM     24  C   UNL     1       3.906  -0.627   2.098  0.00  0.00    +0.056 C 
ATOM     25  C   UNL     1       3.525  -2.035   1.654  0.00  0.00    +0.008 C 
ENDBRANCH  17  24
ENDBRANCH   9  16
BRANCH   5  28
ATOM     26  F   UNL     1      -7.053   0.033   2.140  0.00  0.00    -0.204 F 
ATOM     27  F   UNL     1      -6.126   2.534  -1.774  0.00  0.00    -0.204 F 
ATOM     28  C   UNL     1      -3.940   0.531   0.331  0.00  0.00    +0.031 C 
ATOM     29  C   UNL     1      -4.370   1.358  -0.705  0.00  0.00    +0.029 C 
ATOM     30  C   UNL     1      -4.843   0.083   1.292  0.00  0.00    +0.029 C 
ATOM     31  C   UNL     1      -6.183   0.463   1.217  0.00  0.00    +0.142 C 
ATOM     32  C   UNL     1      -5.710   1.738  -0.780  0.00  0.00    +0.142 C 
ATOM     33  C   UNL     1      -6.616   1.291   0.181  0.00  0.00    +0.059 C 
ENDBRANCH   5  28
BRANCH   3  34
ATOM     34  C   UNL     1      -0.165  -1.598  -2.064  0.00  0.00    +0.101 C 
BRANCH  34  35
ATOM     35  C   UNL     1       0.445  -2.858  -1.466  0.00  0.00    +0.054 C 
BRANCH  35  36
ATOM     36  C   UNL     1      -0.569  -3.700  -0.701  0.00  0.00    +0.144 C 
BRANCH  36  37
ATOM     37  O   UNL     1       0.092  -4.840  -0.168  0.00  0.00    -0.351 OA
ATOM     38  C   UNL     1      -0.808  -5.682   0.540  0.00  0.00    +0.174 C 
ENDBRANCH  36  37
ENDBRANCH  35  36
ENDBRANCH  34  35
ENDBRANCH   3  34
TORSDOF 7
