REMARK  Name = 11287125
REMARK  0 active torsions:
REMARK  status: ('A' for Active; 'I' for Inactive)
REMARK                            x       y       z     vdW  Elec       q    Type
REMARK                         _______ _______ _______ _____ _____    ______ ____
ROOT
ATOM      1  O   UNL     1      -1.762  -2.565  -0.001  0.00  0.00    -0.209 OA
ATOM      2  N   UNL     1      -1.690   1.439   0.000  0.00  0.00    -0.275 N 
ATOM      3  N   UNL     1       3.249  -0.985   0.000  0.00  0.00    -0.315 N 
ATOM      4  N   UNL     1       3.255   1.237  -0.001  0.00  0.00    -0.315 N 
ATOM      5  N   UNL     1      -2.927  -0.594   0.000  0.00  0.00    -0.302 NA
ATOM      6  N   UNL     1      -3.982   1.498  -0.001  0.00  0.00    -0.320 N 
ATOM      7  C   UNL     1      -0.459   0.775   0.000  0.00  0.00    +0.064 C 
ATOM      8  C   UNL     1      -0.449  -0.628   0.000  0.00  0.00    +0.110 C 
ATOM      9  C   UNL     1       1.928  -0.615   0.000  0.00  0.00    +0.060 C 
ATOM     10  C   UNL     1       1.959   0.776   0.000  0.00  0.00    +0.060 C 
ATOM     11  C   UNL     1       0.748  -1.360   0.001  0.00  0.00    +0.029 C 
ATOM     12  C   UNL     1       0.748   1.491   0.000  0.00  0.00    +0.031 C 
ATOM     13  C   UNL     1      -1.761  -1.338   0.000  0.00  0.00    +0.208 C 
ATOM     14  C   UNL     1      -2.858   0.712   0.000  0.00  0.00    +0.248 C 
ATOM     15  C   UNL     1       4.002   0.156   0.000  0.00  0.00    +0.182 C 
ATOM     16  H   UNL     1      -1.721   2.423   0.001  0.00  0.00    +0.156 HD
ATOM     17  H   UNL     1       3.593  -1.907   0.000  0.00  0.00    +0.148 HD
ATOM     18  H   UNL     1       3.558   2.174  -0.001  0.00  0.00    +0.148 HD
ATOM     19  H   UNL     1      -3.897   2.479   0.000  0.00  0.00    +0.146 HD
ATOM     20  H   UNL     1      -4.874   1.081  -0.001  0.00  0.00    +0.146 HD
ENDROOT
TORSDOF 0
