REMARK  Name = 445455
REMARK  6 active torsions:
REMARK  status: ('A' for Active; 'I' for Inactive)
REMARK    1  A    between atoms: C_1  and  C_14
REMARK    2  A    between atoms: C_1  and  C_18
REMARK    3  A    between atoms: C_1  and  O_31
REMARK    4  A    between atoms: N_17  and  C_21
REMARK    5  A    between atoms: C_26  and  C_28
REMARK    6  A    between atoms: C_28  and  O_29
REMARK                            x       y       z     vdW  Elec       q    Type
REMARK                         _______ _______ _______ _____ _____    ______ ____
ROOT
ATOM      1  C   UNL     1      -0.455  -2.709   0.657  0.00  0.00    +0.210 C 
ENDROOT
BRANCH   1  14
ATOM      2  C   UNL     1      -3.289   0.589  -1.885  0.00  0.00    +0.019 C 
ATOM      3  C   UNL     1      -4.515   1.498   0.767  0.00  0.00    +0.019 C 
ATOM      4  C   UNL     1      -4.077   1.905  -1.702  0.00  0.00    +0.004 C 
ATOM      5  C   UNL     1      -5.135   1.788  -0.618  0.00  0.00    +0.004 C 
ATOM      6  C   UNL     1      -2.870  -0.012  -0.538  0.00  0.00    -0.027 C 
ATOM      7  C   UNL     1      -3.444   0.403   0.690  0.00  0.00    -0.027 C 
ATOM      8  C   UNL     1      -4.157  -0.442  -2.640  0.00  0.00    +0.004 C 
ATOM      9  C   UNL     1      -2.065   0.933  -2.768  0.00  0.00    +0.004 C 
ATOM     10  C   UNL     1      -3.869   2.783   1.333  0.00  0.00    +0.004 C 
ATOM     11  C   UNL     1      -5.687   1.095   1.694  0.00  0.00    +0.004 C 
ATOM     12  C   UNL     1      -1.906  -1.044  -0.515  0.00  0.00    -0.006 C 
ATOM     13  C   UNL     1      -2.981  -0.191   1.885  0.00  0.00    -0.005 C 
ATOM     14  C   UNL     1      -1.481  -1.627   0.677  0.00  0.00    +0.013 C 
ATOM     15  C   UNL     1      -2.013  -1.194   1.880  0.00  0.00    -0.002 C 
ENDBRANCH   1  14
BRANCH   1  18
ATOM     16  O   UNL     1       1.259  -2.785  -1.041  0.00  0.00    -0.272 OA
ATOM     17  N   UNL     1       1.454  -1.231   0.710  0.00  0.00    -0.280 N 
ATOM     18  C   UNL     1       0.853  -2.261  -0.008  0.00  0.00    +0.257 C 
ATOM     19  H   UNL     1       0.983  -0.934   1.521  0.00  0.00    +0.155 HD
BRANCH  17  21
ATOM     20  F   UNL     1       2.421   0.796   2.342  0.00  0.00    -0.203 F 
ATOM     21  C   UNL     1       2.665  -0.563   0.410  0.00  0.00    +0.078 C 
ATOM     22  C   UNL     1       3.112   0.444   1.249  0.00  0.00    +0.154 C 
ATOM     23  C   UNL     1       3.377  -0.930  -0.720  0.00  0.00    +0.017 C 
ATOM     24  C   UNL     1       4.305   1.103   0.949  0.00  0.00    +0.037 C 
ATOM     25  C   UNL     1       4.569  -0.272  -1.020  0.00  0.00    +0.008 C 
ATOM     26  C   UNL     1       5.033   0.745  -0.185  0.00  0.00    +0.078 C 
BRANCH  26  28
ATOM     27  O   UNL     1       7.001   1.194  -1.470  0.00  0.00    -0.245 OA
ATOM     28  C   UNL     1       6.277   1.430  -0.496  0.00  0.00    +0.338 C 
BRANCH  28  29
ATOM     29  O   UNL     1       6.584   2.393   0.416  0.00  0.00    -0.477 OA
ATOM     30  H   UNL     1       6.014   2.547   1.144  0.00  0.00    +0.295 HD
ENDBRANCH  28  29
ENDBRANCH  26  28
ENDBRANCH  17  21
ENDBRANCH   1  18
BRANCH   1  31
ATOM     31  O   UNL     1      -0.963  -3.837  -0.054  0.00  0.00    -0.372 OA
ATOM     32  H   UNL     1      -1.791  -4.131   0.356  0.00  0.00    +0.211 HD
ENDBRANCH   1  31
TORSDOF 6
