REMARK  Name = 5287495
REMARK  4 active torsions:
REMARK  status: ('A' for Active; 'I' for Inactive)
REMARK    1  A    between atoms: C_1  and  C_9
REMARK    2  A    between atoms: C_4  and  C_18
REMARK    3  A    between atoms: C_5  and  O_15
REMARK    4  A    between atoms: C_18  and  O_19
REMARK                            x       y       z     vdW  Elec       q    Type
REMARK                         _______ _______ _______ _____ _____    ______ ____
ROOT
ATOM      1  C   UNL     1       0.079   0.504  -0.126  0.00  0.00    +0.001 C 
ATOM      2  C   UNL     1       0.998  -0.545  -0.130  0.00  0.00    +0.010 C 
ATOM      3  C   UNL     1       0.528   1.825  -0.092  0.00  0.00    +0.003 C 
ATOM      4  C   UNL     1       2.366  -0.274  -0.101  0.00  0.00    +0.109 C 
ATOM      5  C   UNL     1       2.815   1.046  -0.068  0.00  0.00    +0.140 C 
ATOM      6  C   UNL     1       1.896   2.095  -0.064  0.00  0.00    +0.037 C 
ENDROOT
BRANCH   1   9
ATOM      7 CL   UNL     1      -1.362   0.176   2.581  0.00  0.00    -0.082 Cl
ATOM      8 CL   UNL     1      -5.764  -0.648  -0.392  0.00  0.00    -0.082 Cl
ATOM      9  C   UNL     1      -1.340   0.224  -0.155  0.00  0.00    +0.011 C 
ATOM     10  C   UNL     1      -2.086   0.058   1.014  0.00  0.00    +0.058 C 
ATOM     11  C   UNL     1      -1.969   0.119  -1.398  0.00  0.00    +0.002 C 
ATOM     12  C   UNL     1      -3.452  -0.211   0.941  0.00  0.00    +0.023 C 
ATOM     13  C   UNL     1      -3.336  -0.150  -1.471  0.00  0.00    +0.011 C 
ATOM     14  C   UNL     1      -4.077  -0.315  -0.301  0.00  0.00    +0.059 C 
ENDBRANCH   1   9
BRANCH   5  15
ATOM     15  O   UNL     1       4.147   1.331  -0.039  0.00  0.00    -0.505 OA
ATOM     16  H   UNL     1       4.776   0.636  -0.041  0.00  0.00    +0.292 HD
ENDBRANCH   5  15
BRANCH   4  18
ATOM     17  O   UNL     1       4.444  -1.355  -0.589  0.00  0.00    -0.245 OA
ATOM     18  C   UNL     1       3.309  -1.384  -0.105  0.00  0.00    +0.341 C 
BRANCH  18  19
ATOM     19  O   UNL     1       2.804  -2.496   0.495  0.00  0.00    -0.477 OA
ATOM     20  H   UNL     1       1.938  -2.484   0.851  0.00  0.00    +0.295 HD
ENDBRANCH  18  19
ENDBRANCH   4  18
TORSDOF 4
