REMARK  Name = 1289593
REMARK  3 active torsions:
REMARK  status: ('A' for Active; 'I' for Inactive)
REMARK    1  A    between atoms: N_3  and  C_12
REMARK    2  A    between atoms: C_12  and  C_13
REMARK    3  A    between atoms: C_13  and  C_18
REMARK                            x       y       z     vdW  Elec       q    Type
REMARK                         _______ _______ _______ _____ _____    ______ ____
ROOT
ATOM      1  O   UNL     1      -1.141  -2.684   0.624  0.00  0.00    -0.269 OA
ATOM      2  O   UNL     1       0.429   0.995  -1.714  0.00  0.00    -0.269 OA
ATOM      3  N   UNL     1       0.007  -1.056  -0.635  0.00  0.00    -0.222 N 
ATOM      4  C   UNL     1      -2.026  -0.525   0.211  0.00  0.00    +0.058 C 
ATOM      5  C   UNL     1      -1.555   0.577  -0.488  0.00  0.00    +0.058 C 
ATOM      6  C   UNL     1      -1.021  -1.584   0.117  0.00  0.00    +0.255 C 
ATOM      7  C   UNL     1      -0.244   0.237  -1.040  0.00  0.00    +0.255 C 
ATOM      8  C   UNL     1      -3.248  -0.516   0.850  0.00  0.00    +0.005 C 
ATOM      9  C   UNL     1      -2.283   1.744  -0.587  0.00  0.00    +0.005 C 
ATOM     10  C   UNL     1      -4.003   0.657   0.765  0.00  0.00    +0.000 C 
ATOM     11  C   UNL     1      -3.526   1.776   0.053  0.00  0.00    +0.000 C 
ENDROOT
BRANCH   3  12
ATOM     12  C   UNL     1       1.218  -1.782  -0.963  0.00  0.00    +0.117 C 
BRANCH  12  13
ATOM     13  C   UNL     1       2.290  -1.654   0.118  0.00  0.00    +0.124 C 
BRANCH  13  18
ATOM     14  N   UNL     1       3.737   0.287  -0.323  0.00  0.00    -0.114 NA
ATOM     15  N   UNL     1       2.130   0.554   1.250  0.00  0.00    -0.091 NA
ATOM     16  N   UNL     1       3.718   1.504   0.237  0.00  0.00    -0.140 N 
ATOM     17  N   UNL     1       2.782   1.708   1.175  0.00  0.00    -0.022 NA
ATOM     18  C   UNL     1       2.735  -0.238   0.349  0.00  0.00    +0.052 C 
ATOM     19  H   UNL     1       4.355   2.208  -0.024  0.00  0.00    +0.197 HD
ENDBRANCH  13  18
ENDBRANCH  12  13
ENDBRANCH   3  12
TORSDOF 3
