REMARK  Name = 6914621
REMARK  7 active torsions:
REMARK  status: ('A' for Active; 'I' for Inactive)
REMARK    1  A    between atoms: C_1  and  C_9
REMARK    2  A    between atoms: C_6  and  O_22
REMARK    3  A    between atoms: N_8  and  C_14
REMARK    4  A    between atoms: C_14  and  C_18
REMARK    5  A    between atoms: N_17  and  O_20
REMARK    6  A    between atoms: O_22  and  C_23
REMARK    7  A    between atoms: C_23  and  C_25
REMARK                            x       y       z     vdW  Elec       q    Type
REMARK                         _______ _______ _______ _____ _____    ______ ____
ROOT
ATOM      1  C   UNL     1      -2.054  -1.517  -0.361  0.00  0.00    -0.014 C 
ATOM      2  C   UNL     1      -1.052  -2.006  -1.193  0.00  0.00    -0.001 C 
ATOM      3  C   UNL     1      -1.736  -0.710   0.727  0.00  0.00    -0.001 C 
ATOM      4  C   UNL     1       0.281  -1.685  -0.934  0.00  0.00    +0.037 C 
ATOM      5  C   UNL     1      -0.404  -0.389   0.986  0.00  0.00    +0.037 C 
ATOM      6  C   UNL     1       0.605  -0.876   0.155  0.00  0.00    +0.139 C 
ENDROOT
BRANCH   1   9
ATOM      7  O   UNL     1      -4.743  -1.703   1.475  0.00  0.00    -0.275 OA
ATOM      8  N   UNL     1      -5.014  -0.094  -0.213  0.00  0.00    -0.273 N 
ATOM      9  C   UNL     1      -3.518  -1.871  -0.644  0.00  0.00    +0.089 C 
ATOM     10  C   UNL     1      -4.013  -1.228  -1.963  0.00  0.00    +0.034 C 
ATOM     11  C   UNL     1      -4.510   0.143  -1.543  0.00  0.00    +0.095 C 
ATOM     12  C   UNL     1      -4.501  -1.257   0.362  0.00  0.00    +0.229 C 
ATOM     13  C   UNL     1      -3.711  -3.394  -0.662  0.00  0.00    +0.014 C 
BRANCH   8  14
ATOM     14  C   UNL     1      -5.886   0.854   0.447  0.00  0.00    +0.154 C 
ATOM     15  C   UNL     1      -7.212   0.989  -0.286  0.00  0.00    +0.031 C 
BRANCH  14  18
ATOM     16  O   UNL     1      -4.825   2.821  -0.488  0.00  0.00    -0.271 OA
ATOM     17  N   UNL     1      -4.908   2.579   1.806  0.00  0.00    -0.196 N 
ATOM     18  C   UNL     1      -5.163   2.191   0.512  0.00  0.00    +0.262 C 
ATOM     19  H   UNL     1      -5.198   2.042   2.579  0.00  0.00    +0.182 HD
BRANCH  17  20
ATOM     20  O   UNL     1      -4.212   3.785   1.959  0.00  0.00    -0.295 OA
ATOM     21  H   UNL     1      -4.084   3.968   2.903  0.00  0.00    +0.241 HD
ENDBRANCH  17  20
ENDBRANCH  14  18
ENDBRANCH   8  14
ENDBRANCH   1   9
BRANCH   6  22
ATOM     22  O   UNL     1       1.905  -0.562   0.407  0.00  0.00    -0.471 OA
BRANCH  22  23
ATOM     23  C   UNL     1       2.886  -1.094  -0.482  0.00  0.00    +0.229 C 
BRANCH  23  25
ATOM     24  N   UNL     1       6.776   0.041   0.889  0.00  0.00    -0.410 NA
ATOM     25  C   UNL     1       4.248  -0.665  -0.023  0.00  0.00    +0.012 C 
ATOM     26  C   UNL     1       4.842   0.522  -0.467  0.00  0.00    +0.096 C 
ATOM     27  C   UNL     1       4.911  -1.492   0.869  0.00  0.00    +0.023 C 
ATOM     28  C   UNL     1       6.127   0.841   0.022  0.00  0.00    +0.116 C 
ATOM     29  C   UNL     1       6.164  -1.096   1.291  0.00  0.00    +0.109 C 
ATOM     30  C   UNL     1       4.193   1.380  -1.371  0.00  0.00    -0.015 C 
ATOM     31  C   UNL     1       6.720   2.021  -0.418  0.00  0.00    +0.028 C 
ATOM     32  C   UNL     1       4.810   2.554  -1.794  0.00  0.00    -0.004 C 
ATOM     33  C   UNL     1       6.919  -1.953   2.252  0.00  0.00    +0.066 C 
ATOM     34  C   UNL     1       6.075   2.874  -1.317  0.00  0.00    +0.002 C 
ENDBRANCH  23  25
ENDBRANCH  22  23
ENDBRANCH   6  22
TORSDOF 7
