REMARK  Name = 16221501
REMARK  7 active torsions:
REMARK  status: ('A' for Active; 'I' for Inactive)
REMARK    1  A    between atoms: C_1  and  C_4
REMARK    2  A    between atoms: C_1  and  N_16
REMARK    3  A    between atoms: N_3  and  C_6
REMARK    4  A    between atoms: C_7  and  C_13
REMARK    5  A    between atoms: C_13  and  O_14
REMARK    6  A    between atoms: N_16  and  C_20
REMARK    7  A    between atoms: C_21  and  C_27
REMARK                            x       y       z     vdW  Elec       q    Type
REMARK                         _______ _______ _______ _____ _____    ______ ____
ROOT
ATOM      1  C   UNL     1       0.156  -0.264  -0.032  0.00  0.00    +0.174 C 
ENDROOT
BRANCH   1   4
ATOM      2  O   UNL     1      -0.989   1.852  -0.017  0.00  0.00    -0.273 OA
ATOM      3  N   UNL     1      -2.248  -0.135  -0.018  0.00  0.00    -0.282 N 
ATOM      4  C   UNL     1      -1.071   0.628  -0.025  0.00  0.00    +0.246 C 
ATOM      5  H   UNL     1      -2.128  -1.112  -0.018  0.00  0.00    +0.155 HD
BRANCH   3   6
ATOM      6  C   UNL     1      -3.570   0.318  -0.011  0.00  0.00    +0.057 C 
ATOM      7  C   UNL     1      -4.638  -0.580  -0.005  0.00  0.00    +0.089 C 
ATOM      8  C   UNL     1      -3.814   1.692  -0.011  0.00  0.00    +0.015 C 
ATOM      9  C   UNL     1      -5.949  -0.104   0.000  0.00  0.00    +0.008 C 
ATOM     10  C   UNL     1      -5.125   2.167  -0.005  0.00  0.00    +0.001 C 
ATOM     11  C   UNL     1      -6.193   1.270   0.000  0.00  0.00    +0.000 C 
BRANCH   7  13
ATOM     12  O   UNL     1      -3.452  -2.594  -0.514  0.00  0.00    -0.245 OA
ATOM     13  C   UNL     1      -4.418  -2.021  -0.006  0.00  0.00    +0.339 C 
BRANCH  13  14
ATOM     14  O   UNL     1      -5.414  -2.696   0.628  0.00  0.00    -0.477 OA
ATOM     15  H   UNL     1      -6.134  -2.226   1.002  0.00  0.00    +0.295 HD
ENDBRANCH  13  14
ENDBRANCH   7  13
ENDBRANCH   3   6
ENDBRANCH   1   4
BRANCH   1  16
ATOM     16  N   UNL     1       1.349   0.543  -0.026  0.00  0.00    -0.325 N 
ATOM     17  H   UNL     1       1.247   1.522  -0.029  0.00  0.00    +0.147 HD
BRANCH  16  20
ATOM     18 CL   UNL     1       4.316  -3.628   0.002  0.00  0.00    -0.080 Cl
ATOM     19  F   UNL     1       6.467  -1.587   0.009  0.00  0.00    -0.203 F 
ATOM     20  C   UNL     1       2.635   0.021  -0.017  0.00  0.00    +0.049 C 
ATOM     21  C   UNL     1       3.772   0.851  -0.012  0.00  0.00    +0.050 C 
ATOM     22  C   UNL     1       2.828  -1.373  -0.013  0.00  0.00    +0.028 C 
ATOM     23  C   UNL     1       5.056   0.306  -0.003  0.00  0.00    +0.035 C 
ATOM     24  C   UNL     1       4.112  -1.918  -0.004  0.00  0.00    +0.086 C 
ATOM     25  C   UNL     1       5.226  -1.079   0.001  0.00  0.00    +0.151 C 
BRANCH  21  27
ATOM     26  O   UNL     1       2.652   2.854  -0.555  0.00  0.00    -0.291 OA
ATOM     27  C   UNL     1       3.629   2.301  -0.015  0.00  0.00    +0.175 C 
ATOM     28  C   UNL     1       4.684   3.176   0.648  0.00  0.00    +0.077 C 
ENDBRANCH  21  27
ENDBRANCH  16  20
ENDBRANCH   1  16
TORSDOF 7
