REMARK  Name = 11304895
REMARK  9 active torsions:
REMARK  status: ('A' for Active; 'I' for Inactive)
REMARK    1  A    between atoms: N_2  and  C_6
REMARK    2  A    between atoms: C_3  and  C_22
REMARK    3  A    between atoms: C_9  and  C_17
REMARK    4  A    between atoms: C_21  and  S_27
REMARK    5  A    between atoms: S_27  and  O_30
REMARK    6  A    between atoms: O_30  and  C_31
REMARK    7  A    between atoms: C_31  and  C_32
REMARK    8  A    between atoms: C_32  and  C_33
REMARK    9  A    between atoms: C_33  and  O_34
REMARK                            x       y       z     vdW  Elec       q    Type
REMARK                         _______ _______ _______ _____ _____    ______ ____
ROOT
ATOM      1  O   UNL     1      -0.803  -3.559  -0.120  0.00  0.00    -0.270 OA
ATOM      2  N   UNL     1      -1.223  -1.259   0.113  0.00  0.00    -0.280 N 
ATOM      3  C   UNL     1      -0.502  -2.384  -0.298  0.00  0.00    +0.250 C 
ATOM      4  H   UNL     1      -0.831  -0.386  -0.116  0.00  0.00    +0.155 HD
ENDROOT
BRANCH   2   6
ATOM      5  C   UNL     1      -3.355  -0.175   0.647  0.00  0.00    +0.014 C 
ATOM      6  C   UNL     1      -2.437  -1.225   0.811  0.00  0.00    +0.050 C 
ATOM      7  C   UNL     1      -4.566  -0.193   1.380  0.00  0.00    +0.001 C 
ATOM      8  C   UNL     1      -3.098   0.893  -0.228  0.00  0.00    +0.004 C 
ATOM      9  C   UNL     1      -4.022   1.928  -0.379  0.00  0.00    +0.031 C 
ATOM     10  C   UNL     1      -2.709  -2.278   1.685  0.00  0.00    +0.015 C 
ATOM     11  C   UNL     1      -5.484   0.857   1.216  0.00  0.00    +0.000 C 
ATOM     12  C   UNL     1      -4.823  -1.262   2.255  0.00  0.00    +0.000 C 
ATOM     13  C   UNL     1      -5.212   1.910   0.342  0.00  0.00    +0.003 C 
ATOM     14  C   UNL     1      -3.899  -2.296   2.405  0.00  0.00    +0.001 C 
BRANCH   9  17
ATOM     15  N   UNL     1      -4.645   4.075  -1.459  0.00  0.00    -0.343 N 
ATOM     16  N   UNL     1      -2.613   3.042  -1.975  0.00  0.00    -0.285 NA
ATOM     17  C   UNL     1      -3.742   3.028  -1.288  0.00  0.00    +0.117 C 
ATOM     18  H   UNL     1      -4.435   4.810  -2.080  0.00  0.00    +0.144 HD
ATOM     19  H   UNL     1      -5.493   4.081  -0.959  0.00  0.00    +0.144 HD
ATOM     20  H   UNL     1      -2.422   3.786  -2.591  0.00  0.00    +0.188 HD
ENDBRANCH   9  17
ENDBRANCH   2   6
BRANCH   3  22
ATOM     21  C   UNL     1       2.634  -0.645  -1.384  0.00  0.00    +0.110 C 
ATOM     22  C   UNL     1       0.776  -2.095  -1.000  0.00  0.00    +0.055 C 
ATOM     23  C   UNL     1       1.435  -0.915  -0.725  0.00  0.00    +0.023 C 
ATOM     24  C   UNL     1       3.146  -1.560  -2.303  0.00  0.00    +0.019 C 
ATOM     25  C   UNL     1       1.260  -3.017  -1.904  0.00  0.00    +0.005 C 
ATOM     26  C   UNL     1       2.459  -2.746  -2.563  0.00  0.00    +0.001 C 
BRANCH  21  27
ATOM     27  S   UNL     1       3.495   0.838  -1.057  0.00  0.00    +0.013 S 
ATOM     28  O   UNL     1       4.300   1.123  -2.236  0.00  0.00    -0.067 OA
ATOM     29  O   UNL     1       2.531   1.811  -0.563  0.00  0.00    -0.067 OA
BRANCH  27  30
ATOM     30  O   UNL     1       4.502   0.473   0.185  0.00  0.00    -0.238 OA
BRANCH  30  31
ATOM     31  C   UNL     1       5.361   1.476   0.706  0.00  0.00    +0.175 C 
BRANCH  31  32
ATOM     32  C   UNL     1       6.192   0.902   1.843  0.00  0.00    +0.066 C 
BRANCH  32  33
ATOM     33  C   UNL     1       7.147   1.931   2.426  0.00  0.00    +0.140 C 
BRANCH  33  34
ATOM     34  O   UNL     1       7.897   1.324   3.468  0.00  0.00    -0.382 OA
ATOM     35  H   UNL     1       8.510   1.973   3.847  0.00  0.00    +0.210 HD
ENDBRANCH  33  34
ENDBRANCH  32  33
ENDBRANCH  31  32
ENDBRANCH  30  31
ENDBRANCH  27  30
ENDBRANCH  21  27
ENDBRANCH   3  22
TORSDOF 9
