REMARK  Name = 11545694
REMARK  6 active torsions:
REMARK  status: ('A' for Active; 'I' for Inactive)
REMARK    1  A    between atoms: C_2  and  C_20
REMARK    2  A    between atoms: N_7  and  S_9
REMARK    3  A    between atoms: S_9  and  C_13
REMARK    4  A    between atoms: C_20  and  C_23
REMARK    5  A    between atoms: N_22  and  C_24
REMARK    6  A    between atoms: N_22  and  C_26
REMARK                            x       y       z     vdW  Elec       q    Type
REMARK                         _______ _______ _______ _____ _____    ______ ____
ROOT
ATOM      1  N   UNL     1       0.107   1.743  -0.080  0.00  0.00    -0.394 NA
ATOM      2  C   UNL     1       1.119   1.705   0.806  0.00  0.00    +0.119 C 
ATOM      3  C   UNL     1      -1.097   2.098   0.420  0.00  0.00    +0.179 C 
ATOM      4  C   UNL     1       1.012   1.995   2.148  0.00  0.00    +0.024 C 
ATOM      5  C   UNL     1      -1.323   2.411   1.751  0.00  0.00    +0.102 C 
ATOM      6  C   UNL     1      -0.243   2.356   2.625  0.00  0.00    -0.015 C 
ATOM      7  N   UNL     1      -2.178   2.138  -0.512  0.00  0.00    -0.192 N 
ATOM      8  H   UNL     1      -2.877   2.827  -0.439  0.00  0.00    +0.176 HD
ENDROOT
BRANCH   7   9
ATOM      9  S   UNL     1      -2.236   0.959  -1.767  0.00  0.00    +0.075 S 
ATOM     10  O   UNL     1      -3.554   0.977  -2.372  0.00  0.00    -0.150 OA
ATOM     11  O   UNL     1      -1.057   1.068  -2.606  0.00  0.00    -0.150 OA
BRANCH   9  13
ATOM     12 CL   UNL     1      -4.290  -2.768   1.671  0.00  0.00    -0.083 Cl
ATOM     13  C   UNL     1      -2.111  -0.552  -0.853  0.00  0.00    +0.122 C 
ATOM     14  C   UNL     1      -3.155  -0.983  -0.052  0.00  0.00    +0.008 C 
ATOM     15  C   UNL     1      -0.938  -1.282  -0.967  0.00  0.00    +0.020 C 
ATOM     16  C   UNL     1      -3.024  -2.178   0.655  0.00  0.00    +0.055 C 
ATOM     17  C   UNL     1      -4.412  -0.177   0.053  0.00  0.00    +0.033 C 
ATOM     18  C   UNL     1      -0.808  -2.477  -0.259  0.00  0.00    +0.002 C 
ATOM     19  C   UNL     1      -1.851  -2.925   0.552  0.00  0.00    +0.011 C 
ENDBRANCH   9  13
ENDBRANCH   7   9
BRANCH   2  20
ATOM     20  C   UNL     1       2.466   1.310   0.253  0.00  0.00    +0.144 C 
BRANCH  20  23
ATOM     21  O   UNL     1       1.881  -0.957   0.777  0.00  0.00    -0.274 OA
ATOM     22  N   UNL     1       3.943  -0.622  -0.228  0.00  0.00    -0.279 N 
ATOM     23  C   UNL     1       2.721  -0.189   0.298  0.00  0.00    +0.233 C 
BRANCH  22  24
ATOM     24  C   UNL     1       4.923   0.299  -0.790  0.00  0.00    +0.093 C 
ATOM     25  C   UNL     1       4.700   0.510  -2.273  0.00  0.00    +0.023 C 
ENDBRANCH  22  24
BRANCH  22  26
ATOM     26  C   UNL     1       4.330  -2.031  -0.255  0.00  0.00    +0.093 C 
ATOM     27  C   UNL     1       5.074  -2.426   1.005  0.00  0.00    +0.023 C 
ENDBRANCH  22  26
ENDBRANCH  20  23
ENDBRANCH   2  20
TORSDOF 6
