REMARK  Name = 22692237
REMARK  8 active torsions:
REMARK  status: ('A' for Active; 'I' for Inactive)
REMARK    1  A    between atoms: C_1  and  N_8
REMARK    2  A    between atoms: C_2  and  O_18
REMARK    3  A    between atoms: C_9  and  C_11
REMARK    4  A    between atoms: C_11  and  C_12
REMARK    5  A    between atoms: C_12  and  C_13
REMARK    6  A    between atoms: C_13  and  N_14
REMARK    7  A    between atoms: O_18  and  C_19
REMARK    8  A    between atoms: C_19  and  C_20
REMARK                            x       y       z     vdW  Elec       q    Type
REMARK                         _______ _______ _______ _____ _____    ______ ____
ROOT
ATOM      1  C   UNL     1       1.658  -0.866   0.006  0.00  0.00    +0.050 C 
ATOM      2  C   UNL     1      -1.107  -0.710  -0.008  0.00  0.00    +0.139 C 
ATOM      3  C   UNL     1       1.050   0.378  -0.028  0.00  0.00    +0.018 C 
ATOM      4  C   UNL     1       0.913  -2.034   0.033  0.00  0.00    +0.018 C 
ATOM      5  C   UNL     1      -0.343   0.456  -0.035  0.00  0.00    +0.038 C 
ATOM      6  C   UNL     1      -0.479  -1.955   0.026  0.00  0.00    +0.038 C 
ENDROOT
BRANCH   1   8
ATOM      7  O   UNL     1       3.728   1.309  -0.043  0.00  0.00    -0.275 OA
ATOM      8  N   UNL     1       3.071  -0.945   0.012  0.00  0.00    -0.284 N 
ATOM      9  C   UNL     1       3.980   0.109  -0.012  0.00  0.00    +0.226 C 
ATOM     10  H   UNL     1       3.456  -1.851   0.035  0.00  0.00    +0.155 HD
BRANCH   9  11
ATOM     11  C   UNL     1       5.408  -0.417   0.005  0.00  0.00    +0.083 C 
BRANCH  11  12
ATOM     12  C   UNL     1       6.448   0.702  -0.020  0.00  0.00    -0.014 C 
BRANCH  12  13
ATOM     13  C   UNL     1       7.867   0.139   0.038  0.00  0.00    -0.086 C 
BRANCH  13  14
ATOM     14  N   UNL     1       8.842   1.222   0.021  0.00  0.00    +0.380 N 
ATOM     15  H   UNL     1       9.784   0.833   0.061  0.00  0.00    -0.089 HD
ATOM     16  H   UNL     1       8.691   1.829   0.828  0.00  0.00    -0.089 HD
ATOM     17  H   UNL     1       8.734   1.764  -0.836  0.00  0.00    -0.089 HD
ENDBRANCH  13  14
ENDBRANCH  12  13
ENDBRANCH  11  12
ENDBRANCH   9  11
ENDBRANCH   1   8
BRANCH   2  18
ATOM     18  O   UNL     1      -2.466  -0.634  -0.013  0.00  0.00    -0.471 OA
BRANCH  18  19
ATOM     19  C   UNL     1      -3.044   0.670  -0.048  0.00  0.00    +0.232 C 
BRANCH  19  20
ATOM     20  C   UNL     1      -4.539   0.545  -0.017  0.00  0.00    +0.021 C 
ATOM     21  C   UNL     1      -5.246   0.446  -1.210  0.00  0.00    -0.001 C 
ATOM     22  C   UNL     1      -5.203   0.530   1.204  0.00  0.00    -0.001 C 
ATOM     23  C   UNL     1      -6.636   0.330  -1.181  0.00  0.00    -0.000 C 
ATOM     24  C   UNL     1      -6.593   0.413   1.232  0.00  0.00    -0.000 C 
ATOM     25  C   UNL     1      -7.309   0.313   0.040  0.00  0.00    -0.000 C 
ENDBRANCH  19  20
ENDBRANCH  18  19
ENDBRANCH   2  18
TORSDOF 8
