REMARK  Name = 25023706
REMARK  5 active torsions:
REMARK  status: ('A' for Active; 'I' for Inactive)
REMARK    1  A    between atoms: N_3  and  C_25
REMARK    2  A    between atoms: C_5  and  C_18
REMARK    3  A    between atoms: C_10  and  C_15
REMARK    4  A    between atoms: C_25  and  C_26
REMARK    5  A    between atoms: C_26  and  C_29
REMARK                            x       y       z     vdW  Elec       q    Type
REMARK                         _______ _______ _______ _____ _____    ______ ____
ROOT
ATOM      1  N   UNL     1      -1.703   1.470  -0.426  0.00  0.00    -0.331 NA
ATOM      2  N   UNL     1      -2.812  -0.523   0.347  0.00  0.00    -0.283 NA
ATOM      3  N   UNL     1       0.556   1.389  -1.077  0.00  0.00    -0.310 N 
ATOM      4  N   UNL     1      -1.704  -2.553   0.472  0.00  0.00    -0.327 NA
ATOM      5  C   UNL     1      -2.761   0.789   0.038  0.00  0.00    +0.124 C 
ATOM      6  C   UNL     1      -0.597   0.725  -0.588  0.00  0.00    +0.189 C 
ATOM      7  C   UNL     1      -0.533  -0.637  -0.302  0.00  0.00    +0.199 C 
ATOM      8  C   UNL     1      -1.698  -1.246   0.178  0.00  0.00    +0.138 C 
ATOM      9  C   UNL     1       0.631  -1.399  -0.476  0.00  0.00    +0.007 C 
ATOM     10  C   UNL     1       0.616  -2.749  -0.171  0.00  0.00    +0.095 C 
ATOM     11  C   UNL     1      -0.570  -3.273   0.297  0.00  0.00    +0.193 C 
ATOM     12  H   UNL     1       1.273   0.851  -1.484  0.00  0.00    +0.149 HD
ATOM     13  N   UNL     1      -0.614  -4.654   0.618  0.00  0.00    -0.332 N 
ATOM     14  H   UNL     1      -1.447  -5.055   0.954  0.00  0.00    +0.145 HD
ATOM     15  H   UNL     1       0.190  -5.211   0.505  0.00  0.00    +0.145 HD
ENDROOT
BRANCH  10  18
ATOM     16  O   UNL     1       2.071  -4.107  -1.429  0.00  0.00    -0.270 OA
ATOM     17  N   UNL     1       2.698  -3.640   0.727  0.00  0.00    -0.325 N 
ATOM     18  C   UNL     1       1.822  -3.545  -0.349  0.00  0.00    +0.246 C 
ATOM     19  H   UNL     1       3.524  -4.169   0.644  0.00  0.00    +0.145 HD
ATOM     20  H   UNL     1       2.492  -3.178   1.572  0.00  0.00    +0.145 HD
ENDBRANCH  10  18
BRANCH   5  21
ATOM     21  C   UNL     1      -4.018   1.566   0.237  0.00  0.00    +0.096 C 
ATOM     22  C   UNL     1      -5.180   0.995  -0.633  0.00  0.00    +0.017 C 
ATOM     23  C   UNL     1      -3.933   3.086  -0.129  0.00  0.00    +0.017 C 
ATOM     24  C   UNL     1      -4.481   1.523   1.726  0.00  0.00    +0.017 C 
ENDBRANCH   5  21
BRANCH   3  25
ATOM     25  C   UNL     1       0.719   2.804  -1.003  0.00  0.00    +0.095 C 
BRANCH  25  26
ATOM     26  C   UNL     1       2.182   3.197  -1.205  0.00  0.00    +0.063 C 
BRANCH  26  29
ATOM     27  N   UNL     1       4.179   1.854  -0.442  0.00  0.00    -0.319 N 
ATOM     28  N   UNL     1       4.152   2.039   1.771  0.00  0.00    -0.315 N 
ATOM     29  C   UNL     1       3.098   2.634  -0.146  0.00  0.00    +0.039 C 
ATOM     30  C   UNL     1       3.101   2.734   1.226  0.00  0.00    +0.069 C 
ATOM     31  C   UNL     1       4.781   1.521   0.740  0.00  0.00    +0.182 C 
ATOM     32  H   UNL     1       4.472   1.581  -1.342  0.00  0.00    +0.148 HD
ATOM     33  H   UNL     1       4.383   1.949   2.723  0.00  0.00    +0.148 HD
ENDBRANCH  26  29
ENDBRANCH  25  26
ENDBRANCH   3  25
TORSDOF 5
