REMARK  Name = 676157
REMARK  5 active torsions:
REMARK  status: ('A' for Active; 'I' for Inactive)
REMARK    1  A    between atoms: C_2  and  C_11
REMARK    2  A    between atoms: C_11  and  C_12
REMARK    3  A    between atoms: C_12  and  O_13
REMARK    4  A    between atoms: C_12  and  C_16
REMARK    5  A    between atoms: C_16  and  O_17
REMARK                            x       y       z     vdW  Elec       q    Type
REMARK                         _______ _______ _______ _____ _____    ______ ____
ROOT
ATOM      1  N   UNL     1       1.863  -2.013  -0.044  0.00  0.00    -0.312 N 
ATOM      2  C   UNL     1       0.089  -0.754  -0.483  0.00  0.00    -0.003 C 
ATOM      3  C   UNL     1       1.192   0.107  -0.221  0.00  0.00    +0.011 C 
ATOM      4  C   UNL     1       2.292  -0.708   0.051  0.00  0.00    +0.048 C 
ATOM      5  C   UNL     1       0.533  -2.051  -0.366  0.00  0.00    +0.058 C 
ATOM      6  C   UNL     1       1.359   1.506  -0.190  0.00  0.00    +0.001 C 
ATOM      7  C   UNL     1       3.558  -0.193   0.354  0.00  0.00    +0.015 C 
ATOM      8  C   UNL     1       2.619   2.035   0.111  0.00  0.00    +0.000 C 
ATOM      9  C   UNL     1       3.700   1.198   0.379  0.00  0.00    +0.001 C 
ATOM     10  H   UNL     1       2.431  -2.805   0.099  0.00  0.00    +0.152 HD
ENDROOT
BRANCH   2  11
ATOM     11  C   UNL     1      -1.289  -0.340  -0.819  0.00  0.00    +0.068 C 
BRANCH  11  12
ATOM     12  C   UNL     1      -2.193  -0.159   0.417  0.00  0.00    +0.214 C 
BRANCH  12  13
ATOM     13  O   UNL     1      -2.626  -1.441   0.853  0.00  0.00    -0.374 OA
ATOM     14  H   UNL     1      -1.853  -1.988   1.066  0.00  0.00    +0.211 HD
ENDBRANCH  12  13
BRANCH  12  16
ATOM     15  O   UNL     1      -4.580   0.249   0.150  0.00  0.00    -0.248 OA
ATOM     16  C   UNL     1      -3.428   0.654   0.098  0.00  0.00    +0.341 C 
BRANCH  16  17
ATOM     17  O   UNL     1      -3.091   1.911  -0.290  0.00  0.00    -0.479 OA
ATOM     18  H   UNL     1      -2.190   2.168  -0.311  0.00  0.00    +0.295 HD
ENDBRANCH  16  17
ENDBRANCH  12  16
ENDBRANCH  11  12
ENDBRANCH   2  11
TORSDOF 5
