REMARK  Name = 6914613
REMARK  8 active torsions:
REMARK  status: ('A' for Active; 'I' for Inactive)
REMARK    1  A    between atoms: C_1  and  N_2
REMARK    2  A    between atoms: C_1  and  C_6
REMARK    3  A    between atoms: C_1  and  C_17
REMARK    4  A    between atoms: C_6  and  C_8
REMARK    5  A    between atoms: C_17  and  O_18
REMARK    6  A    between atoms: O_18  and  C_20
REMARK    7  A    between atoms: C_23  and  C_25
REMARK    8  A    between atoms: C_26  and  C_28
REMARK                            x       y       z     vdW  Elec       q    Type
REMARK                         _______ _______ _______ _____ _____    ______ ____
ROOT
ATOM      1  C   UNL     1       4.735   0.336  -0.033  0.00  0.00    -0.017 C 
ENDROOT
BRANCH   1   2
ATOM      2  N   UNL     1       6.013   0.702   0.588  0.00  0.00    +0.384 N 
ATOM      3  H   UNL     1       6.602  -0.127   0.667  0.00  0.00    -0.089 HD
ATOM      4  H   UNL     1       5.842   1.087   1.517  0.00  0.00    -0.089 HD
ATOM      5  H   UNL     1       6.483   1.400   0.012  0.00  0.00    -0.089 HD
ENDBRANCH   1   2
BRANCH   1   6
ATOM      6  C   UNL     1       4.074  -0.807   0.782  0.00  0.00    +0.009 C 
BRANCH   6   8
ATOM      7  N   UNL     1       2.135  -2.785  -1.597  0.00  0.00    -0.312 N 
ATOM      8  C   UNL     1       3.093  -1.610   0.025  0.00  0.00    -0.008 C 
ATOM      9  C   UNL     1       1.806  -2.021   0.474  0.00  0.00    +0.011 C 
ATOM     10  C   UNL     1       1.226  -2.757  -0.562  0.00  0.00    +0.048 C 
ATOM     11  C   UNL     1       3.266  -2.095  -1.251  0.00  0.00    +0.058 C 
ATOM     12  C   UNL     1       1.077  -1.837   1.665  0.00  0.00    +0.001 C 
ATOM     13  C   UNL     1      -0.051  -3.320  -0.466  0.00  0.00    +0.015 C 
ATOM     14  C   UNL     1      -0.202  -2.395   1.776  0.00  0.00    +0.000 C 
ATOM     15  C   UNL     1      -0.755  -3.124   0.726  0.00  0.00    +0.001 C 
ATOM     16  H   UNL     1       1.992  -3.237  -2.460  0.00  0.00    +0.152 HD
ENDBRANCH   6   8
ENDBRANCH   1   6
BRANCH   1  17
ATOM     17  C   UNL     1       3.865   1.595  -0.142  0.00  0.00    +0.184 C 
BRANCH  17  18
ATOM     18  O   UNL     1       2.622   1.325  -0.777  0.00  0.00    -0.476 OA
BRANCH  18  20
ATOM     19  N   UNL     1       0.770   4.264   0.326  0.00  0.00    -0.239 NA
ATOM     20  C   UNL     1       1.563   2.122  -0.427  0.00  0.00    +0.158 C 
ATOM     21  C   UNL     1       0.272   1.628  -0.460  0.00  0.00    +0.040 C 
ATOM     22  C   UNL     1       1.769   3.426  -0.034  0.00  0.00    +0.136 C 
ATOM     23  C   UNL     1      -0.782   2.460  -0.097  0.00  0.00    +0.022 C 
ATOM     24  C   UNL     1      -0.482   3.757   0.285  0.00  0.00    +0.099 C 
BRANCH  23  25
ATOM     25  C   UNL     1      -2.153   1.983  -0.117  0.00  0.00    +0.002 C 
ATOM     26  C   UNL     1      -2.530   0.681  -0.095  0.00  0.00    +0.000 C 
BRANCH  26  28
ATOM     27  N   UNL     1      -6.544  -0.714  -0.101  0.00  0.00    -0.242 NA
ATOM     28  C   UNL     1      -3.922   0.197  -0.096  0.00  0.00    +0.003 C 
ATOM     29  C   UNL     1      -4.937   1.049   0.291  0.00  0.00    +0.021 C 
ATOM     30  C   UNL     1      -4.189  -1.101  -0.485  0.00  0.00    +0.021 C 
ATOM     31  C   UNL     1      -6.228   0.547   0.271  0.00  0.00    +0.099 C 
ATOM     32  C   UNL     1      -5.513  -1.507  -0.470  0.00  0.00    +0.099 C 
ENDBRANCH  26  28
ENDBRANCH  23  25
ENDBRANCH  18  20
ENDBRANCH  17  18
ENDBRANCH   1  17
TORSDOF 8
