REMARK  Name = 46937052
REMARK  7 active torsions:
REMARK  status: ('A' for Active; 'I' for Inactive)
REMARK    1  A    between atoms: O_1  and  C_3
REMARK    2  A    between atoms: O_1  and  C_17
REMARK    3  A    between atoms: C_4  and  C_11
REMARK    4  A    between atoms: C_17  and  C_18
REMARK    5  A    between atoms: C_18  and  N_19
REMARK    6  A    between atoms: C_18  and  C_23
REMARK    7  A    between atoms: C_23  and  C_25
REMARK                            x       y       z     vdW  Elec       q    Type
REMARK                         _______ _______ _______ _____ _____    ______ ____
ROOT
ATOM      1  O   UNL     1      -2.491  -1.636  -0.983  0.00  0.00    -0.476 OA
ENDROOT
BRANCH   1   3
ATOM      2  N   UNL     1      -0.138  -3.218   1.329  0.00  0.00    -0.239 NA
ATOM      3  C   UNL     1      -1.326  -1.895  -0.309  0.00  0.00    +0.158 C 
ATOM      4  C   UNL     1       0.989  -1.432   0.152  0.00  0.00    +0.039 C 
ATOM      5  C   UNL     1      -0.179  -1.146  -0.546  0.00  0.00    +0.042 C 
ATOM      6  C   UNL     1      -1.254  -2.911   0.630  0.00  0.00    +0.136 C 
ATOM      7  C   UNL     1       0.957  -2.469   1.071  0.00  0.00    +0.101 C 
BRANCH   4  11
ATOM      8  N   UNL     1       2.121   0.580  -0.448  0.00  0.00    -0.264 NA
ATOM      9  N   UNL     1       5.774   1.188  -0.614  0.00  0.00    -0.150 NA
ATOM     10  N   UNL     1       6.715   0.113  -0.301  0.00  0.00    -0.147 NA
ATOM     11  C   UNL     1       2.233  -0.649  -0.078  0.00  0.00    +0.078 C 
ATOM     12  C   UNL     1       4.606  -0.678  -0.071  0.00  0.00    +0.040 C 
ATOM     13  C   UNL     1       4.568   0.706  -0.475  0.00  0.00    +0.107 C 
ATOM     14  C   UNL     1       3.290   1.427  -0.695  0.00  0.00    +0.173 C 
ATOM     15  C   UNL     1       3.509  -1.389   0.132  0.00  0.00    +0.022 C 
ATOM     16  C   UNL     1       6.023  -0.947   0.004  0.00  0.00    +0.123 C 
ENDBRANCH   4  11
ENDBRANCH   1   3
BRANCH   1  17
ATOM     17  C   UNL     1      -3.704  -1.923  -0.300  0.00  0.00    +0.184 C 
BRANCH  17  18
ATOM     18  C   UNL     1      -4.801  -0.936  -0.718  0.00  0.00    -0.017 C 
BRANCH  18  19
ATOM     19  N   UNL     1      -6.101  -1.530  -0.395  0.00  0.00    +0.384 N 
ATOM     20  H   UNL     1      -6.845  -0.887  -0.666  0.00  0.00    -0.089 HD
ATOM     21  H   UNL     1      -6.154  -1.708   0.608  0.00  0.00    -0.089 HD
ATOM     22  H   UNL     1      -6.209  -2.408  -0.903  0.00  0.00    -0.089 HD
ENDBRANCH  18  19
BRANCH  18  23
ATOM     23  C   UNL     1      -4.683   0.438  -0.013  0.00  0.00    +0.010 C 
BRANCH  23  25
ATOM     24  N   UNL     1      -1.841   2.196  -1.688  0.00  0.00    -0.244 NA
ATOM     25  C   UNL     1      -3.432   1.167  -0.289  0.00  0.00    -0.004 C 
ATOM     26  C   UNL     1      -2.442   1.650   0.471  0.00  0.00    +0.011 C 
ATOM     27  C   UNL     1      -1.456   2.286  -0.378  0.00  0.00    +0.080 C 
ATOM     28  C   UNL     1      -2.970   1.556  -1.631  0.00  0.00    +0.094 C 
ATOM     29  C   UNL     1      -2.291   1.598   1.903  0.00  0.00    -0.020 C 
ATOM     30  C   UNL     1      -0.361   2.851   0.145  0.00  0.00    +0.015 C 
ATOM     31  C   UNL     1      -0.115   2.845   1.641  0.00  0.00    -0.020 C 
ATOM     32  C   UNL     1      -1.199   2.159   2.453  0.00  0.00    +0.052 C 
ENDBRANCH  23  25
ENDBRANCH  18  23
ENDBRANCH  17  18
ENDBRANCH   1  17
TORSDOF 7
