REMARK  Name = 9884318
REMARK  6 active torsions:
REMARK  status: ('A' for Active; 'I' for Inactive)
REMARK    1  A    between atoms: C_1  and  N_7
REMARK    2  A    between atoms: C_2  and  N_15
REMARK    3  A    between atoms: C_6  and  C_25
REMARK    4  A    between atoms: C_16  and  C_19
REMARK    5  A    between atoms: C_22  and  C_24
REMARK    6  A    between atoms: C_25  and  O_26
REMARK                            x       y       z     vdW  Elec       q    Type
REMARK                         _______ _______ _______ _____ _____    ______ ____
ROOT
ATOM      1  C   UNL     1      -1.733   1.134  -0.083  0.00  0.00    +0.061 C 
ATOM      2  C   UNL     1      -1.582  -0.267  -0.128  0.00  0.00    +0.064 C 
ATOM      3  C   UNL     1      -3.041   1.659  -0.090  0.00  0.00    +0.016 C 
ATOM      4  C   UNL     1      -2.694  -1.108  -0.177  0.00  0.00    +0.014 C 
ATOM      5  C   UNL     1      -4.152   0.818  -0.139  0.00  0.00    -0.001 C 
ATOM      6  C   UNL     1      -3.979  -0.565  -0.183  0.00  0.00    +0.008 C 
ENDROOT
BRANCH   1   7
ATOM      7  N   UNL     1      -0.631   1.997  -0.034  0.00  0.00    -0.307 N 
ATOM      8  C   UNL     1       1.571   3.866   0.160  0.00  0.00    +0.003 C 
ATOM      9  C   UNL     1       1.033   3.393  -1.193  0.00  0.00    +0.021 C 
ATOM     10  C   UNL     1       1.350   2.771   1.209  0.00  0.00    +0.021 C 
ATOM     11  C   UNL     1      -0.437   2.981  -1.103  0.00  0.00    +0.091 C 
ATOM     12  C   UNL     1      -0.121   2.367   1.293  0.00  0.00    +0.091 C 
ATOM     13  C   UNL     1       3.049   4.233   0.060  0.00  0.00    +0.000 C 
ENDBRANCH   1   7
BRANCH   2  15
ATOM     14  O   UNL     1      -0.766  -3.115  -0.210  0.00  0.00    -0.266 OA
ATOM     15  N   UNL     1      -0.304  -0.833  -0.123  0.00  0.00    -0.277 N 
ATOM     16  C   UNL     1       0.048  -2.196  -0.163  0.00  0.00    +0.284 C 
ATOM     17  H   UNL     1       0.446  -0.197  -0.088  0.00  0.00    +0.155 HD
BRANCH  16  19
ATOM     18  O   UNL     1       2.289  -1.397  -0.019  0.00  0.00    -0.439 OA
ATOM     19  C   UNL     1       1.495  -2.467  -0.103  0.00  0.00    +0.200 C 
ATOM     20  C   UNL     1       2.153  -3.638  -0.119  0.00  0.00    +0.046 C 
ATOM     21  C   UNL     1       3.519  -3.278  -0.037  0.00  0.00    +0.052 C 
ATOM     22  C   UNL     1       3.549  -1.904   0.022  0.00  0.00    +0.213 C 
BRANCH  22  24
ATOM     23  N   UNL     1       5.506  -0.214   0.191  0.00  0.00    -0.188 NA
ATOM     24  C   UNL     1       4.616  -0.982   0.114  0.00  0.00    +0.138 C 
ENDBRANCH  22  24
ENDBRANCH  16  19
ENDBRANCH   2  15
BRANCH   6  25
ATOM     25  C   UNL     1      -5.168  -1.464  -0.235  0.00  0.00    +0.164 C 
BRANCH  25  26
ATOM     26  O   UNL     1      -5.570  -1.794   1.089  0.00  0.00    -0.377 OA
ATOM     27  H   UNL     1      -6.344  -2.378   1.055  0.00  0.00    +0.211 HD
ENDBRANCH  25  26
ENDBRANCH   6  25
TORSDOF 6
