REMARK  Name = 180621
REMARK  4 active torsions:
REMARK  status: ('A' for Active; 'I' for Inactive)
REMARK    1  A    between atoms: O_1  and  C_2
REMARK    2  A    between atoms: O_1  and  C_10
REMARK    3  A    between atoms: C_10  and  C_11
REMARK    4  A    between atoms: C_11  and  N_13
REMARK                            x       y       z     vdW  Elec       q    Type
REMARK                         _______ _______ _______ _____ _____    ______ ____
ROOT
ATOM      1  O   UNL     1      -0.722  -0.131   0.586  0.00  0.00    -0.478 OA
ENDROOT
BRANCH   1   2
ATOM      2  C   UNL     1       0.605  -0.031   0.261  0.00  0.00    +0.130 C 
ATOM      3  C   UNL     1       1.384  -1.182   0.177  0.00  0.00    +0.012 C 
ATOM      4  C   UNL     1       1.166   1.218   0.015  0.00  0.00    +0.012 C 
ATOM      5  C   UNL     1       2.735  -1.082  -0.154  0.00  0.00    -0.001 C 
ATOM      6  C   UNL     1       2.517   1.319  -0.316  0.00  0.00    -0.001 C 
ATOM      7  C   UNL     1       3.302   0.168  -0.401  0.00  0.00    -0.000 C 
ATOM      8  C   UNL     1       0.796  -2.530   0.439  0.00  0.00    +0.034 C 
ATOM      9  C   UNL     1       0.343   2.462   0.100  0.00  0.00    +0.034 C 
ENDBRANCH   1   2
BRANCH   1  10
ATOM     10  C   UNL     1      -1.636  -0.287  -0.492  0.00  0.00    +0.184 C 
BRANCH  10  11
ATOM     11  C   UNL     1      -3.066  -0.332   0.047  0.00  0.00    -0.021 C 
ATOM     12  C   UNL     1      -3.429   0.947   0.802  0.00  0.00    -0.020 C 
BRANCH  11  13
ATOM     13  N   UNL     1      -3.994  -0.539  -1.064  0.00  0.00    +0.384 N 
ATOM     14  H   UNL     1      -3.744  -1.393  -1.561  0.00  0.00    -0.089 HD
ATOM     15  H   UNL     1      -3.941   0.254  -1.703  0.00  0.00    -0.089 HD
ATOM     16  H   UNL     1      -4.944  -0.621  -0.703  0.00  0.00    -0.089 HD
ENDBRANCH  11  13
ENDBRANCH  10  11
ENDBRANCH   1  10
TORSDOF 4
