REMARK  Name = 6914661
REMARK  8 active torsions:
REMARK  status: ('A' for Active; 'I' for Inactive)
REMARK    1  A    between atoms: C_1  and  C_5
REMARK    2  A    between atoms: C_1  and  C_11
REMARK    3  A    between atoms: C_1  and  C_14
REMARK    4  A    between atoms: C_1  and  C_27
REMARK    5  A    between atoms: C_14  and  C_15
REMARK    6  A    between atoms: C_20  and  N_21
REMARK    7  A    between atoms: N_21  and  S_23
REMARK    8  A    between atoms: C_27  and  C_28
REMARK                            x       y       z     vdW  Elec       q    Type
REMARK                         _______ _______ _______ _____ _____    ______ ____
ROOT
ATOM      1  C   UNL     1       1.174   0.861  -0.295  0.00  0.00    +0.182 C 
ENDROOT
BRANCH   1   5
ATOM      2  O   UNL     1       4.230   2.657  -0.621  0.00  0.00    -0.316 OA
ATOM      3  N   UNL     1       3.615   0.616   0.067  0.00  0.00    -0.316 NA
ATOM      4  N   UNL     1       2.837   2.604  -0.756  0.00  0.00    -0.011 NA
ATOM      5  C   UNL     1       2.643   1.405  -0.332  0.00  0.00    +0.116 C 
ATOM      6  C   UNL     1       4.607   1.447  -0.131  0.00  0.00    +0.294 C 
ATOM      7  C   UNL     1       6.045   1.253   0.101  0.00  0.00    +0.114 C 
ENDBRANCH   1   5
BRANCH   1  11
ATOM      8  O   UNL     1       0.945   0.545   3.243  0.00  0.00    -0.316 OA
ATOM      9  N   UNL     1       0.040  -0.469   1.463  0.00  0.00    -0.316 NA
ATOM     10  N   UNL     1       1.483   1.181   2.117  0.00  0.00    -0.011 NA
ATOM     11  C   UNL     1       0.882   0.504   1.202  0.00  0.00    +0.116 C 
ATOM     12  C   UNL     1       0.106  -0.413   2.769  0.00  0.00    +0.294 C 
ATOM     13  C   UNL     1      -0.591  -1.229   3.773  0.00  0.00    +0.114 C 
ENDBRANCH   1  11
BRANCH   1  14
ATOM     14  C   UNL     1       0.121   1.949  -0.781  0.00  0.00    +0.057 C 
BRANCH  14  15
ATOM     15  C   UNL     1      -1.357   1.600  -0.812  0.00  0.00    -0.020 C 
ATOM     16  C   UNL     1      -2.125   1.841   0.310  0.00  0.00    -0.003 C 
ATOM     17  C   UNL     1      -1.893   1.053  -1.962  0.00  0.00    -0.003 C 
ATOM     18  C   UNL     1      -3.483   1.522   0.282  0.00  0.00    +0.016 C 
ATOM     19  C   UNL     1      -3.251   0.734  -1.990  0.00  0.00    +0.016 C 
ATOM     20  C   UNL     1      -4.045   0.969  -0.868  0.00  0.00    +0.065 C 
BRANCH  20  21
ATOM     21  N   UNL     1      -5.435   0.641  -0.896  0.00  0.00    -0.213 N 
ATOM     22  H   UNL     1      -6.086   1.191  -1.389  0.00  0.00    +0.174 HD
BRANCH  21  23
ATOM     23  S   UNL     1      -5.919  -0.774  -0.019  0.00  0.00    +0.091 S 
ATOM     24  O   UNL     1      -5.427  -2.018  -0.952  0.00  0.00    -0.050 OA
ATOM     25  O   UNL     1      -5.171  -0.831   1.224  0.00  0.00    -0.050 OA
ATOM     26  O   UNL     1      -7.370  -0.806   0.007  0.00  0.00    -0.050 OA
ENDBRANCH  21  23
ENDBRANCH  20  21
ENDBRANCH  14  15
ENDBRANCH   1  14
BRANCH   1  27
ATOM     27  C   UNL     1       1.074  -0.407  -1.272  0.00  0.00    +0.057 C 
BRANCH  27  28
ATOM     28  C   UNL     1       1.920  -1.612  -1.034  0.00  0.00    -0.020 C 
ATOM     29  C   UNL     1       3.181  -1.706  -1.622  0.00  0.00    -0.004 C 
ATOM     30  C   UNL     1       1.449  -2.646  -0.224  0.00  0.00    -0.004 C 
ATOM     31  C   UNL     1       3.972  -2.833  -1.400  0.00  0.00    -0.000 C 
ATOM     32  C   UNL     1       2.240  -3.773  -0.002  0.00  0.00    -0.000 C 
ATOM     33  C   UNL     1       3.502  -3.867  -0.590  0.00  0.00    -0.000 C 
ENDBRANCH  27  28
ENDBRANCH   1  27
TORSDOF 8
