REMARK  Name = 46937054
REMARK  4 active torsions:
REMARK  status: ('A' for Active; 'I' for Inactive)
REMARK    1  A    between atoms: C_5  and  C_18
REMARK    2  A    between atoms: C_11  and  O_19
REMARK    3  A    between atoms: O_19  and  C_20
REMARK    4  A    between atoms: C_20  and  C_22
REMARK                            x       y       z     vdW  Elec       q    Type
REMARK                         _______ _______ _______ _____ _____    ______ ____
ROOT
ATOM      1 CL   UNL     1      -0.356   4.593  -0.499  0.00  0.00    -0.047 Cl
ATOM      2  O   UNL     1      -0.325  -1.007   0.729  0.00  0.00    -0.263 OA
ATOM      3  N   UNL     1      -1.590   0.910   0.319  0.00  0.00    -0.240 N 
ATOM      4  N   UNL     1       0.806   2.251  -0.169  0.00  0.00    -0.351 NA
ATOM      5  C   UNL     1      -2.954   0.443   0.573  0.00  0.00    +0.161 C 
ATOM      6  C   UNL     1      -3.734   1.720   0.444  0.00  0.00    +0.057 C 
ATOM      7  C   UNL     1      -1.572   2.263   0.055  0.00  0.00    +0.091 C 
ATOM      8  C   UNL     1      -2.926   2.744   0.131  0.00  0.00    -0.005 C 
ATOM      9  C   UNL     1      -0.436   0.171   0.431  0.00  0.00    +0.320 C 
ATOM     10  C   UNL     1      -0.412   2.892  -0.179  0.00  0.00    +0.206 C 
ATOM     11  C   UNL     1       0.795   0.989   0.120  0.00  0.00    +0.335 C 
ENDROOT
BRANCH   5  18
ATOM     12  O   UNL     1      -2.883  -0.381  -1.660  0.00  0.00    -0.273 OA
ATOM     13  N   UNL     1      -4.342  -1.418  -0.199  0.00  0.00    -0.278 N 
ATOM     14  C   UNL     1      -4.965  -1.594   1.109  0.00  0.00    +0.094 C 
ATOM     15  C   UNL     1      -4.862  -2.380  -1.159  0.00  0.00    +0.094 C 
ATOM     16  C   UNL     1      -6.124  -2.547   0.852  0.00  0.00    +0.023 C 
ATOM     17  C   UNL     1      -5.621  -3.390  -0.313  0.00  0.00    +0.023 C 
ATOM     18  C   UNL     1      -3.379  -0.484  -0.537  0.00  0.00    +0.244 C 
ENDBRANCH   5  18
BRANCH  11  19
ATOM     19  O   UNL     1       1.923   0.265   0.165  0.00  0.00    -0.444 OA
BRANCH  19  20
ATOM     20  C   UNL     1       3.101   1.008  -0.124  0.00  0.00    +0.235 C 
BRANCH  20  22
ATOM     21  F   UNL     1       7.543  -2.444   0.067  0.00  0.00    -0.204 F 
ATOM     22  C   UNL     1       4.285   0.088  -0.073  0.00  0.00    +0.021 C 
ATOM     23  C   UNL     1       4.972  -0.099   1.126  0.00  0.00    +0.002 C 
ATOM     24  C   UNL     1       4.699  -0.580  -1.225  0.00  0.00    +0.002 C 
ATOM     25  C   UNL     1       6.073  -0.954   1.174  0.00  0.00    +0.029 C 
ATOM     26  C   UNL     1       5.800  -1.436  -1.178  0.00  0.00    +0.029 C 
ATOM     27  C   UNL     1       6.487  -1.623   0.022  0.00  0.00    +0.140 C 
ENDBRANCH  20  22
ENDBRANCH  19  20
ENDBRANCH  11  19
TORSDOF 4
