REMARK  Name = 25210476
REMARK  6 active torsions:
REMARK  status: ('A' for Active; 'I' for Inactive)
REMARK    1  A    between atoms: C_2  and  C_15
REMARK    2  A    between atoms: C_3  and  C_6
REMARK    3  A    between atoms: C_9  and  N_14
REMARK    4  A    between atoms: C_15  and  C_16
REMARK    5  A    between atoms: C_16  and  C_18
REMARK    6  A    between atoms: C_18  and  O_19
REMARK                            x       y       z     vdW  Elec       q    Type
REMARK                         _______ _______ _______ _____ _____    ______ ____
ROOT
ATOM      1  S   UNL     1      -1.104  -0.290   0.618  0.00  0.00    -0.091 S 
ATOM      2  C   UNL     1      -2.230   0.743  -0.155  0.00  0.00    +0.008 C 
ATOM      3  C   UNL     1       0.151   0.197  -0.440  0.00  0.00    +0.029 C 
ATOM      4  C   UNL     1      -1.660   1.443  -1.195  0.00  0.00    +0.003 C 
ATOM      5  C   UNL     1      -0.280   1.126  -1.360  0.00  0.00    +0.007 C 
ENDROOT
BRANCH   3   6
ATOM      6  C   UNL     1       1.464  -0.377  -0.275  0.00  0.00    +0.008 C 
ATOM      7  C   UNL     1       2.555   0.447   0.003  0.00  0.00    +0.025 C 
ATOM      8  C   UNL     1       1.643  -1.756  -0.391  0.00  0.00    +0.001 C 
ATOM      9  C   UNL     1       3.824  -0.108   0.165  0.00  0.00    +0.143 C 
ATOM     10  C   UNL     1       2.913  -2.310  -0.229  0.00  0.00    +0.002 C 
ATOM     11  C   UNL     1       4.003  -1.486   0.049  0.00  0.00    +0.024 C 
BRANCH   9  14
ATOM     12  O   UNL     1       6.069   0.209   0.590  0.00  0.00    -0.126 OA
ATOM     13  O   UNL     1       4.754   1.967   0.548  0.00  0.00    -0.126 OA
ATOM     14  N   UNL     1       4.936   0.730   0.448  0.00  0.00    +0.058 N 
ENDBRANCH   9  14
ENDBRANCH   3   6
BRANCH   2  15
ATOM     15  C   UNL     1      -3.627   0.790   0.329  0.00  0.00    +0.045 C 
BRANCH  15  16
ATOM     16  C   UNL     1      -4.493  -0.395  -0.133  0.00  0.00    +0.115 C 
BRANCH  16  18
ATOM     17  O   UNL     1      -6.318   0.668   1.040  0.00  0.00    -0.250 OA
ATOM     18  C   UNL     1      -5.912  -0.272   0.368  0.00  0.00    +0.314 C 
BRANCH  18  19
ATOM     19  O   UNL     1      -6.688  -1.328   0.020  0.00  0.00    -0.480 OA
ATOM     20  H   UNL     1      -6.329  -2.022  -0.496  0.00  0.00    +0.295 HD
ENDBRANCH  18  19
ENDBRANCH  16  18
ENDBRANCH  15  16
ENDBRANCH   2  15
TORSDOF 6
