REMARK  Name = 25187896
REMARK  6 active torsions:
REMARK  status: ('A' for Active; 'I' for Inactive)
REMARK    1  A    between atoms: C_1  and  C_4
REMARK    2  A    between atoms: C_1  and  C_16
REMARK    3  A    between atoms: C_7  and  O_10
REMARK    4  A    between atoms: C_8  and  O_12
REMARK    5  A    between atoms: C_9  and  O_14
REMARK    6  A    between atoms: C_17  and  C_22
REMARK                            x       y       z     vdW  Elec       q    Type
REMARK                         _______ _______ _______ _____ _____    ______ ____
ROOT
ATOM      1  C   UNL     1       0.538   2.038   0.569  0.00  0.00    +0.073 C 
ATOM      2  C   UNL     1       0.615   3.257  -0.378  0.00  0.00    +0.017 C 
ATOM      3  C   UNL     1       0.560   2.580   2.015  0.00  0.00    +0.017 C 
ENDROOT
BRANCH   1   4
ATOM      4  C   UNL     1       1.682   1.028   0.384  0.00  0.00    -0.005 C 
ATOM      5  C   UNL     1       2.664   1.256  -0.579  0.00  0.00    +0.037 C 
ATOM      6  C   UNL     1       1.737  -0.116   1.180  0.00  0.00    +0.037 C 
ATOM      7  C   UNL     1       2.775  -1.033   1.012  0.00  0.00    +0.175 C 
ATOM      8  C   UNL     1       3.703   0.339  -0.746  0.00  0.00    +0.175 C 
ATOM      9  C   UNL     1       3.757  -0.805   0.049  0.00  0.00    +0.206 C 
BRANCH   7  10
ATOM     10  O   UNL     1       2.817  -2.146   1.796  0.00  0.00    -0.468 OA
ATOM     11  C   UNL     1       1.774  -2.303   2.756  0.00  0.00    +0.253 C 
ENDBRANCH   7  10
BRANCH   8  12
ATOM     12  O   UNL     1       4.656   0.574  -1.690  0.00  0.00    -0.468 OA
ATOM     13  C   UNL     1       4.526   1.767  -2.461  0.00  0.00    +0.253 C 
ENDBRANCH   8  12
BRANCH   9  14
ATOM     14  O   UNL     1       4.772  -1.701  -0.114  0.00  0.00    -0.465 OA
ATOM     15  C   UNL     1       4.559  -2.756  -1.050  0.00  0.00    +0.253 C 
ENDBRANCH   9  14
ENDBRANCH   1   4
BRANCH   1  16
ATOM     16  C   UNL     1      -0.768   1.372   0.321  0.00  0.00    -0.088 C 
ATOM     17  C   UNL     1      -1.822   0.832   0.121  0.00  0.00    -0.076 C 
BRANCH  17  22
ATOM     18  N   UNL     1      -4.308  -1.688  -0.993  0.00  0.00    -0.336 NA
ATOM     19  N   UNL     1      -5.474   0.139   0.061  0.00  0.00    -0.317 NA
ATOM     20  N   UNL     1      -4.280   1.986   0.929  0.00  0.00    -0.334 N 
ATOM     21  N   UNL     1      -6.647  -1.700  -0.804  0.00  0.00    -0.283 N 
ATOM     22  C   UNL     1      -3.074   0.183  -0.115  0.00  0.00    +0.179 C 
ATOM     23  C   UNL     1      -3.150  -1.040  -0.750  0.00  0.00    +0.120 C 
ATOM     24  C   UNL     1      -4.280   0.731   0.272  0.00  0.00    +0.186 C 
ATOM     25  C   UNL     1      -1.916  -1.741  -1.219  0.00  0.00    +0.064 C 
ATOM     26  C   UNL     1      -5.416  -1.051  -0.567  0.00  0.00    +0.196 C 
ATOM     27  H   UNL     1      -5.130   2.394   1.213  0.00  0.00    +0.144 HD
ATOM     28  H   UNL     1      -3.430   2.451   1.102  0.00  0.00    +0.144 HD
ATOM     29  H   UNL     1      -6.663  -2.573  -1.260  0.00  0.00    +0.156 HD
ATOM     30  H   UNL     1      -7.489  -1.280  -0.515  0.00  0.00    +0.156 HD
ENDBRANCH  17  22
ENDBRANCH   1  16
TORSDOF 6
