REMARK  Name = 756618
REMARK  4 active torsions:
REMARK  status: ('A' for Active; 'I' for Inactive)
REMARK    1  A    between atoms: N_2  and  C_7
REMARK    2  A    between atoms: C_3  and  C_16
REMARK    3  A    between atoms: C_8  and  O_13
REMARK    4  A    between atoms: C_16  and  O_17
REMARK                            x       y       z     vdW  Elec       q    Type
REMARK                         _______ _______ _______ _____ _____    ______ ____
ROOT
ATOM      1  O   UNL     1      -0.494   2.542  -0.631  0.00  0.00    -0.275 OA
ATOM      2  N   UNL     1      -0.149   0.196  -0.391  0.00  0.00    -0.255 N 
ATOM      3  C   UNL     1      -2.397  -0.464  -0.602  0.00  0.00    +0.128 C 
ATOM      4  C   UNL     1      -0.972  -0.982  -0.597  0.00  0.00    +0.110 C 
ATOM      5  C   UNL     1      -2.276   0.986  -1.034  0.00  0.00    +0.098 C 
ATOM      6  C   UNL     1      -0.867   1.377  -0.646  0.00  0.00    +0.230 C 
ENDROOT
BRANCH   2   7
ATOM      7  C   UNL     1       1.234   0.101  -0.049  0.00  0.00    +0.088 C 
ATOM      8  C   UNL     1       1.988  -1.021  -0.409  0.00  0.00    +0.147 C 
ATOM      9  C   UNL     1       1.845   1.143   0.656  0.00  0.00    +0.018 C 
ATOM     10  C   UNL     1       3.338  -1.099  -0.068  0.00  0.00    +0.038 C 
ATOM     11  C   UNL     1       3.195   1.065   0.997  0.00  0.00    +0.001 C 
ATOM     12  C   UNL     1       3.942  -0.057   0.635  0.00  0.00    +0.003 C 
BRANCH   8  13
ATOM     13  O   UNL     1       1.417  -2.051  -1.096  0.00  0.00    -0.504 OA
ATOM     14  H   UNL     1       0.511  -2.011  -1.332  0.00  0.00    +0.292 HD
ENDBRANCH   8  13
ENDBRANCH   2   7
BRANCH   3  16
ATOM     15  O   UNL     1      -2.412  -0.508   1.816  0.00  0.00    -0.250 OA
ATOM     16  C   UNL     1      -3.023  -0.548   0.759  0.00  0.00    +0.315 C 
BRANCH  16  17
ATOM     17  O   UNL     1      -4.369  -0.679   0.660  0.00  0.00    -0.480 OA
ATOM     18  H   UNL     1      -4.776  -0.704  -0.183  0.00  0.00    +0.295 HD
ENDBRANCH  16  17
ENDBRANCH   3  16
TORSDOF 4
