REMARK  Name = 2823014
REMARK  8 active torsions:
REMARK  status: ('A' for Active; 'I' for Inactive)
REMARK    1  A    between atoms: C_2  and  C_8
REMARK    2  A    between atoms: C_3  and  C_18
REMARK    3  A    between atoms: N_7  and  N_10
REMARK    4  A    between atoms: N_10  and  C_13
REMARK    5  A    between atoms: C_13  and  N_14
REMARK    6  A    between atoms: C_17  and  C_19
REMARK    7  A    between atoms: C_19  and  C_20
REMARK    8  A    between atoms: C_20  and  C_21
REMARK                            x       y       z     vdW  Elec       q    Type
REMARK                         _______ _______ _______ _____ _____    ______ ____
ROOT
ATOM      1  O   UNL     1      -0.160   0.933  -0.169  0.00  0.00    -0.441 OA
ATOM      2  C   UNL     1       0.726   1.922   0.120  0.00  0.00    +0.201 C 
ATOM      3  C   UNL     1      -1.336   1.549  -0.417  0.00  0.00    +0.187 C 
ATOM      4  C   UNL     1       0.115   3.152   0.055  0.00  0.00    +0.046 C 
ATOM      5  C   UNL     1      -1.233   2.903  -0.297  0.00  0.00    +0.049 C 
ENDROOT
BRANCH   2   8
ATOM      6  O   UNL     1       2.973   2.366   0.729  0.00  0.00    -0.265 OA
ATOM      7  N   UNL     1       2.371   0.173   0.406  0.00  0.00    -0.229 N 
ATOM      8  C   UNL     1       2.065   1.549   0.426  0.00  0.00    +0.296 C 
ATOM      9  H   UNL     1       1.672  -0.478   0.171  0.00  0.00    +0.173 HD
BRANCH   7  10
ATOM     10  N   UNL     1       3.639  -0.267   0.711  0.00  0.00    -0.246 N 
ATOM     11  H   UNL     1       4.193   0.256   1.335  0.00  0.00    +0.172 HD
BRANCH  10  13
ATOM     12  S   UNL     1       5.702  -1.916   0.588  0.00  0.00    -0.017 S 
ATOM     13  C   UNL     1       4.153  -1.426   0.163  0.00  0.00    +0.147 C 
BRANCH  13  14
ATOM     14  N   UNL     1       3.311  -2.089  -0.714  0.00  0.00    -0.314 N 
ATOM     15  C   UNL     1       3.602  -3.319  -1.425  0.00  0.00    +0.110 C 
ATOM     16  H   UNL     1       2.426  -1.685  -0.870  0.00  0.00    +0.149 HD
ENDBRANCH  13  14
ENDBRANCH  10  13
ENDBRANCH   7  10
ENDBRANCH   2   8
BRANCH   3  18
ATOM     17  C   UNL     1      -3.373  -0.003  -1.024  0.00  0.00    -0.083 C 
ATOM     18  C   UNL     1      -2.443   0.707  -0.750  0.00  0.00    -0.027 C 
BRANCH  17  19
ATOM     19  C   UNL     1      -4.510  -0.873  -1.354  0.00  0.00    +0.076 C 
BRANCH  19  20
ATOM     20  C   UNL     1      -5.389  -1.165  -0.137  0.00  0.00    +0.014 C 
BRANCH  20  21
ATOM     21  C   UNL     1      -4.646  -1.929   0.964  0.00  0.00    +0.001 C 
ATOM     22  C   UNL     1      -5.569  -2.267   2.124  0.00  0.00    +0.000 C 
ENDBRANCH  20  21
ENDBRANCH  19  20
ENDBRANCH  17  19
ENDBRANCH   3  18
TORSDOF 8
