REMARK  Name = 157839
REMARK  5 active torsions:
REMARK  status: ('A' for Active; 'I' for Inactive)
REMARK    1  A    between atoms: N_1  and  C_23
REMARK    2  A    between atoms: C_2  and  C_10
REMARK    3  A    between atoms: C_10  and  C_16
REMARK    4  A    between atoms: C_23  and  C_25
REMARK    5  A    between atoms: C_25  and  O_26
REMARK                            x       y       z     vdW  Elec       q    Type
REMARK                         _______ _______ _______ _____ _____    ______ ____
ROOT
ATOM      1  N   UNL     1      -3.287   0.608  -0.497  0.00  0.00    -0.276 N 
ATOM      2  C   UNL     1      -1.492  -0.313  -1.422  0.00  0.00    +0.001 C 
ATOM      3  C   UNL     1      -2.128  -1.295  -0.611  0.00  0.00    +0.011 C 
ATOM      4  C   UNL     1      -3.251  -0.691  -0.043  0.00  0.00    +0.052 C 
ATOM      5  C   UNL     1      -2.227   0.846  -1.331  0.00  0.00    +0.062 C 
ATOM      6  C   UNL     1      -1.855  -2.643  -0.306  0.00  0.00    +0.001 C 
ATOM      7  C   UNL     1      -4.119  -1.370   0.820  0.00  0.00    +0.015 C 
ATOM      8  C   UNL     1      -2.715  -3.335   0.555  0.00  0.00    +0.000 C 
ATOM      9  C   UNL     1      -3.828  -2.707   1.108  0.00  0.00    +0.001 C 
ENDROOT
BRANCH   2  10
ATOM     10  C   UNL     1      -0.262  -0.496  -2.220  0.00  0.00    +0.093 C 
BRANCH  10  16
ATOM     11  S   UNL     1       1.604   1.412  -1.549  0.00  0.00    -0.073 S 
ATOM     12  F   UNL     1       3.684  -2.345   0.871  0.00  0.00    -0.199 F 
ATOM     13  F   UNL     1       4.118   2.994  -0.364  0.00  0.00    -0.207 F 
ATOM     14  F   UNL     1       5.776  -0.871   1.811  0.00  0.00    -0.202 F 
ATOM     15  N   UNL     1       1.681  -1.054  -0.799  0.00  0.00    -0.400 NA
ATOM     16  C   UNL     1       1.025  -0.174  -1.476  0.00  0.00    +0.139 C 
ATOM     17  C   UNL     1       2.794  -0.433  -0.252  0.00  0.00    +0.155 C 
ATOM     18  C   UNL     1       2.924   0.926  -0.552  0.00  0.00    +0.158 C 
ATOM     19  C   UNL     1       3.774  -1.045   0.559  0.00  0.00    +0.194 C 
ATOM     20  C   UNL     1       3.998   1.692  -0.071  0.00  0.00    +0.137 C 
ATOM     21  C   UNL     1       4.846  -0.288   1.041  0.00  0.00    +0.172 C 
ATOM     22  C   UNL     1       4.955   1.062   0.729  0.00  0.00    +0.058 C 
ENDBRANCH  10  16
ENDBRANCH   2  10
BRANCH   1  23
ATOM     23  C   UNL     1      -4.291   1.592  -0.154  0.00  0.00    +0.206 C 
BRANCH  23  25
ATOM     24  O   UNL     1      -2.906   2.256   1.737  0.00  0.00    -0.248 OA
ATOM     25  C   UNL     1      -3.922   2.384   1.070  0.00  0.00    +0.335 C 
BRANCH  25  26
ATOM     26  O   UNL     1      -4.896   3.288   1.348  0.00  0.00    -0.479 OA
ATOM     27  H   UNL     1      -5.655   3.342   0.801  0.00  0.00    +0.295 HD
ENDBRANCH  25  26
ENDBRANCH  23  25
ENDBRANCH   1  23
TORSDOF 5
