REMARK  Name = 1720
REMARK  1 active torsions:
REMARK  status: ('A' for Active; 'I' for Inactive)
REMARK    1  A    between atoms: C_8  and  N_17
REMARK                            x       y       z     vdW  Elec       q    Type
REMARK                         _______ _______ _______ _____ _____    ______ ____
ROOT
ATOM      1  O   UNL     1       1.962  -2.856   0.000  0.00  0.00    -0.270 OA
ATOM      2  O   UNL     1       3.198   1.585   0.000  0.00  0.00    -0.270 OA
ATOM      3  N   UNL     1       2.574  -0.634   0.000  0.00  0.00    -0.248 N 
ATOM      4  C   UNL     1      -0.098   0.110   0.000  0.00  0.00    +0.010 C 
ATOM      5  C   UNL     1      -1.462   0.490   0.000  0.00  0.00    +0.013 C 
ATOM      6  C   UNL     1       0.226  -1.258   0.000  0.00  0.00    +0.054 C 
ATOM      7  C   UNL     1       0.886   1.113   0.000  0.00  0.00    +0.054 C 
ATOM      8  C   UNL     1      -2.455  -0.502   0.000  0.00  0.00    +0.041 C 
ATOM      9  C   UNL     1      -0.774  -2.235   0.000  0.00  0.00    +0.006 C 
ATOM     10  C   UNL     1      -1.800   1.852   0.000  0.00  0.00    +0.001 C 
ATOM     11  C   UNL     1       1.647  -1.671   0.000  0.00  0.00    +0.252 C 
ATOM     12  C   UNL     1       2.316   0.733   0.000  0.00  0.00    +0.252 C 
ATOM     13  C   UNL     1       0.535   2.467   0.000  0.00  0.00    +0.005 C 
ATOM     14  C   UNL     1      -2.113  -1.854   0.001  0.00  0.00    +0.014 C 
ATOM     15  C   UNL     1      -0.808   2.832   0.000  0.00  0.00    +0.000 C 
ATOM     16  H   UNL     1       3.522  -0.898   0.000  0.00  0.00    +0.158 HD
ENDROOT
BRANCH   8  17
ATOM     17  N   UNL     1      -3.834  -0.173  -0.001  0.00  0.00    -0.357 N 
ATOM     18  H   UNL     1      -4.115   0.770  -0.001  0.00  0.00    +0.142 HD
ATOM     19  H   UNL     1      -4.510  -0.889  -0.002  0.00  0.00    +0.142 HD
ENDBRANCH   8  17
TORSDOF 1
