REMARK  Name = 447766
REMARK  5 active torsions:
REMARK  status: ('A' for Active; 'I' for Inactive)
REMARK    1  A    between atoms: C_7  and  C_17
REMARK    2  A    between atoms: C_9  and  N_22
REMARK    3  A    between atoms: N_22  and  C_24
REMARK    4  A    between atoms: C_24  and  C_25
REMARK    5  A    between atoms: C_25  and  N_26
REMARK                            x       y       z     vdW  Elec       q    Type
REMARK                         _______ _______ _______ _____ _____    ______ ____
ROOT
ATOM      1  F   UNL     1       3.643  -1.590  -0.023  0.00  0.00    -0.204 F 
ATOM      2  O   UNL     1      -3.430  -1.454   0.036  0.00  0.00    -0.270 OA
ATOM      3  N   UNL     1      -1.661  -3.016   0.003  0.00  0.00    -0.280 N 
ATOM      4  C   UNL     1       0.032  -1.542   0.005  0.00  0.00    +0.021 C 
ATOM      5  C   UNL     1      -1.118  -0.798   0.023  0.00  0.00    +0.056 C 
ATOM      6  C   UNL     1       1.319  -1.020   0.001  0.00  0.00    +0.042 C 
ATOM      7  C   UNL     1      -1.058   0.579   0.038  0.00  0.00    +0.019 C 
ATOM      8  C   UNL     1      -0.272  -2.875  -0.007  0.00  0.00    +0.051 C 
ATOM      9  C   UNL     1       1.398   0.390   0.017  0.00  0.00    +0.047 C 
ATOM     10  C   UNL     1       0.217   1.171   0.035  0.00  0.00    +0.016 C 
ATOM     11  C   UNL     1      -2.251  -1.749   0.022  0.00  0.00    +0.250 C 
ATOM     12  C   UNL     1       2.358  -1.974  -0.017  0.00  0.00    +0.141 C 
ATOM     13  C   UNL     1       0.729  -3.821  -0.025  0.00  0.00    +0.017 C 
ATOM     14  C   UNL     1       2.056  -3.357  -0.029  0.00  0.00    +0.031 C 
ATOM     15  H   UNL     1      -2.147  -3.871  -0.002  0.00  0.00    +0.155 HD
ENDROOT
BRANCH   7  17
ATOM     16  N   UNL     1      -2.847   1.833  -1.095  0.00  0.00    -0.312 N 
ATOM     17  C   UNL     1      -2.240   1.402   0.057  0.00  0.00    +0.049 C 
ATOM     18  C   UNL     1      -2.962   1.899   1.122  0.00  0.00    +0.016 C 
ATOM     19  C   UNL     1      -3.943   2.594  -0.782  0.00  0.00    +0.062 C 
ATOM     20  C   UNL     1      -4.038   2.653   0.591  0.00  0.00    +0.017 C 
ATOM     21  H   UNL     1      -2.543   1.627  -2.008  0.00  0.00    +0.152 HD
ENDBRANCH   7  17
BRANCH   9  22
ATOM     22  N   UNL     1       2.648   1.047   0.014  0.00  0.00    -0.335 N 
ATOM     23  H   UNL     1       3.468   0.501   0.002  0.00  0.00    +0.147 HD
BRANCH  22  24
ATOM     24  C   UNL     1       2.775   2.470   0.030  0.00  0.00    +0.063 C 
BRANCH  24  25
ATOM     25  C   UNL     1       4.249   2.853  -0.012  0.00  0.00    -0.065 C 
BRANCH  25  26
ATOM     26  N   UNL     1       4.396   4.303  -0.005  0.00  0.00    +0.382 N 
ATOM     27  H   UNL     1       5.387   4.545  -0.033  0.00  0.00    -0.089 HD
ATOM     28  H   UNL     1       3.977   4.684   0.844  0.00  0.00    -0.089 HD
ATOM     29  H   UNL     1       3.927   4.697  -0.821  0.00  0.00    -0.089 HD
ENDBRANCH  25  26
ENDBRANCH  24  25
ENDBRANCH  22  24
ENDBRANCH   9  22
TORSDOF 5
