REMARK  Name = 4073054
REMARK  4 active torsions:
REMARK  status: ('A' for Active; 'I' for Inactive)
REMARK    1  A    between atoms: N_2  and  C_14
REMARK    2  A    between atoms: N_2  and  C_20
REMARK    3  A    between atoms: N_3  and  N_6
REMARK    4  A    between atoms: N_6  and  C_9
REMARK                            x       y       z     vdW  Elec       q    Type
REMARK                         _______ _______ _______ _____ _____    ______ ____
ROOT
ATOM      1  O   UNL     1      -0.397   2.182  -1.056  0.00  0.00    -0.250 OA
ATOM      2  N   UNL     1       0.474   0.172  -0.220  0.00  0.00    -0.221 N 
ATOM      3  N   UNL     1      -1.818   0.710  -0.009  0.00  0.00    -0.187 N 
ATOM      4  C   UNL     1      -0.569   1.100  -0.485  0.00  0.00    +0.331 C 
ATOM      5  H   UNL     1      -1.933  -0.157   0.443  0.00  0.00    +0.179 HD
ENDROOT
BRANCH   2   6
ATOM      6  C   UNL     1       1.819   0.670  -0.044  0.00  0.00    +0.060 C 
ATOM      7  C   UNL     1       2.863  -0.141  -0.406  0.00  0.00    +0.015 C 
ATOM      8  C   UNL     1       1.981   1.929   0.474  0.00  0.00    +0.015 C 
ATOM      9  C   UNL     1       4.161   0.340  -0.237  0.00  0.00    +0.001 C 
ATOM     10  C   UNL     1       3.280   2.410   0.643  0.00  0.00    +0.001 C 
ATOM     11  C   UNL     1       4.370   1.616   0.287  0.00  0.00    +0.000 C 
ENDBRANCH   2   6
BRANCH   2  12
ATOM     12  C   UNL     1       0.244  -1.245  -0.120  0.00  0.00    +0.060 C 
ATOM     13  C   UNL     1       1.059  -1.983   0.704  0.00  0.00    +0.015 C 
ATOM     14  C   UNL     1      -0.781  -1.794  -0.852  0.00  0.00    +0.015 C 
ATOM     15  C   UNL     1       0.835  -3.357   0.801  0.00  0.00    +0.001 C 
ATOM     16  C   UNL     1      -1.004  -3.168  -0.754  0.00  0.00    +0.001 C 
ATOM     17  C   UNL     1      -0.196  -3.949   0.072  0.00  0.00    +0.000 C 
ENDBRANCH   2  12
BRANCH   3  18
ATOM     18  N   UNL     1      -2.870   1.542  -0.178  0.00  0.00    -0.143 NA
BRANCH  18  21
ATOM     19  N   UNL     1      -5.140   1.910   0.169  0.00  0.00    -0.369 N 
ATOM     20  N   UNL     1      -4.294  -0.068   0.921  0.00  0.00    -0.369 N 
ATOM     21  C   UNL     1      -4.018   1.124   0.288  0.00  0.00    +0.208 C 
ATOM     22  H   UNL     1      -5.080   2.792  -0.265  0.00  0.00    +0.159 HD
ATOM     23  H   UNL     1      -6.003   1.592   0.519  0.00  0.00    +0.159 HD
ATOM     24  H   UNL     1      -3.576  -0.725   1.070  0.00  0.00    +0.159 HD
ATOM     25  H   UNL     1      -5.211  -0.263   1.224  0.00  0.00    +0.159 HD
ENDBRANCH  18  21
ENDBRANCH   3  18
TORSDOF 4
