REMARK  Name = 6852154
REMARK  4 active torsions:
REMARK  status: ('A' for Active; 'I' for Inactive)
REMARK    1  A    between atoms: C_2  and  C_19
REMARK    2  A    between atoms: C_6  and  C_11
REMARK    3  A    between atoms: C_16  and  O_17
REMARK    4  A    between atoms: C_19  and  O_20
REMARK                            x       y       z     vdW  Elec       q    Type
REMARK                         _______ _______ _______ _____ _____    ______ ____
ROOT
ATOM      1  O   UNL     1       0.664   1.254   0.375  0.00  0.00    -0.351 OA
ATOM      2  C   UNL     1       2.844   0.220  -0.183  0.00  0.00    +0.059 C 
ATOM      3  C   UNL     1       0.697  -0.775  -0.991  0.00  0.00    +0.050 C 
ATOM      4  C   UNL     1       2.164  -0.492  -1.366  0.00  0.00    +0.012 C 
ATOM      5  C   UNL     1       2.849  -0.743   1.037  0.00  0.00    +0.030 C 
ATOM      6  C   UNL     1       0.013   0.592  -0.720  0.00  0.00    +0.141 C 
ATOM      7  C   UNL     1       2.047   1.508   0.128  0.00  0.00    +0.145 C 
ATOM      8  C   UNL     1       0.663  -1.688   0.228  0.00  0.00    -0.046 C 
ATOM      9  C   UNL     1       1.647  -1.642   1.146  0.00  0.00    -0.034 C 
ATOM     10  C   UNL     1      -0.476  -2.658   0.344  0.00  0.00    +0.026 C 
ENDROOT
BRANCH   6  11
ATOM     11  C   UNL     1      -1.438   0.489  -0.395  0.00  0.00    +0.005 C 
ATOM     12  C   UNL     1      -2.327  -0.046  -1.327  0.00  0.00    +0.001 C 
ATOM     13  C   UNL     1      -1.909   0.930   0.843  0.00  0.00    +0.001 C 
ATOM     14  C   UNL     1      -3.685  -0.141  -1.023  0.00  0.00    +0.036 C 
ATOM     15  C   UNL     1      -3.266   0.835   1.147  0.00  0.00    +0.036 C 
ATOM     16  C   UNL     1      -4.154   0.299   0.215  0.00  0.00    +0.134 C 
BRANCH  16  17
ATOM     17  O   UNL     1      -5.479   0.205   0.511  0.00  0.00    -0.506 OA
ATOM     18  H   UNL     1      -6.076  -0.155  -0.116  0.00  0.00    +0.292 HD
ENDBRANCH  16  17
ENDBRANCH   6  11
BRANCH   2  19
ATOM     19  C   UNL     1       4.286   0.603  -0.542  0.00  0.00    +0.140 C 
BRANCH  19  20
ATOM     20  O   UNL     1       4.861   1.252   0.573  0.00  0.00    -0.382 OA
ATOM     21  H   UNL     1       5.775   1.503   0.366  0.00  0.00    +0.210 HD
ENDBRANCH  19  20
ENDBRANCH   2  19
TORSDOF 4
