REMARK  Name = 11553058
REMARK  6 active torsions:
REMARK  status: ('A' for Active; 'I' for Inactive)
REMARK    1  A    between atoms: C_3  and  N_22
REMARK    2  A    between atoms: C_5  and  C_10
REMARK    3  A    between atoms: C_7  and  C_16
REMARK    4  A    between atoms: N_22  and  C_24
REMARK    5  A    between atoms: C_24  and  C_25
REMARK    6  A    between atoms: C_25  and  N_26
REMARK                            x       y       z     vdW  Elec       q    Type
REMARK                         _______ _______ _______ _____ _____    ______ ____
ROOT
ATOM      1  O   UNL     1      -2.899   2.101   0.000  0.00  0.00    -0.436 OA
ATOM      2  N   UNL     1      -1.241   3.814  -0.090  0.00  0.00    -0.210 NA
ATOM      3  C   UNL     1       0.644   1.636  -0.146  0.00  0.00    +0.051 C 
ATOM      4  C   UNL     1      -0.752   1.411  -0.084  0.00  0.00    +0.070 A 
ATOM      5  C   UNL     1      -1.591   0.270  -0.036  0.00  0.00    +0.040 A 
ATOM      6  C   UNL     1      -1.601   2.517  -0.060  0.00  0.00    +0.231 A 
ATOM      7  C   UNL     1      -2.882   0.743   0.014  0.00  0.00    +0.147 A 
ATOM      8  C   UNL     1       1.054   2.979  -0.178  0.00  0.00    +0.035 C 
ATOM      9  C   UNL     1       0.100   3.988  -0.149  0.00  0.00    +0.103 C 
ENDROOT
BRANCH   5  10
ATOM     10  C   UNL     1      -1.262  -1.127  -0.034  0.00  0.00    +0.003 C 
ATOM     11  C   UNL     1      -1.050  -1.792   1.174  0.00  0.00    +0.000 C 
ATOM     12  C   UNL     1      -1.152  -1.820  -1.240  0.00  0.00    +0.000 C 
ATOM     13  C   UNL     1      -0.729  -3.150   1.176  0.00  0.00    +0.000 C 
ATOM     14  C   UNL     1      -0.831  -3.177  -1.238  0.00  0.00    +0.000 C 
ATOM     15  C   UNL     1      -0.620  -3.842  -0.030  0.00  0.00    +0.000 C 
ENDBRANCH   5  10
BRANCH   7  16
ATOM     16  C   UNL     1      -4.181   0.129   0.076  0.00  0.00    +0.035 C 
ATOM     17  C   UNL     1      -4.762  -0.158   1.314  0.00  0.00    +0.003 C 
ATOM     18  C   UNL     1      -4.866  -0.186  -1.099  0.00  0.00    +0.003 C 
ATOM     19  C   UNL     1      -6.021  -0.755   1.375  0.00  0.00    +0.000 C 
ATOM     20  C   UNL     1      -6.125  -0.783  -1.038  0.00  0.00    +0.000 C 
ATOM     21  C   UNL     1      -6.703  -1.067   0.199  0.00  0.00    +0.000 C 
ENDBRANCH   7  16
BRANCH   3  22
ATOM     22  N   UNL     1       1.581   0.615  -0.175  0.00  0.00    -0.334 N 
ATOM     23  H   UNL     1       1.256  -0.314  -0.151  0.00  0.00    +0.147 HD
BRANCH  22  24
ATOM     24  C   UNL     1       3.006   0.837  -0.239  0.00  0.00    +0.064 C 
BRANCH  24  25
ATOM     25  C   UNL     1       3.730  -0.502  -0.290  0.00  0.00    -0.056 C 
BRANCH  25  26
ATOM     26  N   UNL     1       5.175  -0.295  -0.363  0.00  0.00    +0.385 N 
ATOM     27  N   UNL     1       7.883  -0.597   0.626  0.00  0.00    +0.381 N 
ATOM     28  C   UNL     1       5.652   0.472   0.795  0.00  0.00    -0.101 C 
ATOM     29  C   UNL     1       5.882  -1.579  -0.459  0.00  0.00    -0.101 C 
ATOM     30  C   UNL     1       7.167   0.678   0.722  0.00  0.00    -0.105 C 
ATOM     31  C   UNL     1       7.396  -1.361  -0.524  0.00  0.00    -0.105 C 
ATOM     32  H   UNL     1       5.375   0.243  -1.206  0.00  0.00    -0.080 HD
ATOM     33  H   UNL     1       7.729  -1.135   1.479  0.00  0.00    -0.085 HD
ATOM     34  H   UNL     1       8.879  -0.412   0.507  0.00  0.00    -0.085 HD
ENDBRANCH  25  26
ENDBRANCH  24  25
ENDBRANCH  22  24
ENDBRANCH   3  22
TORSDOF 6
