REMARK  Name = 24963047
REMARK  4 active torsions:
REMARK  status: ('A' for Active; 'I' for Inactive)
REMARK    1  A    between atoms: C_1  and  S_20
REMARK    2  A    between atoms: C_2  and  C_10
REMARK    3  A    between atoms: S_20  and  N_23
REMARK    4  A    between atoms: N_23  and  C_25
REMARK                            x       y       z     vdW  Elec       q    Type
REMARK                         _______ _______ _______ _____ _____    ______ ____
ROOT
ATOM      1  C   UNL     1      -2.073  -0.718   0.346  0.00  0.00    +0.122 C 
ATOM      2  C   UNL     1       0.705  -0.657   0.104  0.00  0.00    +0.000 C 
ATOM      3  C   UNL     1      -1.425  -1.638  -0.478  0.00  0.00    +0.020 C 
ATOM      4  C   UNL     1      -1.333   0.232   1.049  0.00  0.00    +0.020 C 
ATOM      5  C   UNL     1      -0.035  -1.607  -0.599  0.00  0.00    +0.001 C 
ATOM      6  C   UNL     1       0.056   0.262   0.929  0.00  0.00    +0.001 C 
ENDROOT
BRANCH   2  10
ATOM      7  N   UNL     1       6.216  -0.255  -0.324  0.00  0.00    -0.275 N 
ATOM      8  N   UNL     1       6.463   1.051  -0.133  0.00  0.00    -0.158 NA
ATOM      9  N   UNL     1       4.979   2.880   0.299  0.00  0.00    -0.341 N 
ATOM     10  C   UNL     1       2.146  -0.626  -0.019  0.00  0.00    +0.000 C 
ATOM     11  C   UNL     1       4.222   0.601  -0.005  0.00  0.00    +0.050 A 
ATOM     12  C   UNL     1       2.823   0.593   0.119  0.00  0.00    +0.004 C 
ATOM     13  C   UNL     1       4.891  -0.592  -0.260  0.00  0.00    +0.077 A 
ATOM     14  C   UNL     1       2.842  -1.809  -0.275  0.00  0.00    +0.002 C 
ATOM     15  C   UNL     1       4.235  -1.817  -0.402  0.00  0.00    +0.019 C 
ATOM     16  C   UNL     1       5.247   1.569   0.061  0.00  0.00    +0.146 A 
ATOM     17  H   UNL     1       6.927  -0.914  -0.495  0.00  0.00    +0.189 HD
ATOM     18  H   UNL     1       5.714   3.533   0.340  0.00  0.00    +0.144 HD
ATOM     19  H   UNL     1       4.049   3.176   0.431  0.00  0.00    +0.144 HD
ENDBRANCH   2  10
BRANCH   1  20
ATOM     20  S   UNL     1      -3.834  -0.758   0.500  0.00  0.00    +0.060 S 
ATOM     21  O   UNL     1      -4.278  -2.107   0.207  0.00  0.00    -0.153 OA
ATOM     22  O   UNL     1      -4.161  -0.142   1.771  0.00  0.00    -0.153 OA
BRANCH  20  23
ATOM     23  N   UNL     1      -4.321   0.282  -0.746  0.00  0.00    -0.182 NA
ATOM     24  H   UNL     1      -4.468  -0.295  -1.574  0.00  0.00    +0.149 HD
BRANCH  23  25
ATOM     25  C   UNL     1      -5.545   1.114  -0.575  0.00  0.00    +0.062 C 
ATOM     26  C   UNL     1      -5.304   2.100   0.568  0.00  0.00    +0.017 C 
ATOM     27  C   UNL     1      -6.714   0.183  -0.249  0.00  0.00    +0.017 C 
ATOM     28  C   UNL     1      -5.804   1.859  -1.886  0.00  0.00    +0.017 C 
ENDBRANCH  23  25
ENDBRANCH  20  23
ENDBRANCH   1  20
TORSDOF 4
