REMARK  Name = 23624249
REMARK  4 active torsions:
REMARK  status: ('A' for Active; 'I' for Inactive)
REMARK    1  A    between atoms: N_5  and  C_17
REMARK    2  A    between atoms: C_7  and  C_29
REMARK    3  A    between atoms: C_18  and  C_23
REMARK    4  A    between atoms: C_23  and  C_25
REMARK                            x       y       z     vdW  Elec       q    Type
REMARK                         _______ _______ _______ _____ _____    ______ ____
ROOT
ATOM      1  N   UNL     1       2.828  -1.205   0.137  0.00  0.00    -0.239 N 
ATOM      2  N   UNL     1       1.490  -1.080   0.100  0.00  0.00    -0.166 NA
ATOM      3  N   UNL     1      -0.231  -2.744   0.251  0.00  0.00    -0.275 N 
ATOM      4  N   UNL     1      -1.423  -0.697   0.010  0.00  0.00    -0.317 NA
ATOM      5  N   UNL     1      -2.634   1.299  -0.226  0.00  0.00    -0.238 N 
ATOM      6  N   UNL     1      -3.832  -0.709  -0.029  0.00  0.00    -0.317 NA
ATOM      7  C   UNL     1       3.258  -2.491   0.283  0.00  0.00    +0.045 C 
ATOM      8  C   UNL     1       2.122  -3.261   0.348  0.00  0.00    +0.048 C 
ATOM      9  C   UNL     1       1.109  -2.326   0.229  0.00  0.00    +0.152 C 
ATOM     10  C   UNL     1      -1.455  -2.038   0.155  0.00  0.00    +0.184 C 
ATOM     11  C   UNL     1      -2.621  -2.775   0.215  0.00  0.00    +0.151 C 
ATOM     12  C   UNL     1      -2.629  -0.101  -0.074  0.00  0.00    +0.205 C 
ATOM     13  C   UNL     1      -3.791  -2.050   0.118  0.00  0.00    +0.179 C 
ATOM     14  H   UNL     1       3.442  -0.439   0.065  0.00  0.00    +0.174 HD
ATOM     15  H   UNL     1      -0.342  -3.717   0.354  0.00  0.00    +0.156 HD
ATOM     16  H   UNL     1      -3.536   1.687  -0.282  0.00  0.00    +0.166 HD
ATOM     17  N   UNL     1      -5.010  -2.768   0.176  0.00  0.00    -0.309 N 
ATOM     18  C   UNL     1      -6.284  -2.132   0.087  0.00  0.00    +0.110 C 
ATOM     19  H   UNL     1      -4.977  -3.746   0.281  0.00  0.00    +0.149 HD
ENDROOT
BRANCH   5  20
ATOM     20  C   UNL     1      -1.599   2.253  -0.314  0.00  0.00    +0.058 C 
ATOM     21  C   UNL     1       0.448   4.141  -0.485  0.00  0.00    -0.007 C 
ATOM     22  C   UNL     1      -0.367   1.899  -0.863  0.00  0.00    +0.015 C 
ATOM     23  C   UNL     1      -1.808   3.552   0.150  0.00  0.00    +0.015 C 
ATOM     24  C   UNL     1       0.657   2.842  -0.948  0.00  0.00    -0.002 C 
ATOM     25  C   UNL     1      -0.785   4.496   0.064  0.00  0.00    -0.002 C 
BRANCH  21  26
ATOM     26  C   UNL     1       1.542   5.151  -0.577  0.00  0.00    +0.132 C 
BRANCH  26  28
ATOM     27  N   UNL     1       3.072   5.170   1.568  0.00  0.00    -0.196 NA
ATOM     28  C   UNL     1       2.400   5.165   0.621  0.00  0.00    +0.078 C 
ENDBRANCH  26  28
ENDBRANCH  21  26
ENDBRANCH   5  20
BRANCH   7  29
ATOM     29  C   UNL     1       4.703  -2.966   0.360  0.00  0.00    +0.037 C 
ATOM     30  C   UNL     1       5.656  -2.604  -0.751  0.00  0.00    +0.006 C 
ATOM     31  C   UNL     1       5.183  -4.021  -0.605  0.00  0.00    +0.006 C 
ENDBRANCH   7  29
TORSDOF 4
