REMARK  Name = 656936
REMARK  3 active torsions:
REMARK  status: ('A' for Active; 'I' for Inactive)
REMARK    1  A    between atoms: C_3  and  C_10
REMARK    2  A    between atoms: C_8  and  O_18
REMARK    3  A    between atoms: C_15  and  O_16
REMARK                            x       y       z     vdW  Elec       q    Type
REMARK                         _______ _______ _______ _____ _____    ______ ____
ROOT
ATOM      1  O   UNL     1       0.394  -0.974   0.001  0.00  0.00    -0.453 OA
ATOM      2  C   UNL     1       1.930   0.683   0.000  0.00  0.00    +0.041 C 
ATOM      3  C   UNL     1      -0.260   0.216   0.001  0.00  0.00    +0.145 C 
ATOM      4  C   UNL     1       1.728  -0.694   0.000  0.00  0.00    +0.145 C 
ATOM      5  C   UNL     1       0.633   1.263   0.001  0.00  0.00    +0.041 C 
ATOM      6  C   UNL     1       3.249   1.168   0.000  0.00  0.00    +0.040 C 
ATOM      7  C   UNL     1       2.756  -1.634   0.000  0.00  0.00    +0.041 C 
ATOM      8  C   UNL     1       4.305   0.246  -0.001  0.00  0.00    +0.134 C 
ATOM      9  C   UNL     1       4.060  -1.130  -0.001  0.00  0.00    +0.040 C 
ENDROOT
BRANCH   3  10
ATOM     10  C   UNL     1      -1.692   0.130   0.001  0.00  0.00    +0.035 C 
ATOM     11  C   UNL     1      -2.468   1.294   0.000  0.00  0.00    +0.006 C 
ATOM     12  C   UNL     1      -2.323  -1.118   0.001  0.00  0.00    +0.006 C 
ATOM     13  C   UNL     1      -3.860   1.210   0.000  0.00  0.00    +0.037 C 
ATOM     14  C   UNL     1      -3.715  -1.202   0.000  0.00  0.00    +0.037 C 
ATOM     15  C   UNL     1      -4.484  -0.038  -0.001  0.00  0.00    +0.134 C 
BRANCH  15  16
ATOM     16  O   UNL     1      -5.843  -0.119  -0.002  0.00  0.00    -0.506 OA
ATOM     17  H   UNL     1      -6.359   0.663  -0.002  0.00  0.00    +0.292 HD
ENDBRANCH  15  16
ENDBRANCH   3  10
BRANCH   8  18
ATOM     18  O   UNL     1       5.590   0.700  -0.001  0.00  0.00    -0.506 OA
ATOM     19  H   UNL     1       5.762   1.621  -0.001  0.00  0.00    +0.292 HD
ENDBRANCH   8  18
TORSDOF 3
