REMARK  Name = 23645698
REMARK  6 active torsions:
REMARK  status: ('A' for Active; 'I' for Inactive)
REMARK    1  A    between atoms: C_4  and  C_16
REMARK    2  A    between atoms: C_5  and  C_6
REMARK    3  A    between atoms: C_7  and  S_12
REMARK    4  A    between atoms: C_16  and  C_18
REMARK    5  A    between atoms: C_18  and  C_25
REMARK    6  A    between atoms: C_18  and  N_26
REMARK                            x       y       z     vdW  Elec       q    Type
REMARK                         _______ _______ _______ _____ _____    ______ ____
ROOT
ATOM      1  O   UNL     1       1.615   2.110  -1.314  0.00  0.00    -0.316 OA
ATOM      2  N   UNL     1       0.766   1.195   0.546  0.00  0.00    -0.313 NA
ATOM      3  N   UNL     1       0.266   1.850  -1.589  0.00  0.00    -0.007 NA
ATOM      4  C   UNL     1       1.769   1.688  -0.059  0.00  0.00    +0.292 C 
ATOM      5  C   UNL     1      -0.166   1.311  -0.444  0.00  0.00    +0.127 C 
ENDROOT
BRANCH   5   6
ATOM      6  C   UNL     1      -1.521   0.879  -0.257  0.00  0.00    +0.077 C 
ATOM      7  C   UNL     1      -4.157   0.038   0.107  0.00  0.00    +0.106 C 
ATOM      8  C   UNL     1      -1.830  -0.032   0.754  0.00  0.00    +0.012 C 
ATOM      9  C   UNL     1      -2.532   1.368  -1.086  0.00  0.00    +0.012 C 
ATOM     10  C   UNL     1      -3.148  -0.452   0.936  0.00  0.00    +0.019 C 
ATOM     11  C   UNL     1      -3.849   0.948  -0.904  0.00  0.00    +0.019 C 
BRANCH   7  12
ATOM     12  S   UNL     1      -5.806  -0.488   0.337  0.00  0.00    +0.010 S 
ATOM     13  O   UNL     1      -5.953  -0.915   1.721  0.00  0.00    -0.169 OA
ATOM     14  O   UNL     1      -6.704   0.523  -0.207  0.00  0.00    -0.169 OA
ATOM     15  C   UNL     1      -5.960  -1.926  -0.698  0.00  0.00    +0.182 C 
ENDBRANCH   7  12
ENDBRANCH   5   6
BRANCH   4  16
ATOM     16  C   UNL     1       3.186   1.865   0.490  0.00  0.00    +0.081 C 
ATOM     17  C   UNL     1       3.177   2.857   1.663  0.00  0.00    +0.009 C 
BRANCH  16  18
ATOM     18  C   UNL     1       3.824   0.511   0.873  0.00  0.00    +0.023 C 
BRANCH  18  25
ATOM     19  O   UNL     1       4.498  -0.058  -1.340  0.00  0.00    -0.277 OA
ATOM     20  N   UNL     1       3.240  -1.615  -0.187  0.00  0.00    -0.281 N 
ATOM     21  C   UNL     1       2.512  -2.086   0.987  0.00  0.00    +0.093 C 
ATOM     22  C   UNL     1       3.208  -2.606  -1.253  0.00  0.00    +0.093 C 
ATOM     23  C   UNL     1       1.772  -3.325   0.502  0.00  0.00    +0.023 C 
ATOM     24  C   UNL     1       2.692  -3.869  -0.583  0.00  0.00    +0.023 C 
ATOM     25  C   UNL     1       3.894  -0.404  -0.324  0.00  0.00    +0.206 C 
ENDBRANCH  18  25
BRANCH  18  26
ATOM     26  N   UNL     1       5.205   0.633   1.326  0.00  0.00    +0.388 N 
ATOM     27  H   UNL     1       5.568  -0.291   1.563  0.00  0.00    -0.089 HD
ATOM     28  H   UNL     1       5.241   1.233   2.150  0.00  0.00    -0.089 HD
ATOM     29  H   UNL     1       5.772   1.041   0.583  0.00  0.00    -0.089 HD
ENDBRANCH  18  26
ENDBRANCH  16  18
ENDBRANCH   4  16
TORSDOF 6
