REMARK  Name = 25195347
REMARK  7 active torsions:
REMARK  status: ('A' for Active; 'I' for Inactive)
REMARK    1  A    between atoms: N_1  and  C1*_13
REMARK    2  A    between atoms: N_3  and  C_27
REMARK    3  A    between atoms: C2*_14  and  O2*_17
REMARK    4  A    between atoms: C3*_15  and  O3*_19
REMARK    5  A    between atoms: C4*_16  and  C5*_21
REMARK    6  A    between atoms: C5*_21  and  O5*_22
REMARK    7  A    between atoms: C_27  and  C_30
REMARK                            x       y       z     vdW  Elec       q    Type
REMARK                         _______ _______ _______ _____ _____    ______ ____
ROOT
ATOM      1  N   UNL     1       1.186  -0.153  -0.613  0.00  0.00    -0.208 N 
ATOM      2  N   UNL     1      -0.495  -1.592  -0.885  0.00  0.00    -0.367 NA
ATOM      3  N   UNL     1      -0.760   0.676  -1.640  0.00  0.00    -0.292 N 
ATOM      4  N   UNL     1       2.808  -1.606   0.463  0.00  0.00    -0.227 NA
ATOM      5  N   UNL     1       1.924  -3.863   0.749  0.00  0.00    -0.227 NA
ATOM      6  C   UNL     1      -0.088  -0.354  -1.074  0.00  0.00    +0.245 C 
ATOM      7  C   UNL     1       1.618  -1.341  -0.097  0.00  0.00    +0.170 C 
ATOM      8  C   UNL     1       0.562  -2.220  -0.276  0.00  0.00    +0.196 C 
ATOM      9  C   UNL     1       0.746  -3.525   0.172  0.00  0.00    +0.155 C 
ATOM     10  C   UNL     1       2.868  -2.897   0.857  0.00  0.00    +0.253 C 
ATOM     11  H   UNL     1      -0.299   1.544  -1.701  0.00  0.00    +0.151 HD
ATOM     12  N   UNL     1      -0.274  -4.482   0.034  0.00  0.00    -0.341 N 
ATOM     13  H   UNL     1      -0.133  -5.402   0.354  0.00  0.00    +0.144 HD
ATOM     14  H   UNL     1      -1.130  -4.232  -0.384  0.00  0.00    +0.144 HD
ENDROOT
BRANCH   1  16
ATOM     15  O4* UNL     1       3.393   0.876  -0.790  0.00  0.00    -0.333 OA
ATOM     16  C1* UNL     1       1.979   1.131  -0.655  0.00  0.00    +0.230 C 
ATOM     17  C2* UNL     1       1.829   1.965   0.613  0.00  0.00    +0.187 C 
ATOM     18  C3* UNL     1       3.111   2.773   0.613  0.00  0.00    +0.171 C 
ATOM     19  C4* UNL     1       4.124   1.768   0.081  0.00  0.00    +0.175 C 
BRANCH  17  20
ATOM     20  O2* UNL     1       0.667   2.772   0.609  0.00  0.00    -0.378 OA
ATOM     21  H2* UNL     1      -0.120   2.205   0.609  0.00  0.00    +0.211 HD
ENDBRANCH  17  20
BRANCH  18  22
ATOM     22  O3* UNL     1       3.022   3.846  -0.324  0.00  0.00    -0.379 OA
ATOM     23  H3* UNL     1       2.381   4.501  -0.005  0.00  0.00    +0.211 HD
ENDBRANCH  18  22
BRANCH  19  24
ATOM     24  C5* UNL     1       4.772   0.936   1.179  0.00  0.00    +0.169 C 
BRANCH  24  25
ATOM     25  O5* UNL     1       5.684   0.030   0.583  0.00  0.00    -0.379 OA
ATOM     26  H5* UNL     1       6.105  -0.507   1.273  0.00  0.00    +0.211 HD
ENDBRANCH  24  25
ENDBRANCH  19  24
ENDBRANCH   1  16
BRANCH   3  27
ATOM     27  C   UNL     1      -2.120   0.593  -2.169  0.00  0.00    +0.117 C 
BRANCH  27  30
ATOM     28 CL   UNL     1      -6.091  -1.492   0.432  0.00  0.00    -0.081 Cl
ATOM     29 CL   UNL     1      -6.119   1.152   2.298  0.00  0.00    -0.081 Cl
ATOM     30  C   UNL     1      -3.126   0.718  -1.058  0.00  0.00    -0.002 C 
ATOM     31  C   UNL     1      -4.045  -0.306  -0.830  0.00  0.00    +0.010 C 
ATOM     32  C   UNL     1      -3.139   1.858  -0.254  0.00  0.00    -0.002 C 
ATOM     33  C   UNL     1      -4.977  -0.190   0.201  0.00  0.00    +0.068 C 
ATOM     34  C   UNL     1      -4.071   1.974   0.777  0.00  0.00    +0.012 C 
ATOM     35  C   UNL     1      -4.990   0.950   1.004  0.00  0.00    +0.068 C 
ENDBRANCH  27  30
ENDBRANCH   3  27
TORSDOF 7
