REMARK  Name = 5287517
REMARK  2 active torsions:
REMARK  status: ('A' for Active; 'I' for Inactive)
REMARK    1  A    between atoms: O_1  and  C_2
REMARK    2  A    between atoms: O_1  and  C_9
REMARK                            x       y       z     vdW  Elec       q    Type
REMARK                         _______ _______ _______ _____ _____    ______ ____
ROOT
ATOM      1  C   UNL     1      -0.576   0.381   0.522  0.00  0.00    +0.139 C 
ATOM      2  C   UNL     1      -3.182  -0.313  -0.193  0.00  0.00    -0.022 C 
ATOM      3  C   UNL     1      -1.171  -0.756   1.071  0.00  0.00    +0.037 C 
ATOM      4  C   UNL     1      -1.284   1.170  -0.383  0.00  0.00    +0.037 C 
ATOM      5  C   UNL     1      -2.473  -1.103   0.713  0.00  0.00    -0.001 C 
ATOM      6  C   UNL     1      -2.587   0.823  -0.741  0.00  0.00    -0.001 C 
ATOM      7  C   UNL     1      -4.575  -0.683  -0.575  0.00  0.00    +0.031 C 
ENDROOT
BRANCH   1   8
ATOM      8  O   UNL     1       0.696   0.718   0.871  0.00  0.00    -0.475 OA
BRANCH   8   9
ATOM      9  C   UNL     1       1.476   1.407  -0.105  0.00  0.00    +0.206 C 
ATOM     10  C   UNL     1       2.938   1.060   0.098  0.00  0.00    +0.051 C 
ENDBRANCH   8   9
ENDBRANCH   1   8
TORSDOF 2
REMARK  Name = 5287517
REMARK  2 active torsions:
REMARK  status: ('A' for Active; 'I' for Inactive)
REMARK    1  A    between atoms: O_1  and  C_2
REMARK    2  A    between atoms: O_1  and  C_9
REMARK                            x       y       z     vdW  Elec       q    Type
REMARK                         _______ _______ _______ _____ _____    ______ ____
ROOT
ATOM      1  P   UNL     1       3.255  -0.714  -0.068  0.00  0.00    +0.295 P 
ATOM      2  O   UNL     1       2.750  -1.093  -1.452  0.00  0.00    -0.295 OA
ENDROOT
TORSDOF 0
REMARK  Name = 5287517
REMARK  2 active torsions:
REMARK  status: ('A' for Active; 'I' for Inactive)
REMARK    1  A    between atoms: O_1  and  C_2
REMARK    2  A    between atoms: O_1  and  C_9
REMARK                            x       y       z     vdW  Elec       q    Type
REMARK                         _______ _______ _______ _____ _____    ______ ____
ROOT
ATOM      1  O   UNL     1       4.734  -0.896   0.241  0.00  0.00    -0.253 OA
ATOM      2  H   UNL     1       4.454  -1.155  -0.588  0.00  0.00    +0.253 HD
ENDROOT
TORSDOF 0
