REMARK  Name = 6918710
REMARK  2 active torsions:
REMARK  status: ('A' for Active; 'I' for Inactive)
REMARK    1  A    between atoms: N_1  and  C_18
REMARK    2  A    between atoms: C_5  and  C_12
REMARK                            x       y       z     vdW  Elec       q    Type
REMARK                         _______ _______ _______ _____ _____    ______ ____
ROOT
ATOM      1  N   UNL     1       3.359   0.334  -0.264  0.00  0.00    -0.270 N 
ATOM      2  N   UNL     1       1.134  -0.407  -0.195  0.00  0.00    -0.338 NA
ATOM      3  N   UNL     1       2.953  -1.902   0.321  0.00  0.00    -0.170 NA
ATOM      4  C   UNL     1       2.437  -0.710  -0.035  0.00  0.00    +0.145 C 
ATOM      5  C   UNL     1       0.278  -1.427   0.032  0.00  0.00    +0.148 C 
ATOM      6  C   UNL     1       0.682  -2.695   0.401  0.00  0.00    +0.055 C 
ATOM      7  C   UNL     1       2.044  -2.876   0.532  0.00  0.00    +0.114 C 
ATOM      8  H   UNL     1       4.319   0.146  -0.154  0.00  0.00    +0.159 HD
ENDROOT
BRANCH   5  12
ATOM      9  N   UNL     1      -3.030  -0.039  -0.192  0.00  0.00    -0.110 N 
ATOM     10  N   UNL     1      -3.351  -1.296  -0.569  0.00  0.00    -0.155 NA
ATOM     11  N   UNL     1      -3.989   0.926  -0.113  0.00  0.00    -0.156 NA
ATOM     12  C   UNL     1      -1.112  -1.126  -0.134  0.00  0.00    +0.068 C 
ATOM     13  C   UNL     1      -1.684   0.104   0.080  0.00  0.00    +0.098 C 
ATOM     14  C   UNL     1      -2.184  -1.945  -0.531  0.00  0.00    +0.124 C 
ATOM     15  C   UNL     1      -1.227   1.377   0.485  0.00  0.00    +0.020 C 
ATOM     16  C   UNL     1      -2.104   2.383   0.589  0.00  0.00    +0.024 C 
ATOM     17  C   UNL     1      -3.519   2.075   0.263  0.00  0.00    +0.120 C 
ENDBRANCH   5  12
BRANCH   1  18
ATOM     18  C   UNL     1       2.959   1.651  -0.648  0.00  0.00    +0.079 C 
ATOM     19  C   UNL     1       2.533   2.700   0.363  0.00  0.00    +0.022 C 
ATOM     20  C   UNL     1       3.822   2.873  -0.386  0.00  0.00    +0.022 C 
ENDBRANCH   1  18
TORSDOF 2
