REMARK  Name = 25023710
REMARK  4 active torsions:
REMARK  status: ('A' for Active; 'I' for Inactive)
REMARK    1  A    between atoms: N_4  and  C_15
REMARK    2  A    between atoms: C_5  and  C_10
REMARK    3  A    between atoms: C_10  and  O_13
REMARK    4  A    between atoms: C_15  and  C_18
REMARK                            x       y       z     vdW  Elec       q    Type
REMARK                         _______ _______ _______ _____ _____    ______ ____
ROOT
ATOM      1  S   UNL     1       1.851  -0.492   1.465  0.00  0.00    -0.049 S 
ATOM      2  O   UNL     1       2.287   1.396  -1.848  0.00  0.00    -0.213 OA
ATOM      3  N   UNL     1       0.789  -0.042  -0.860  0.00  0.00    -0.314 NA
ATOM      4  N   UNL     1      -0.431  -1.512   0.560  0.00  0.00    -0.301 N 
ATOM      5  C   UNL     1       2.788   0.633   0.383  0.00  0.00    +0.172 C 
ATOM      6  C   UNL     1       2.896   2.007   1.035  0.00  0.00    +0.032 C 
ATOM      7  C   UNL     1       1.946   0.711  -0.887  0.00  0.00    +0.192 C 
ATOM      8  C   UNL     1       0.612  -0.692   0.245  0.00  0.00    +0.221 C 
ATOM      9  H   UNL     1      -0.442  -1.947   1.443  0.00  0.00    +0.150 HD
ENDROOT
BRANCH   5  10
ATOM     10  C   UNL     1       4.157   0.035   0.077  0.00  0.00    +0.112 C 
ATOM     11  C   UNL     1       5.040   0.020   1.325  0.00  0.00    +0.031 C 
ATOM     12  C   UNL     1       4.016  -1.375  -0.496  0.00  0.00    +0.031 C 
BRANCH  10  13
ATOM     13  O   UNL     1       4.795   0.839  -0.918  0.00  0.00    -0.385 OA
ATOM     14  H   UNL     1       4.899   1.744  -0.585  0.00  0.00    +0.210 HD
ENDBRANCH  10  13
ENDBRANCH   5  10
BRANCH   4  15
ATOM     15  C   UNL     1      -1.514  -1.764  -0.346  0.00  0.00    +0.094 C 
ATOM     16  C   UNL     1      -2.011  -3.195  -0.158  0.00  0.00    +0.026 C 
BRANCH  15  18
ATOM     17  F   UNL     1      -5.575   2.091   0.349  0.00  0.00    -0.204 F 
ATOM     18  C   UNL     1      -2.604  -0.730  -0.160  0.00  0.00    -0.004 C 
ATOM     19  C   UNL     1      -3.368  -0.317  -1.251  0.00  0.00    -0.000 C 
ATOM     20  C   UNL     1      -2.844  -0.190   1.104  0.00  0.00    -0.000 C 
ATOM     21  C   UNL     1      -4.371   0.636  -1.079  0.00  0.00    +0.029 C 
ATOM     22  C   UNL     1      -3.847   0.763   1.276  0.00  0.00    +0.029 C 
ATOM     23  C   UNL     1      -4.611   1.176   0.184  0.00  0.00    +0.140 C 
ENDBRANCH  15  18
ENDBRANCH   4  15
TORSDOF 4
