REMARK  Name = 5287523
REMARK  5 active torsions:
REMARK  status: ('A' for Active; 'I' for Inactive)
REMARK    1  A    between atoms: N_4  and  C_14
REMARK    2  A    between atoms: C_6  and  N_21
REMARK    3  A    between atoms: N_21  and  C_23
REMARK    4  A    between atoms: C_23  and  C_24
REMARK    5  A    between atoms: C_24  and  C_25
REMARK                            x       y       z     vdW  Elec       q    Type
REMARK                         _______ _______ _______ _____ _____    ______ ____
ROOT
ATOM      1  N   UNL     1       1.399  -0.888  -0.026  0.00  0.00    -0.088 N 
ATOM      2  N   UNL     1       0.115  -0.450  -0.095  0.00  0.00    -0.082 NA
ATOM      3  N   UNL     1       2.564  -2.964   0.309  0.00  0.00    -0.330 NA
ATOM      4  N   UNL     1      -1.933  -1.667   0.107  0.00  0.00    -0.246 N 
ATOM      5  N   UNL     1       0.154  -2.697   0.271  0.00  0.00    -0.255 NA
ATOM      6  C   UNL     1       2.586  -0.154  -0.148  0.00  0.00    +0.136 C 
ATOM      7  C   UNL     1       1.398  -2.268   0.198  0.00  0.00    +0.238 C 
ATOM      8  C   UNL     1       3.753  -0.811  -0.044  0.00  0.00    +0.061 C 
ATOM      9  C   UNL     1       3.666  -2.283   0.196  0.00  0.00    +0.126 C 
ATOM     10  C   UNL     1      -0.579  -1.569   0.088  0.00  0.00    +0.177 C 
ATOM     11  C   UNL     1       4.969  -3.034   0.316  0.00  0.00    +0.068 C 
ATOM     12  H   UNL     1      -2.264  -2.593   0.167  0.00  0.00    +0.165 HD
ENDROOT
BRANCH   4  14
ATOM     13 CL   UNL     1      -3.351   3.179   0.962  0.00  0.00    -0.082 Cl
ATOM     14  C   UNL     1      -2.966  -0.689   0.056  0.00  0.00    +0.054 C 
ATOM     15  C   UNL     1      -4.229  -1.026  -0.412  0.00  0.00    -0.008 C 
ATOM     16  C   UNL     1      -2.686   0.603   0.481  0.00  0.00    +0.026 C 
ATOM     17  C   UNL     1      -5.230  -0.055  -0.456  0.00  0.00    -0.002 C 
ATOM     18  C   UNL     1      -4.548  -2.411  -0.875  0.00  0.00    +0.032 C 
ATOM     19  C   UNL     1      -3.686   1.575   0.438  0.00  0.00    +0.059 C 
ATOM     20  C   UNL     1      -4.958   1.246  -0.031  0.00  0.00    +0.011 C 
ENDBRANCH   4  14
BRANCH   6  21
ATOM     21  N   UNL     1       2.481   1.189  -0.367  0.00  0.00    -0.319 N 
ATOM     22  H   UNL     1       1.580   1.583  -0.429  0.00  0.00    +0.148 HD
BRANCH  21  23
ATOM     23  C   UNL     1       3.618   2.059  -0.511  0.00  0.00    +0.088 C 
BRANCH  23  24
ATOM     24  C   UNL     1       3.172   3.489  -0.807  0.00  0.00    +0.021 C 
BRANCH  24  25
ATOM     25  C   UNL     1       2.333   4.091   0.323  0.00  0.00    +0.002 C 
ATOM     26  C   UNL     1       1.959   5.535   0.028  0.00  0.00    +0.000 C 
ENDBRANCH  24  25
ENDBRANCH  23  24
ENDBRANCH  21  23
ENDBRANCH   6  21
TORSDOF 5
