REMARK  Name = 25163987
REMARK  9 active torsions:
REMARK  status: ('A' for Active; 'I' for Inactive)
REMARK    1  A    between atoms: C_3  and  N_21
REMARK    2  A    between atoms: C_4  and  C_11
REMARK    3  A    between atoms: N_10  and  O_13
REMARK    4  A    between atoms: O_13  and  C_14
REMARK    5  A    between atoms: C_14  and  C_15
REMARK    6  A    between atoms: C_15  and  O_16
REMARK    7  A    between atoms: C_15  and  C_18
REMARK    8  A    between atoms: C_18  and  O_19
REMARK    9  A    between atoms: N_21  and  C_25
REMARK                            x       y       z     vdW  Elec       q    Type
REMARK                         _______ _______ _______ _____ _____    ______ ____
ROOT
ATOM      1  F   UNL     1      -3.551  -0.094   0.153  0.00  0.00    -0.200 F 
ATOM      2  F   UNL     1      -4.779  -2.431  -0.521  0.00  0.00    -0.202 F 
ATOM      3  C   UNL     1      -1.441  -1.185   0.219  0.00  0.00    +0.083 C 
ATOM      4  C   UNL     1      -0.694  -2.354   0.075  0.00  0.00    +0.071 C 
ATOM      5  C   UNL     1      -2.821  -1.211   0.018  0.00  0.00    +0.181 C 
ATOM      6  C   UNL     1      -1.326  -3.549  -0.270  0.00  0.00    +0.008 C 
ATOM      7  C   UNL     1      -3.454  -2.406  -0.328  0.00  0.00    +0.169 C 
ATOM      8  C   UNL     1      -2.706  -3.574  -0.472  0.00  0.00    +0.032 C 
ENDROOT
BRANCH   4  11
ATOM      9  O   UNL     1       1.264  -3.092   1.142  0.00  0.00    -0.268 OA
ATOM     10  N   UNL     1       1.503  -1.538  -0.545  0.00  0.00    -0.190 N 
ATOM     11  C   UNL     1       0.778  -2.362   0.282  0.00  0.00    +0.269 C 
ATOM     12  H   UNL     1       1.081  -0.974  -1.233  0.00  0.00    +0.183 HD
BRANCH  10  13
ATOM     13  O   UNL     1       2.894  -1.560  -0.332  0.00  0.00    -0.263 OA
BRANCH  13  14
ATOM     14  C   UNL     1       3.419  -0.281  -0.675  0.00  0.00    +0.203 C 
BRANCH  14  15
ATOM     15  C   UNL     1       4.928  -0.267  -0.458  0.00  0.00    +0.172 C 
BRANCH  15  16
ATOM     16  O   UNL     1       5.194  -0.512   0.925  0.00  0.00    -0.379 OA
ATOM     17  H   UNL     1       4.820  -1.370   1.179  0.00  0.00    +0.211 HD
ENDBRANCH  15  16
BRANCH  15  18
ATOM     18  C   UNL     1       5.530   1.085  -0.819  0.00  0.00    +0.169 C 
BRANCH  18  19
ATOM     19  O   UNL     1       6.931   1.048  -0.570  0.00  0.00    -0.379 OA
ATOM     20  H   UNL     1       7.323   1.906  -0.798  0.00  0.00    +0.211 HD
ENDBRANCH  18  19
ENDBRANCH  15  18
ENDBRANCH  14  15
ENDBRANCH  13  14
ENDBRANCH  10  13
ENDBRANCH   4  11
BRANCH   3  21
ATOM     21  N   UNL     1      -0.818   0.033   0.568  0.00  0.00    -0.310 N 
ATOM     22  H   UNL     1      -0.013  -0.078   1.123  0.00  0.00    +0.152 HD
BRANCH  21  25
ATOM     23  I   UNL     1      -2.225   5.987  -0.826  0.00  0.00    -0.042 I 
ATOM     24 CL   UNL     1       0.008   2.080   2.659  0.00  0.00    -0.081 Cl
ATOM     25  C   UNL     1      -1.124   1.376   0.278  0.00  0.00    +0.059 C 
ATOM     26  C   UNL     1      -0.792   2.402   1.163  0.00  0.00    +0.071 C 
ATOM     27  C   UNL     1      -1.770   1.671  -0.922  0.00  0.00    +0.016 C 
ATOM     28  C   UNL     1      -1.108   3.724   0.847  0.00  0.00    +0.018 C 
ATOM     29  C   UNL     1      -2.086   2.992  -1.238  0.00  0.00    +0.007 C 
ATOM     30  C   UNL     1      -1.755   4.018  -0.354  0.00  0.00    +0.031 C 
ENDBRANCH  21  25
ENDBRANCH   3  21
TORSDOF 9
