REMARK  Name = 11213558
REMARK  4 active torsions:
REMARK  status: ('A' for Active; 'I' for Inactive)
REMARK    1  A    between atoms: N_7  and  C_26
REMARK    2  A    between atoms: C_29  and  O_32
REMARK    3  A    between atoms: C_30  and  O_34
REMARK    4  A    between atoms: C_31  and  O_36
REMARK                            x       y       z     vdW  Elec       q    Type
REMARK                         _______ _______ _______ _____ _____    ______ ____
ROOT
ATOM      1  F   UNL     1       5.913  -0.848  -0.181  0.00  0.00    -0.198 F 
ATOM      2  O   UNL     1      -1.589  -4.211  -0.216  0.00  0.00    -0.470 OA
ATOM      3  O   UNL     1      -3.735  -1.328   0.232  0.00  0.00    -0.271 OA
ATOM      4  N   UNL     1      -1.448  -1.433   0.213  0.00  0.00    -0.254 N 
ATOM      5  N   UNL     1       0.909  -1.553   0.130  0.00  0.00    -0.373 NA
ATOM      6  N   UNL     1       3.286  -1.675   0.018  0.00  0.00    -0.264 N 
ATOM      7  N   UNL     1       1.988   2.837   0.557  0.00  0.00    -0.247 N 
ATOM      8  N   UNL     1       2.613   0.591   0.290  0.00  0.00    -0.320 NA
ATOM      9  N   UNL     1       4.265   2.345   0.275  0.00  0.00    -0.167 NA
ATOM     10  C   UNL     1      -2.707  -3.530   0.349  0.00  0.00    +0.201 C 
ATOM     11  C   UNL     1      -2.702  -1.998   0.230  0.00  0.00    +0.264 C 
ATOM     12  C   UNL     1      -2.792  -3.898   1.839  0.00  0.00    +0.053 C 
ATOM     13  C   UNL     1      -3.943  -4.082  -0.372  0.00  0.00    +0.053 C 
ATOM     14  C   UNL     1      -0.397  -3.559  -0.128  0.00  0.00    +0.179 C 
ATOM     15  C   UNL     1      -0.282  -2.195   0.087  0.00  0.00    +0.221 C 
ATOM     16  C   UNL     1       0.764  -4.303  -0.315  0.00  0.00    +0.024 C 
ATOM     17  C   UNL     1       2.019  -2.307  -0.040  0.00  0.00    +0.169 C 
ATOM     18  C   UNL     1       2.001  -3.672  -0.265  0.00  0.00    +0.104 C 
ATOM     19  C   UNL     1       3.598  -0.350   0.103  0.00  0.00    +0.227 C 
ATOM     20  C   UNL     1       3.005   1.877   0.364  0.00  0.00    +0.150 C 
ATOM     21  C   UNL     1       4.940   0.051   0.000  0.00  0.00    +0.205 C 
ATOM     22  C   UNL     1       5.212   1.401   0.092  0.00  0.00    +0.145 C 
ATOM     23  H   UNL     1      -1.368  -0.455   0.292  0.00  0.00    +0.157 HD
ATOM     24  H   UNL     1       4.058  -2.285  -0.007  0.00  0.00    +0.157 HD
ATOM     25  H   UNL     1       2.274   3.691   0.954  0.00  0.00    +0.165 HD
ENDROOT
BRANCH   7  26
ATOM     26  C   UNL     1       0.639   2.732   0.258  0.00  0.00    +0.064 C 
ATOM     27  C   UNL     1       0.205   2.050  -0.893  0.00  0.00    +0.055 C 
ATOM     28  C   UNL     1      -0.333   3.305   1.099  0.00  0.00    +0.055 C 
ATOM     29  C   UNL     1      -1.691   3.200   0.798  0.00  0.00    +0.177 C 
ATOM     30  C   UNL     1      -1.153   1.944  -1.194  0.00  0.00    +0.177 C 
ATOM     31  C   UNL     1      -2.101   2.520  -0.348  0.00  0.00    +0.206 C 
BRANCH  29  32
ATOM     32  O   UNL     1      -2.607   3.767   1.633  0.00  0.00    -0.468 OA
ATOM     33  C   UNL     1      -3.106   2.955   2.694  0.00  0.00    +0.253 C 
ENDBRANCH  29  32
BRANCH  30  34
ATOM     34  O   UNL     1      -1.540   1.277  -2.317  0.00  0.00    -0.468 OA
ATOM     35  C   UNL     1      -1.660   2.041  -3.516  0.00  0.00    +0.253 C 
ENDBRANCH  30  34
BRANCH  31  36
ATOM     36  O   UNL     1      -3.429   2.416  -0.641  0.00  0.00    -0.465 OA
ATOM     37  C   UNL     1      -4.146   3.633  -0.832  0.00  0.00    +0.253 C 
ENDBRANCH  31  36
ENDBRANCH   7  26
TORSDOF 4
