REMARK  Name = 447911
REMARK  7 active torsions:
REMARK  status: ('A' for Active; 'I' for Inactive)
REMARK    1  A    between atoms: C_1  and  C_14
REMARK    2  A    between atoms: C_4  and  N_7
REMARK    3  A    between atoms: N_7  and  C_9
REMARK    4  A    between atoms: C_9  and  C_13
REMARK    5  A    between atoms: C_14  and  C_18
REMARK    6  A    between atoms: C_14  and  C_22
REMARK    7  A    between atoms: C_14  and  O_23
REMARK                            x       y       z     vdW  Elec       q    Type
REMARK                         _______ _______ _______ _____ _____    ______ ____
ROOT
ATOM      1  C   UNL     1      -1.075   0.023   0.402  0.00  0.00    +0.018 C 
ATOM      2  C   UNL     1      -0.345  -0.097  -0.780  0.00  0.00    -0.000 C 
ATOM      3  C   UNL     1      -0.411   0.148   1.623  0.00  0.00    -0.000 C 
ATOM      4  C   UNL     1       1.714   0.032   0.478  0.00  0.00    +0.045 C 
ATOM      5  C   UNL     1       1.049  -0.092  -0.742  0.00  0.00    +0.014 C 
ATOM      6  C   UNL     1       0.984   0.152   1.660  0.00  0.00    +0.014 C 
ENDROOT
BRANCH   4   7
ATOM      7  N   UNL     1       3.124   0.036   0.516  0.00  0.00    -0.326 N 
ATOM      8  H   UNL     1       3.571   0.125   1.388  0.00  0.00    +0.147 HD
BRANCH   7   9
ATOM      9  C   UNL     1       3.933  -0.083  -0.657  0.00  0.00    +0.192 C 
BRANCH   9  13
ATOM     10  F   UNL     1       6.166  -0.116  -1.393  0.00  0.00    -0.168 F 
ATOM     11  F   UNL     1       5.699   1.148   0.321  0.00  0.00    -0.168 F 
ATOM     12  F   UNL     1       5.740  -1.027   0.541  0.00  0.00    -0.168 F 
ATOM     13  C   UNL     1       5.394  -0.018  -0.288  0.00  0.00    +0.415 C 
ENDBRANCH   9  13
ENDBRANCH   7   9
ENDBRANCH   4   7
BRANCH   1  14
ATOM     14  C   UNL     1      -2.566   0.020   0.362  0.00  0.00    +0.283 C 
BRANCH  14  18
ATOM     15  F   UNL     1      -2.764  -2.353   0.492  0.00  0.00    -0.167 F 
ATOM     16  F   UNL     1      -2.730  -1.479  -1.507  0.00  0.00    -0.167 F 
ATOM     17  F   UNL     1      -4.500  -1.274  -0.261  0.00  0.00    -0.167 F 
ATOM     18  C   UNL     1      -3.146  -1.280  -0.238  0.00  0.00    +0.431 C 
ENDBRANCH  14  18
BRANCH  14  22
ATOM     19  F   UNL     1      -2.715   1.282  -1.655  0.00  0.00    -0.167 F 
ATOM     20  F   UNL     1      -2.780   2.414   0.205  0.00  0.00    -0.167 F 
ATOM     21  F   UNL     1      -4.498   1.226  -0.400  0.00  0.00    -0.167 F 
ATOM     22  C   UNL     1      -3.148   1.247  -0.375  0.00  0.00    +0.431 C 
ENDBRANCH  14  22
BRANCH  14  23
ATOM     23  O   UNL     1      -3.125   0.092   1.697  0.00  0.00    -0.369 OA
ATOM     24  H   UNL     1      -2.801  -0.655   2.224  0.00  0.00    +0.211 HD
ENDBRANCH  14  23
ENDBRANCH   1  14
TORSDOF 7
