REMARK  Name = 23627203
REMARK  8 active torsions:
REMARK  status: ('A' for Active; 'I' for Inactive)
REMARK    1  A    between atoms: C_1  and  S_7
REMARK    2  A    between atoms: C_6  and  O_15
REMARK    3  A    between atoms: S_7  and  C_10
REMARK    4  A    between atoms: C_10  and  C_11
REMARK    5  A    between atoms: C_11  and  C_12
REMARK    6  A    between atoms: C_12  and  S_13
REMARK    7  A    between atoms: O_15  and  C_16
REMARK    8  A    between atoms: C_16  and  C_17
REMARK                            x       y       z     vdW  Elec       q    Type
REMARK                         _______ _______ _______ _____ _____    ______ ____
ROOT
ATOM      1  C   UNL     1       1.013  -0.953  -0.048  0.00  0.00    +0.106 C 
ATOM      2  C   UNL     1       0.307  -0.622  -1.205  0.00  0.00    +0.021 C 
ATOM      3  C   UNL     1       0.327  -1.196   1.142  0.00  0.00    +0.021 C 
ATOM      4  C   UNL     1      -1.085  -0.536  -1.172  0.00  0.00    +0.038 C 
ATOM      5  C   UNL     1      -1.065  -1.110   1.174  0.00  0.00    +0.038 C 
ATOM      6  C   UNL     1      -1.771  -0.779   0.017  0.00  0.00    +0.140 C 
ENDROOT
BRANCH   1   7
ATOM      7  S   UNL     1       2.777  -1.063  -0.090  0.00  0.00    +0.009 S 
ATOM      8  O   UNL     1       3.171  -1.956   0.985  0.00  0.00    -0.169 OA
ATOM      9  O   UNL     1       3.176  -1.342  -1.458  0.00  0.00    -0.169 OA
BRANCH   7  10
ATOM     10  C   UNL     1       3.315   0.572   0.306  0.00  0.00    +0.157 C 
BRANCH  10  11
ATOM     11  C   UNL     1       4.836   0.664   0.316  0.00  0.00    +0.037 C 
BRANCH  11  12
ATOM     12  C   UNL     1       5.368   2.049   0.677  0.00  0.00    +0.055 C 
BRANCH  12  13
ATOM     13  S   UNL     1       4.832   3.344  -0.478  0.00  0.00    -0.168 S 
ATOM     14  H   UNL     1       5.345   4.542  -0.088  0.00  0.00    +0.102 HD
ENDBRANCH  12  13
ENDBRANCH  11  12
ENDBRANCH  10  11
ENDBRANCH   7  10
ENDBRANCH   1   7
BRANCH   6  15
ATOM     15  O   UNL     1      -3.129  -0.696   0.049  0.00  0.00    -0.461 OA
BRANCH  15  16
ATOM     16  C   UNL     1      -3.744   0.221  -0.855  0.00  0.00    +0.281 C 
BRANCH  16  17
ATOM     17  C   UNL     1      -5.001   0.706  -0.286  0.00  0.00    -0.044 C 
ATOM     18  C   UNL     1      -6.034   1.105   0.180  0.00  0.00    -0.086 C 
ATOM     19  C   UNL     1      -7.291   1.591   0.747  0.00  0.00    +0.090 C 
ENDBRANCH  16  17
ENDBRANCH  15  16
ENDBRANCH   6  15
TORSDOF 8
