REMARK  Name = 24180718
REMARK  7 active torsions:
REMARK  status: ('A' for Active; 'I' for Inactive)
REMARK    1  A    between atoms: N_1  and  CA_22
REMARK    2  A    between atoms: C_6  and  C_12
REMARK    3  A    between atoms: C_17  and  C_19
REMARK    4  A    between atoms: C_19  and  O_20
REMARK    5  A    between atoms: CA_22  and  C_23
REMARK    6  A    between atoms: CA_22  and  C_25
REMARK    7  A    between atoms: C_25  and  O_26
REMARK                            x       y       z     vdW  Elec       q    Type
REMARK                         _______ _______ _______ _____ _____    ______ ____
ROOT
ATOM      1  N   UNL     1       3.172  -1.078   0.176  0.00  0.00    -0.316 N 
ATOM      2  N   UNL     1       0.966   1.636  -0.015  0.00  0.00    -0.170 N 
ATOM      3  N   UNL     1       1.370   0.340   0.062  0.00  0.00    -0.158 NA
ATOM      4  N   UNL     1       1.042   3.860  -0.130  0.00  0.00    -0.226 NA
ATOM      5  C   UNL     1       2.670   0.165   0.099  0.00  0.00    +0.147 C 
ATOM      6  C   UNL     1      -0.335   2.064  -0.065  0.00  0.00    +0.095 C 
ATOM      7  C   UNL     1       1.765   2.761  -0.057  0.00  0.00    +0.155 C 
ATOM      8  C   UNL     1       3.640   1.312   0.059  0.00  0.00    +0.039 C 
ATOM      9  C   UNL     1       3.159   2.558  -0.017  0.00  0.00    +0.039 C 
ATOM     10  C   UNL     1      -0.261   3.434  -0.136  0.00  0.00    +0.117 C 
ATOM     11  H   UNL     1       4.150  -1.189   0.218  0.00  0.00    +0.148 HD
ENDROOT
BRANCH   6  12
ATOM     12  C   UNL     1      -1.481   1.187  -0.045  0.00  0.00    +0.017 C 
ATOM     13  C   UNL     1      -2.425   1.297   0.976  0.00  0.00    +0.002 C 
ATOM     14  C   UNL     1      -1.644   0.230  -1.046  0.00  0.00    +0.002 C 
ATOM     15  C   UNL     1      -3.533   0.450   0.996  0.00  0.00    +0.006 C 
ATOM     16  C   UNL     1      -2.752  -0.618  -1.026  0.00  0.00    +0.006 C 
ATOM     17  C   UNL     1      -3.696  -0.508  -0.005  0.00  0.00    +0.075 C 
BRANCH  17  19
ATOM     18  O   UNL     1      -5.093  -2.272  -0.818  0.00  0.00    -0.245 OA
ATOM     19  C   UNL     1      -4.850  -1.392   0.015  0.00  0.00    +0.338 C 
BRANCH  19  20
ATOM     20  O   UNL     1      -5.670  -1.155   1.075  0.00  0.00    -0.477 OA
ATOM     21  H   UNL     1      -5.458  -0.479   1.689  0.00  0.00    +0.295 HD
ENDBRANCH  19  20
ENDBRANCH  17  19
ENDBRANCH   6  12
BRANCH   1  22
ATOM     22  CA  UNL     1       2.337  -2.263   0.199  0.00  0.00    +0.100 C 
BRANCH  22  23
ATOM     23  C   UNL     1       3.125  -3.444   0.779  0.00  0.00    +0.022 C 
ATOM     24  C   UNL     1       3.608  -3.188   2.201  0.00  0.00    +0.002 C 
ENDBRANCH  22  23
BRANCH  22  25
ATOM     25  C   UNL     1       1.874  -2.566  -1.226  0.00  0.00    +0.157 C 
BRANCH  25  26
ATOM     26  O   UNL     1       3.009  -2.808  -2.050  0.00  0.00    -0.380 OA
ATOM     27  H   UNL     1       2.716  -3.000  -2.955  0.00  0.00    +0.211 HD
ENDBRANCH  25  26
ENDBRANCH  22  25
ENDBRANCH   1  22
TORSDOF 7
