REMARK  Name = 9969613
REMARK  5 active torsions:
REMARK  status: ('A' for Active; 'I' for Inactive)
REMARK    1  A    between atoms: C_3  and  O_7
REMARK    2  A    between atoms: C_4  and  O_17
REMARK    3  A    between atoms: O_7  and  C_13
REMARK    4  A    between atoms: O_17  and  C_21
REMARK    5  A    between atoms: C_18  and  N_24
REMARK                            x       y       z     vdW  Elec       q    Type
REMARK                         _______ _______ _______ _____ _____    ______ ____
ROOT
ATOM      1  N   UNL     1       2.586  -0.318  -0.008  0.00  0.00    -0.283 NA
ATOM      2  N   UNL     1       4.426  -1.854   0.248  0.00  0.00    -0.151 NA
ATOM      3  C   UNL     1       3.490   0.671  -0.094  0.00  0.00    +0.296 C 
ATOM      4  C   UNL     1       3.118  -1.544   0.161  0.00  0.00    +0.260 C 
ATOM      5  C   UNL     1       4.850   0.500  -0.022  0.00  0.00    +0.094 C 
ATOM      6  C   UNL     1       5.268  -0.803   0.152  0.00  0.00    +0.119 C 
ENDROOT
BRANCH   3   7
ATOM      7  O   UNL     1       2.990   1.951  -0.268  0.00  0.00    -0.427 OA
BRANCH   7  13
ATOM      8  O   UNL     1      -1.337   2.682   1.731  0.00  0.00    -0.435 OA
ATOM      9  O   UNL     1      -2.441   2.558  -0.407  0.00  0.00    -0.435 OA
ATOM     10  C   UNL     1      -0.464   2.462   0.711  0.00  0.00    +0.179 C 
ATOM     11  C   UNL     1      -1.094   2.392  -0.511  0.00  0.00    +0.177 C 
ATOM     12  C   UNL     1       0.903   2.319   0.831  0.00  0.00    +0.078 C 
ATOM     13  C   UNL     1       1.638   2.098  -0.337  0.00  0.00    +0.151 C 
ATOM     14  C   UNL     1      -0.392   2.174  -1.679  0.00  0.00    +0.043 C 
ATOM     15  C   UNL     1      -2.587   2.742   1.016  0.00  0.00    +0.429 C 
ATOM     16  C   UNL     1       0.994   2.025  -1.584  0.00  0.00    +0.041 C 
ENDBRANCH   7  13
ENDBRANCH   3   7
BRANCH   4  17
ATOM     17  O   UNL     1       2.231  -2.591   0.254  0.00  0.00    -0.383 OA
BRANCH  17  21
ATOM     18  C   UNL     1      -1.810  -1.678  -0.009  0.00  0.00    +0.057 C 
ATOM     19  C   UNL     1      -1.086  -1.977  -1.163  0.00  0.00    +0.018 C 
ATOM     20  C   UNL     1      -1.176  -1.686   1.234  0.00  0.00    +0.018 C 
ATOM     21  C   UNL     1       0.889  -2.288   0.167  0.00  0.00    +0.160 C 
ATOM     22  C   UNL     1       0.272  -2.284  -1.074  0.00  0.00    +0.040 C 
ATOM     23  C   UNL     1       0.182  -1.993   1.322  0.00  0.00    +0.040 C 
BRANCH  18  24
ATOM     24  N   UNL     1      -3.156  -1.374  -0.096  0.00  0.00    -0.246 N 
ATOM     25  N   UNL     1      -5.218  -0.817   0.541  0.00  0.00    -0.224 NA
ATOM     26  C   UNL     1      -3.911  -1.326  -1.240  0.00  0.00    +0.092 C 
ATOM     27  C   UNL     1      -3.991  -1.059   0.946  0.00  0.00    +0.172 C 
ATOM     28  C   UNL     1      -5.175  -0.982  -0.821  0.00  0.00    +0.117 C 
ENDBRANCH  18  24
ENDBRANCH  17  21
ENDBRANCH   4  17
TORSDOF 5
