REMARK  Name = 25011733
REMARK  7 active torsions:
REMARK  status: ('A' for Active; 'I' for Inactive)
REMARK    1  A    between atoms: C_3  and  C_10
REMARK    2  A    between atoms: C_7  and  C_20
REMARK    3  A    between atoms: N_9  and  C_12
REMARK    4  A    between atoms: C_12  and  C_14
REMARK    5  A    between atoms: C_20  and  N_21
REMARK    6  A    between atoms: C_20  and  C_25
REMARK    7  A    between atoms: C_25  and  C_26
REMARK                            x       y       z     vdW  Elec       q    Type
REMARK                         _______ _______ _______ _____ _____    ______ ____
ROOT
ATOM      1  O   UNL     1      -1.514  -1.608  -1.501  0.00  0.00    -0.277 OA
ATOM      2  N   UNL     1      -1.061  -0.283   0.342  0.00  0.00    -0.275 N 
ATOM      3  C   UNL     1       0.011   0.491  -0.270  0.00  0.00    +0.152 C 
ATOM      4  C   UNL     1       0.207   1.683   0.660  0.00  0.00    +0.031 C 
ATOM      5  C   UNL     1      -0.208   1.140   2.025  0.00  0.00    +0.024 C 
ATOM      6  C   UNL     1      -1.350   0.192   1.692  0.00  0.00    +0.094 C 
ATOM      7  C   UNL     1      -1.789  -1.231  -0.361  0.00  0.00    +0.206 C 
ENDROOT
BRANCH   3  10
ATOM      8  O   UNL     1       1.420  -1.262   0.531  0.00  0.00    -0.273 OA
ATOM      9  N   UNL     1       2.063  -0.076  -1.366  0.00  0.00    -0.299 N 
ATOM     10  C   UNL     1       1.224  -0.388  -0.310  0.00  0.00    +0.241 C 
ATOM     11  H   UNL     1       1.797   0.648  -1.978  0.00  0.00    +0.150 HD
BRANCH   9  12
ATOM     12  C   UNL     1       3.311  -0.761  -1.614  0.00  0.00    +0.116 C 
BRANCH  12  14
ATOM     13  F   UNL     1       6.583  -0.636   2.001  0.00  0.00    -0.204 F 
ATOM     14  C   UNL     1       4.462  -0.106  -0.908  0.00  0.00    -0.000 C 
ATOM     15  C   UNL     1       4.999  -0.687   0.241  0.00  0.00    +0.027 C 
ATOM     16  C   UNL     1       4.995   1.085  -1.401  0.00  0.00    -0.002 C 
ATOM     17  C   UNL     1       6.068  -0.077   0.897  0.00  0.00    +0.140 C 
ATOM     18  C   UNL     1       6.065   1.695  -0.744  0.00  0.00    +0.002 C 
ATOM     19  C   UNL     1       6.601   1.114   0.404  0.00  0.00    +0.030 C 
ENDBRANCH  12  14
ENDBRANCH   9  12
ENDBRANCH   3  10
BRANCH   7  20
ATOM     20  C   UNL     1      -2.974  -1.811   0.369  0.00  0.00    +0.018 C 
BRANCH  20  21
ATOM     21  N   UNL     1      -2.668  -3.226   0.536  0.00  0.00    +0.388 N 
ATOM     22  H   UNL     1      -1.804  -3.326   1.069  0.00  0.00    -0.089 HD
ATOM     23  H   UNL     1      -2.553  -3.660  -0.381  0.00  0.00    -0.089 HD
ATOM     24  H   UNL     1      -3.431  -3.683   1.035  0.00  0.00    -0.089 HD
ENDBRANCH  20  21
BRANCH  20  25
ATOM     25  C   UNL     1      -4.264  -1.613  -0.427  0.00  0.00    +0.013 C 
BRANCH  25  26
ATOM     26  C   UNL     1      -4.835  -0.223  -0.274  0.00  0.00    -0.024 C 
ATOM     27  C   UNL     1      -5.745   0.049   0.749  0.00  0.00    -0.004 C 
ATOM     28  C   UNL     1      -4.455   0.789  -1.155  0.00  0.00    -0.004 C 
ATOM     29  C   UNL     1      -6.273   1.332   0.890  0.00  0.00    -0.000 C 
ATOM     30  C   UNL     1      -4.983   2.073  -1.013  0.00  0.00    -0.000 C 
ATOM     31  C   UNL     1      -5.892   2.344   0.009  0.00  0.00    -0.000 C 
ENDBRANCH  25  26
ENDBRANCH  20  25
ENDBRANCH   7  20
TORSDOF 7
