REMARK  Name = 447734
REMARK  5 active torsions:
REMARK  status: ('A' for Active; 'I' for Inactive)
REMARK    1  A    between atoms: C_3  and  C_19
REMARK    2  A    between atoms: C_9  and  C_13
REMARK    3  A    between atoms: N_18  and  C_24
REMARK    4  A    between atoms: C_21  and  O_27
REMARK    5  A    between atoms: O_27  and  C_28
REMARK                            x       y       z     vdW  Elec       q    Type
REMARK                         _______ _______ _______ _____ _____    ______ ____
ROOT
ATOM      1  C   UNL     1       3.353   0.698   0.096  0.00  0.00    +0.000 C 
ATOM      2  C   UNL     1       3.995  -0.527  -0.203  0.00  0.00    +0.000 C 
ATOM      3  C   UNL     1       1.191  -0.373  -0.214  0.00  0.00    +0.054 C 
ATOM      4  C   UNL     1       1.950   0.758   0.086  0.00  0.00    +0.005 C 
ATOM      5  C   UNL     1       3.216  -1.656  -0.503  0.00  0.00    +0.000 C 
ATOM      6  C   UNL     1       1.823  -1.578  -0.508  0.00  0.00    +0.005 C 
ATOM      7  C   UNL     1       5.399  -0.587  -0.193  0.00  0.00    +0.003 C 
ATOM      8  C   UNL     1       4.133   1.827   0.396  0.00  0.00    +0.000 C 
ATOM      9  C   UNL     1       6.158   0.544   0.108  0.00  0.00    +0.031 C 
ATOM     10  C   UNL     1       5.526   1.749   0.402  0.00  0.00    +0.003 C 
ENDROOT
BRANCH   9  13
ATOM     11  N   UNL     1       8.395   1.578   0.409  0.00  0.00    -0.343 N 
ATOM     12  N   UNL     1       8.208  -0.678  -0.170  0.00  0.00    -0.285 NA
ATOM     13  C   UNL     1       7.610   0.465   0.114  0.00  0.00    +0.117 C 
ATOM     14  H   UNL     1       9.377   1.502   0.408  0.00  0.00    +0.144 HD
ATOM     15  H   UNL     1       7.968   2.440   0.620  0.00  0.00    +0.144 HD
ATOM     16  H   UNL     1       9.191  -0.734  -0.166  0.00  0.00    +0.188 HD
ENDBRANCH   9  13
BRANCH   3  19
ATOM     17  O   UNL     1      -0.805   0.791  -0.485  0.00  0.00    -0.270 OA
ATOM     18  N   UNL     1      -0.940  -1.489   0.055  0.00  0.00    -0.280 N 
ATOM     19  C   UNL     1      -0.261  -0.294  -0.221  0.00  0.00    +0.249 C 
ATOM     20  H   UNL     1      -0.372  -2.269   0.247  0.00  0.00    +0.155 HD
BRANCH  18  24
ATOM     21  C   UNL     1      -4.579  -0.898  -0.123  0.00  0.00    +0.140 C 
ATOM     22  C   UNL     1      -3.204  -0.671  -0.163  0.00  0.00    +0.052 C 
ATOM     23  C   UNL     1      -5.067  -2.171   0.173  0.00  0.00    +0.037 C 
ATOM     24  C   UNL     1      -2.337  -1.720   0.094  0.00  0.00    +0.054 C 
ATOM     25  C   UNL     1      -4.180  -3.216   0.430  0.00  0.00    +0.004 C 
ATOM     26  C   UNL     1      -2.805  -2.989   0.390  0.00  0.00    +0.015 C 
BRANCH  21  27
ATOM     27  O   UNL     1      -5.445   0.121  -0.373  0.00  0.00    -0.479 OA
BRANCH  27  28
ATOM     28  C   UNL     1      -5.379   1.252   0.487  0.00  0.00    +0.166 C 
ATOM     29  C   UNL     1      -6.744   1.490   1.115  0.00  0.00    +0.044 C 
ATOM     30  C   UNL     1      -5.147   2.519  -0.321  0.00  0.00    +0.044 C 
ATOM     31  C   UNL     1      -7.544   2.211   0.030  0.00  0.00    +0.004 C 
ATOM     32  C   UNL     1      -6.518   2.845  -0.909  0.00  0.00    +0.004 C 
ENDBRANCH  27  28
ENDBRANCH  21  27
ENDBRANCH  18  24
ENDBRANCH   3  19
TORSDOF 5
