REMARK  Name = 2266114
REMARK  3 active torsions:
REMARK  status: ('A' for Active; 'I' for Inactive)
REMARK    1  A    between atoms: N_2  and  C_7
REMARK    2  A    between atoms: C_4  and  C_15
REMARK    3  A    between atoms: N_14  and  C_17
REMARK                            x       y       z     vdW  Elec       q    Type
REMARK                         _______ _______ _______ _____ _____    ______ ____
ROOT
ATOM      1  O   UNL     1       2.013  -2.231  -1.899  0.00  0.00    -0.275 OA
ATOM      2  N   UNL     1       2.041  -0.773  -0.055  0.00  0.00    -0.281 N 
ATOM      3  C   UNL     1       1.261  -0.563   1.142  0.00  0.00    +0.103 C 
ATOM      4  C   UNL     1      -0.060  -1.249   0.839  0.00  0.00    +0.106 C 
ATOM      5  C   UNL     1       0.283  -2.310  -0.206  0.00  0.00    +0.096 C 
ATOM      6  C   UNL     1       1.539  -1.788  -0.863  0.00  0.00    +0.226 C 
ENDROOT
BRANCH   2   7
ATOM      7  C   UNL     1       3.281  -0.069  -0.277  0.00  0.00    +0.075 C 
ATOM      8  C   UNL     1       3.024   1.423  -0.503  0.00  0.00    +0.020 C 
ATOM      9  C   UNL     1       4.244  -0.298   0.891  0.00  0.00    +0.020 C 
ATOM     10  C   UNL     1       4.327   2.196  -0.686  0.00  0.00    +0.002 C 
ATOM     11  C   UNL     1       5.545   0.479   0.707  0.00  0.00    +0.002 C 
ATOM     12  C   UNL     1       5.287   1.965   0.478  0.00  0.00    +0.000 C 
ENDBRANCH   2   7
BRANCH   4  15
ATOM     13  O   UNL     1      -0.735   0.720  -0.307  0.00  0.00    -0.275 OA
ATOM     14  N   UNL     1      -2.369  -0.698   0.619  0.00  0.00    -0.284 N 
ATOM     15  C   UNL     1      -1.080  -0.284   0.309  0.00  0.00    +0.228 C 
ATOM     16  H   UNL     1      -2.447  -1.537   1.127  0.00  0.00    +0.155 HD
BRANCH  14  17
ATOM     17  C   UNL     1      -3.584  -0.051   0.289  0.00  0.00    +0.050 C 
ATOM     18  C   UNL     1      -4.783  -0.617   0.688  0.00  0.00    +0.015 C 
ATOM     19  C   UNL     1      -3.548   1.135  -0.425  0.00  0.00    +0.015 C 
ATOM     20  C   UNL     1      -5.981   0.021   0.364  0.00  0.00    +0.001 C 
ATOM     21  C   UNL     1      -4.745   1.774  -0.749  0.00  0.00    +0.001 C 
ATOM     22  C   UNL     1      -5.961   1.216  -0.355  0.00  0.00    +0.000 C 
ENDBRANCH  14  17
ENDBRANCH   4  15
TORSDOF 3
