REMARK  Name = 447912
REMARK  9 active torsions:
REMARK  status: ('A' for Active; 'I' for Inactive)
REMARK    1  A    between atoms: C_1  and  C_22
REMARK    2  A    between atoms: C_2  and  N_7
REMARK    3  A    between atoms: N_7  and  S_8
REMARK    4  A    between atoms: N_7  and  C_17
REMARK    5  A    between atoms: S_8  and  C_11
REMARK    6  A    between atoms: C_17  and  C_21
REMARK    7  A    between atoms: C_22  and  C_26
REMARK    8  A    between atoms: C_22  and  C_30
REMARK    9  A    between atoms: C_22  and  O_31
REMARK                            x       y       z     vdW  Elec       q    Type
REMARK                         _______ _______ _______ _____ _____    ______ ____
ROOT
ATOM      1  C   UNL     1      -1.962   0.556   0.322  0.00  0.00    +0.018 C 
ATOM      2  C   UNL     1       0.822   0.741   0.326  0.00  0.00    +0.069 C 
ATOM      3  C   UNL     1      -1.314   1.315   1.297  0.00  0.00    -0.000 C 
ATOM      4  C   UNL     1      -1.217  -0.109  -0.652  0.00  0.00    -0.000 C 
ATOM      5  C   UNL     1       0.078   1.407   1.299  0.00  0.00    +0.016 C 
ATOM      6  C   UNL     1       0.175  -0.017  -0.650  0.00  0.00    +0.016 C 
ENDROOT
BRANCH   2   7
ATOM      7  N   UNL     1       2.247   0.836   0.327  0.00  0.00    -0.182 N 
BRANCH   7   8
ATOM      8  S   UNL     1       3.117  -0.451   1.117  0.00  0.00    +0.077 S 
ATOM      9  O   UNL     1       2.626  -0.621   2.472  0.00  0.00    -0.150 OA
ATOM     10  O   UNL     1       4.541  -0.280   0.894  0.00  0.00    -0.150 OA
BRANCH   8  11
ATOM     11  C   UNL     1       2.618  -1.885   0.202  0.00  0.00    +0.125 C 
ATOM     12  C   UNL     1       3.355  -2.266  -0.903  0.00  0.00    +0.020 C 
ATOM     13  C   UNL     1       1.502  -2.588   0.613  0.00  0.00    +0.020 C 
ATOM     14  C   UNL     1       2.962  -3.394  -1.623  0.00  0.00    +0.001 C 
ATOM     15  C   UNL     1       1.109  -3.716  -0.107  0.00  0.00    +0.001 C 
ATOM     16  C   UNL     1       1.839  -4.119  -1.225  0.00  0.00    +0.000 C 
ENDBRANCH   8  11
ENDBRANCH   7   8
BRANCH   7  17
ATOM     17  C   UNL     1       2.889   1.419  -0.893  0.00  0.00    +0.219 C 
BRANCH  17  21
ATOM     18  F   UNL     1       4.243   3.201  -1.611  0.00  0.00    -0.168 F 
ATOM     19  F   UNL     1       2.841   3.602   0.009  0.00  0.00    -0.168 F 
ATOM     20  F   UNL     1       4.625   2.395   0.379  0.00  0.00    -0.168 F 
ATOM     21  C   UNL     1       3.654   2.663  -0.520  0.00  0.00    +0.417 C 
ENDBRANCH  17  21
ENDBRANCH   7  17
ENDBRANCH   2   7
BRANCH   1  22
ATOM     22  C   UNL     1      -3.450   0.458   0.321  0.00  0.00    +0.283 C 
BRANCH  22  26
ATOM     23  F   UNL     1      -3.519  -1.527   1.639  0.00  0.00    -0.167 F 
ATOM     24  F   UNL     1      -3.519  -1.788  -0.527  0.00  0.00    -0.167 F 
ATOM     25  F   UNL     1      -5.306  -1.068   0.481  0.00  0.00    -0.167 F 
ATOM     26  C   UNL     1      -3.954  -0.994   0.475  0.00  0.00    +0.431 C 
ENDBRANCH  22  26
BRANCH  22  30
ATOM     27  F   UNL     1      -3.653   0.514  -2.054  0.00  0.00    -0.167 F 
ATOM     28  F   UNL     1      -3.793   2.427  -1.023  0.00  0.00    -0.167 F 
ATOM     29  F   UNL     1      -5.439   1.012  -0.905  0.00  0.00    -0.167 F 
ATOM     30  C   UNL     1      -4.093   1.110  -0.923  0.00  0.00    +0.431 C 
ENDBRANCH  22  30
BRANCH  22  31
ATOM     31  O   UNL     1      -4.022   1.169   1.447  0.00  0.00    -0.369 OA
ATOM     32  H   UNL     1      -3.661   0.810   2.272  0.00  0.00    +0.211 HD
ENDBRANCH  22  31
ENDBRANCH   1  22
TORSDOF 9
