REMARK  Name = 15991535
REMARK  3 active torsions:
REMARK  status: ('A' for Active; 'I' for Inactive)
REMARK    1  A    between atoms: N_1  and  C_11
REMARK    2  A    between atoms: C_13  and  O_17
REMARK    3  A    between atoms: C_14  and  C_16
REMARK                            x       y       z     vdW  Elec       q    Type
REMARK                         _______ _______ _______ _____ _____    ______ ____
ROOT
ATOM      1  N   UNL     1       0.144  -0.139   0.081  0.00  0.00    -0.249 N 
ATOM      2  N   UNL     1       1.545  -1.840  -0.275  0.00  0.00    -0.242 NA
ATOM      3  N   UNL     1       1.749   1.666   0.351  0.00  0.00    -0.228 NA
ATOM      4  N   UNL     1       4.041   0.860   0.126  0.00  0.00    -0.229 NA
ATOM      5  C   UNL     1       1.406   0.388   0.132  0.00  0.00    +0.152 C 
ATOM      6  C   UNL     1       0.283  -1.481  -0.166  0.00  0.00    +0.223 C 
ATOM      7  C   UNL     1       2.258  -0.682  -0.091  0.00  0.00    +0.140 C 
ATOM      8  C   UNL     1       3.622  -0.411  -0.090  0.00  0.00    +0.143 C 
ATOM      9  C   UNL     1       3.092   1.805   0.330  0.00  0.00    +0.253 C 
ATOM     10  N   UNL     1       4.559  -1.436  -0.310  0.00  0.00    -0.342 N 
ATOM     11  H   UNL     1       5.522  -1.232  -0.307  0.00  0.00    +0.144 HD
ATOM     12  H   UNL     1       4.251  -2.358  -0.467  0.00  0.00    +0.144 HD
ENDROOT
BRANCH   1  14
ATOM     13  O   UNL     1      -2.081  -0.273   0.892  0.00  0.00    -0.335 OA
ATOM     14  C   UNL     1      -1.113   0.579   0.254  0.00  0.00    +0.197 C 
ATOM     15  C   UNL     1      -1.743   1.062  -1.045  0.00  0.00    +0.083 C 
ATOM     16  C   UNL     1      -3.204   1.141  -0.664  0.00  0.00    +0.145 C 
ATOM     17  C   UNL     1      -3.375  -0.026   0.303  0.00  0.00    +0.179 C 
BRANCH  17  19
ATOM     18  F   UNL     1      -3.930  -2.281   0.539  0.00  0.00    -0.232 F 
ATOM     19  C   UNL     1      -3.828  -1.302  -0.393  0.00  0.00    +0.225 C 
ENDBRANCH  17  19
BRANCH  16  20
ATOM     20  O   UNL     1      -3.423   2.369   0.026  0.00  0.00    -0.382 OA
ATOM     21  H   UNL     1      -3.314   3.111  -0.590  0.00  0.00    +0.210 HD
ENDBRANCH  16  20
ENDBRANCH   1  14
TORSDOF 3
