REMARK  Name = 2079916
REMARK  5 active torsions:
REMARK  status: ('A' for Active; 'I' for Inactive)
REMARK    1  A    between atoms: C_4  and  C_10
REMARK    2  A    between atoms: C_5  and  S_15
REMARK    3  A    between atoms: S_15  and  C_16
REMARK    4  A    between atoms: C_16  and  C_18
REMARK    5  A    between atoms: C_21  and  O_24
REMARK                            x       y       z     vdW  Elec       q    Type
REMARK                         _______ _______ _______ _____ _____    ______ ____
ROOT
ATOM      1  O   UNL     1       1.096  -1.081   0.022  0.00  0.00    -0.411 OA
ATOM      2  N   UNL     1       2.269  -2.982  -0.086  0.00  0.00    -0.106 NA
ATOM      3  N   UNL     1       0.926  -3.310  -0.064  0.00  0.00    -0.101 NA
ATOM      4  C   UNL     1       2.313  -1.678  -0.035  0.00  0.00    +0.251 A 
ATOM      5  C   UNL     1       0.279  -2.170   0.000  0.00  0.00    +0.279 A 
ENDROOT
BRANCH   4  10
ATOM      6  O   UNL     1       4.350   2.770   0.087  0.00  0.00    -0.435 OA
ATOM      7  O   UNL     1       6.582   1.866  -0.009  0.00  0.00    -0.435 OA
ATOM      8  C   UNL     1       4.355   1.410   0.034  0.00  0.00    +0.177 C 
ATOM      9  C   UNL     1       5.629   0.894  -0.021  0.00  0.00    +0.176 C 
ATOM     10  C   UNL     1       3.446  -0.784  -0.029  0.00  0.00    +0.058 C 
ATOM     11  C   UNL     1       3.240   0.596   0.032  0.00  0.00    +0.045 C 
ATOM     12  C   UNL     1       5.860  -0.465  -0.081  0.00  0.00    +0.040 C 
ATOM     13  C   UNL     1       4.748  -1.312  -0.085  0.00  0.00    +0.008 C 
ATOM     14  C   UNL     1       5.764   3.052   0.060  0.00  0.00    +0.429 C 
ENDBRANCH   4  10
BRANCH   5  15
ATOM     15  S   UNL     1      -1.454  -2.047   0.051  0.00  0.00    -0.050 S 
BRANCH  15  16
ATOM     16  C   UNL     1      -1.670  -0.247   0.129  0.00  0.00    +0.093 C 
BRANCH  16  18
ATOM     17  F   UNL     1      -5.829   0.970  -2.083  0.00  0.00    -0.201 F 
ATOM     18  C   UNL     1      -3.120   0.148   0.184  0.00  0.00    -0.008 C 
ATOM     19  C   UNL     1      -3.813   0.378  -0.997  0.00  0.00    +0.029 C 
ATOM     20  C   UNL     1      -3.747   0.280   1.416  0.00  0.00    -0.000 C 
ATOM     21  C   UNL     1      -5.796   0.882   0.287  0.00  0.00    +0.166 C 
ATOM     22  C   UNL     1      -5.157   0.747  -0.945  0.00  0.00    +0.174 C 
ATOM     23  C   UNL     1      -5.091   0.648   1.468  0.00  0.00    +0.039 C 
BRANCH  21  24
ATOM     24  O   UNL     1      -7.107   1.243   0.340  0.00  0.00    -0.469 OA
ATOM     25  C   UNL     1      -8.072   0.191   0.323  0.00  0.00    +0.253 C 
ENDBRANCH  21  24
ENDBRANCH  16  18
ENDBRANCH  15  16
ENDBRANCH   5  15
TORSDOF 5
