REMARK  Name = 24808489
REMARK  4 active torsions:
REMARK  status: ('A' for Active; 'I' for Inactive)
REMARK    1  A    between atoms: N_1  and  C_10
REMARK    2  A    between atoms: N_1  and  C_21
REMARK    3  A    between atoms: C_18  and  C_24
REMARK    4  A    between atoms: C_24  and  N_25
REMARK                            x       y       z     vdW  Elec       q    Type
REMARK                         _______ _______ _______ _____ _____    ______ ____
ROOT
ATOM      1  N   UNL     1       0.113  -1.093   0.265  0.00  0.00    -0.311 N 
ATOM      2  H   UNL     1       0.317  -2.046   0.131  0.00  0.00    +0.152 HD
ENDROOT
BRANCH   1  10
ATOM      3 BR   UNL     1       4.168   4.521   0.356  0.00  0.00    -0.049 Br
ATOM      4  O   UNL     1       1.849  -2.894  -0.167  0.00  0.00    -0.270 OA
ATOM      5  O   UNL     1       6.303  -1.900  -0.654  0.00  0.00    -0.270 OA
ATOM      6  N   UNL     1       4.065  -2.354  -0.404  0.00  0.00    -0.248 N 
ATOM      7  C   UNL     1       2.463  -0.580   0.009  0.00  0.00    +0.068 C 
ATOM      8  C   UNL     1       3.573   0.397  -0.029  0.00  0.00    +0.010 C 
ATOM      9  C   UNL     1       4.882  -0.060  -0.256  0.00  0.00    +0.054 C 
ATOM     10  C   UNL     1       1.174  -0.258   0.217  0.00  0.00    +0.066 C 
ATOM     11  C   UNL     1       2.731  -2.039  -0.190  0.00  0.00    +0.253 C 
ATOM     12  C   UNL     1       3.386   1.779   0.151  0.00  0.00    +0.007 C 
ATOM     13  C   UNL     1       5.160  -1.500  -0.455  0.00  0.00    +0.252 C 
ATOM     14  C   UNL     1       5.963   0.836  -0.299  0.00  0.00    +0.005 C 
ATOM     15  C   UNL     1       4.463   2.670   0.108  0.00  0.00    +0.035 C 
ATOM     16  C   UNL     1       5.750   2.199  -0.117  0.00  0.00    +0.007 C 
ATOM     17  H   UNL     1       4.262  -3.310  -0.536  0.00  0.00    +0.158 HD
ENDBRANCH   1  10
BRANCH   1  21
ATOM     18  C   UNL     1      -3.932  -0.173   0.908  0.00  0.00    -0.043 C 
ATOM     19  C   UNL     1      -3.541  -1.497   0.706  0.00  0.00    -0.005 C 
ATOM     20  C   UNL     1      -2.979   0.845   0.896  0.00  0.00    -0.005 C 
ATOM     21  C   UNL     1      -1.244  -0.784   0.480  0.00  0.00    +0.048 C 
ATOM     22  C   UNL     1      -2.197  -1.802   0.492  0.00  0.00    +0.014 C 
ATOM     23  C   UNL     1      -1.635   0.540   0.682  0.00  0.00    +0.014 C 
BRANCH  18  24
ATOM     24  C   UNL     1      -5.369   0.153   1.136  0.00  0.00    -0.050 C 
BRANCH  24  25
ATOM     25  N   UNL     1      -6.149   0.113  -0.092  0.00  0.00    +0.390 N 
ATOM     26  C   UNL     1      -7.582  -0.035   0.161  0.00  0.00    -0.077 C 
ATOM     27  C   UNL     1      -6.026   1.344  -0.872  0.00  0.00    -0.077 C 
ATOM     28  C   UNL     1      -8.205   0.335  -1.177  0.00  0.00    -0.025 C 
ATOM     29  C   UNL     1      -7.181   1.239  -1.857  0.00  0.00    -0.025 C 
ATOM     30  H   UNL     1      -5.773  -0.690  -0.597  0.00  0.00    -0.079 HD
ENDBRANCH  24  25
ENDBRANCH  18  24
ENDBRANCH   1  21
TORSDOF 4
