REMARK  Name = 24800833
REMARK  9 active torsions:
REMARK  status: ('A' for Active; 'I' for Inactive)
REMARK    1  A    between atoms: C_1  and  C_20
REMARK    2  A    between atoms: C_6  and  O_7
REMARK    3  A    between atoms: O_7  and  C_8
REMARK    4  A    between atoms: C_8  and  C_10
REMARK    5  A    between atoms: C_20  and  C_21
REMARK    6  A    between atoms: C_21  and  C_31
REMARK    7  A    between atoms: C_22  and  C_26
REMARK    8  A    between atoms: N_25  and  O_28
REMARK    9  A    between atoms: C_31  and  O_32
REMARK                            x       y       z     vdW  Elec       q    Type
REMARK                         _______ _______ _______ _____ _____    ______ ____
ROOT
ATOM      1  C   UNL     1      -2.165   0.389   0.514  0.00  0.00    -0.021 C 
ATOM      2  C   UNL     1      -1.445   0.873  -0.578  0.00  0.00    -0.001 C 
ATOM      3  C   UNL     1      -1.509  -0.306   1.530  0.00  0.00    -0.001 C 
ATOM      4  C   UNL     1      -0.068   0.662  -0.654  0.00  0.00    +0.037 C 
ATOM      5  C   UNL     1      -0.132  -0.517   1.454  0.00  0.00    +0.037 C 
ATOM      6  C   UNL     1       0.588  -0.033   0.362  0.00  0.00    +0.139 C 
ENDROOT
BRANCH   6   7
ATOM      7  O   UNL     1       1.941  -0.241   0.287  0.00  0.00    -0.471 OA
BRANCH   7   8
ATOM      8  C   UNL     1       2.608   0.280  -0.854  0.00  0.00    +0.232 C 
BRANCH   8  10
ATOM      9  N   UNL     1       6.744  -0.806  -0.717  0.00  0.00    -0.410 NA
ATOM     10  C   UNL     1       4.060  -0.073  -0.780  0.00  0.00    +0.026 C 
ATOM     11  C   UNL     1       4.945   0.580   0.088  0.00  0.00    +0.025 C 
ATOM     12  C   UNL     1       4.518  -1.087  -1.610  0.00  0.00    +0.027 C 
ATOM     13  C   UNL     1       6.296   0.177   0.087  0.00  0.00    +0.113 C 
ATOM     14  C   UNL     1       5.857  -1.412  -1.540  0.00  0.00    +0.109 C 
ATOM     15  C   UNL     1       4.513   1.610   0.941  0.00  0.00    +0.002 C 
ATOM     16  C   UNL     1       7.175   0.827   0.950  0.00  0.00    +0.085 C 
ATOM     17  C   UNL     1       5.413   2.243   1.794  0.00  0.00    -0.004 C 
ATOM     18  C   UNL     1       6.395  -2.495  -2.414  0.00  0.00    +0.066 C 
ATOM     19  C   UNL     1       6.745   1.851   1.798  0.00  0.00    -0.019 C 
ENDBRANCH   8  10
ENDBRANCH   7   8
ENDBRANCH   6   7
BRANCH   1  20
ATOM     20  C   UNL     1      -3.637   0.615   0.595  0.00  0.00    +0.037 C 
BRANCH  20  21
ATOM     21  C   UNL     1      -4.411  -0.500  -0.052  0.00  0.00    +0.102 C 
ATOM     22  C   UNL     1      -5.758  -0.138  -0.607  0.00  0.00    +0.089 C 
ATOM     23  C   UNL     1      -4.609  -0.401  -1.536  0.00  0.00    +0.021 C 
BRANCH  22  26
ATOM     24  O   UNL     1      -6.388   1.751   0.617  0.00  0.00    -0.273 OA
ATOM     25  N   UNL     1      -6.587   1.815  -1.690  0.00  0.00    -0.197 N 
ATOM     26  C   UNL     1      -6.276   1.236  -0.489  0.00  0.00    +0.244 C 
ATOM     27  H   UNL     1      -6.472   1.342  -2.545  0.00  0.00    +0.182 HD
BRANCH  25  28
ATOM     28  O   UNL     1      -7.080   3.125  -1.624  0.00  0.00    -0.295 OA
ATOM     29  H   UNL     1      -7.269   3.445  -2.520  0.00  0.00    +0.241 HD
ENDBRANCH  25  28
ENDBRANCH  22  26
BRANCH  21  31
ATOM     30  O   UNL     1      -3.276  -2.559   0.170  0.00  0.00    -0.250 OA
ATOM     31  C   UNL     1      -4.212  -1.852   0.515  0.00  0.00    +0.317 C 
BRANCH  31  32
ATOM     32  O   UNL     1      -5.178  -2.159   1.422  0.00  0.00    -0.444 OA
ATOM     33  C   UNL     1      -5.067  -3.453   2.025  0.00  0.00    +0.256 C 
ENDBRANCH  31  32
ENDBRANCH  21  31
ENDBRANCH  20  21
ENDBRANCH   1  20
TORSDOF 9
