REMARK  Name = 6102690
REMARK  3 active torsions:
REMARK  status: ('A' for Active; 'I' for Inactive)
REMARK    1  A    between atoms: C_3  and  C_12
REMARK    2  A    between atoms: C_10  and  O_20
REMARK    3  A    between atoms: C_17  and  O_18
REMARK                            x       y       z     vdW  Elec       q    Type
REMARK                         _______ _______ _______ _____ _____    ______ ____
ROOT
ATOM      1 CL   UNL     1       4.265   2.165  -0.239  0.00  0.00    -0.079 Cl
ATOM      2  C   UNL     1       1.481  -0.770   0.088  0.00  0.00    +0.001 C 
ATOM      3  C   UNL     1      -0.728   0.243  -0.028  0.00  0.00    +0.000 C 
ATOM      4  C   UNL     1       2.067   0.510  -0.056  0.00  0.00    +0.014 C 
ATOM      5  C   UNL     1       0.081  -0.887   0.100  0.00  0.00    +0.000 C 
ATOM      6  C   UNL     1      -0.152   1.501  -0.169  0.00  0.00    +0.000 C 
ATOM      7  C   UNL     1       1.237   1.635  -0.183  0.00  0.00    +0.001 C 
ATOM      8  C   UNL     1       2.311  -1.895   0.216  0.00  0.00    +0.003 C 
ATOM      9  C   UNL     1       3.466   0.627  -0.067  0.00  0.00    +0.091 C 
ATOM     10  C   UNL     1       4.276  -0.502   0.061  0.00  0.00    +0.144 C 
ATOM     11  C   UNL     1       3.700  -1.761   0.202  0.00  0.00    +0.037 C 
ENDROOT
BRANCH   3  12
ATOM     12  C   UNL     1      -2.169   0.105  -0.013  0.00  0.00    +0.000 C 
ATOM     13  C   UNL     1      -2.963   1.141   0.477  0.00  0.00    +0.003 C 
ATOM     14  C   UNL     1      -2.762  -1.063  -0.491  0.00  0.00    +0.003 C 
ATOM     15  C   UNL     1      -4.352   1.009   0.490  0.00  0.00    +0.037 C 
ATOM     16  C   UNL     1      -4.151  -1.196  -0.478  0.00  0.00    +0.037 C 
ATOM     17  C   UNL     1      -4.946  -0.160   0.013  0.00  0.00    +0.134 C 
BRANCH  17  18
ATOM     18  O   UNL     1      -6.300  -0.288   0.025  0.00  0.00    -0.506 OA
ATOM     19  H   UNL     1      -6.834   0.408   0.354  0.00  0.00    +0.292 HD
ENDBRANCH  17  18
ENDBRANCH   3  12
BRANCH  10  20
ATOM     20  O   UNL     1       5.638  -0.413   0.053  0.00  0.00    -0.505 OA
ATOM     21  H   UNL     1       6.052   0.422  -0.041  0.00  0.00    +0.292 HD
ENDBRANCH  10  20
TORSDOF 3
