REMARK  Name = 16758228
REMARK  5 active torsions:
REMARK  status: ('A' for Active; 'I' for Inactive)
REMARK    1  A    between atoms: C_1  and  C_15
REMARK    2  A    between atoms: C_6  and  N_7
REMARK    3  A    between atoms: N_7  and  C_10
REMARK    4  A    between atoms: C_15  and  C_17
REMARK    5  A    between atoms: C_17  and  C_18
REMARK                            x       y       z     vdW  Elec       q    Type
REMARK                         _______ _______ _______ _____ _____    ______ ____
ROOT
ATOM      1  C   UNL     1       0.471  -0.938  -0.017  0.00  0.00    -0.014 C 
ATOM      2  C   UNL     1       1.173  -0.865  -1.220  0.00  0.00    -0.002 C 
ATOM      3  C   UNL     1       1.156  -0.869   1.196  0.00  0.00    -0.002 C 
ATOM      4  C   UNL     1       2.561  -0.723  -1.210  0.00  0.00    +0.019 C 
ATOM      5  C   UNL     1       2.544  -0.726   1.206  0.00  0.00    +0.019 C 
ATOM      6  C   UNL     1       3.246  -0.653   0.003  0.00  0.00    +0.084 C 
ENDROOT
BRANCH   6   7
ATOM      7  N   UNL     1       4.637  -0.511   0.013  0.00  0.00    -0.214 NA
BRANCH   7  10
ATOM      8  N   UNL     1       6.513   0.881   0.028  0.00  0.00    -0.370 N 
ATOM      9  N   UNL     1       4.468   1.894   0.015  0.00  0.00    -0.370 N 
ATOM     10  C   UNL     1       5.150   0.697   0.018  0.00  0.00    +0.193 C 
ATOM     11  H   UNL     1       7.115   0.102   0.031  0.00  0.00    +0.159 HD
ATOM     12  H   UNL     1       6.886   1.792   0.032  0.00  0.00    +0.159 HD
ATOM     13  H   UNL     1       3.484   1.900   0.009  0.00  0.00    +0.159 HD
ATOM     14  H   UNL     1       4.965   2.744   0.021  0.00  0.00    +0.159 HD
ENDBRANCH   7  10
ENDBRANCH   6   7
BRANCH   1  15
ATOM     15  C   UNL     1      -1.030  -1.093  -0.028  0.00  0.00    +0.095 C 
BRANCH  15  17
ATOM     16  O   UNL     1      -1.172   1.315  -0.051  0.00  0.00    -0.291 OA
ATOM     17  C   UNL     1      -1.804   0.238  -0.031  0.00  0.00    +0.177 C 
BRANCH  17  18
ATOM     18  C   UNL     1      -3.257   0.232  -0.009  0.00  0.00    +0.035 C 
ATOM     19  C   UNL     1      -3.949  -0.979   0.016  0.00  0.00    +0.003 C 
ATOM     20  C   UNL     1      -3.960   1.437  -0.011  0.00  0.00    +0.003 C 
ATOM     21  C   UNL     1      -5.344  -0.985   0.037  0.00  0.00    +0.000 C 
ATOM     22  C   UNL     1      -5.355   1.430   0.011  0.00  0.00    +0.000 C 
ATOM     23  C   UNL     1      -6.047   0.219   0.035  0.00  0.00    +0.000 C 
ENDBRANCH  17  18
ENDBRANCH  15  17
ENDBRANCH   1  15
TORSDOF 5
