REMARK  Name = 11538992
REMARK  4 active torsions:
REMARK  status: ('A' for Active; 'I' for Inactive)
REMARK    1  A    between atoms: C_1  and  N_7
REMARK    2  A    between atoms: C_3  and  C_24
REMARK    3  A    between atoms: C_4  and  N_30
REMARK    4  A    between atoms: C_15  and  C_20
REMARK                            x       y       z     vdW  Elec       q    Type
REMARK                         _______ _______ _______ _____ _____    ______ ____
ROOT
ATOM      1  C   UNL     1       0.184  -0.012   0.295  0.00  0.00    -0.059 C 
ATOM      2  C   UNL     1      -0.490  -1.177  -0.437  0.00  0.00    -0.042 C 
ATOM      3  C   UNL     1      -2.661   0.148  -0.547  0.00  0.00    +0.005 C 
ATOM      4  C   UNL     1      -2.005  -1.206  -0.172  0.00  0.00    -0.064 C 
ATOM      5  C   UNL     1      -0.455   1.324  -0.093  0.00  0.00    -0.021 C 
ATOM      6  C   UNL     1      -1.959   1.316   0.173  0.00  0.00    +0.000 C 
ENDROOT
BRANCH   1   7
ATOM      7  N   UNL     1       1.612   0.013  -0.021  0.00  0.00    +0.394 N 
ATOM      8  N   UNL     1       4.390  -0.014   0.162  0.00  0.00    -0.299 N 
ATOM      9  N   UNL     1       4.603  -2.185   0.146  0.00  0.00    -0.136 NA
ATOM     10  N   UNL     1       5.860  -1.611   0.039  0.00  0.00    -0.125 NA
ATOM     11  C   UNL     1       2.273   1.158   0.632  0.00  0.00    -0.052 C 
ATOM     12  C   UNL     1       2.249  -1.261   0.373  0.00  0.00    -0.009 C 
ATOM     13  C   UNL     1       3.733   1.272   0.168  0.00  0.00    +0.086 C 
ATOM     14  C   UNL     1       3.726  -1.206   0.215  0.00  0.00    +0.122 A 
ATOM     15  C   UNL     1       5.707  -0.304   0.049  0.00  0.00    +0.238 A 
ATOM     16  H   UNL     1       1.717   0.125  -1.030  0.00  0.00    -0.079 HD
BRANCH  15  20
ATOM     17  F   UNL     1       8.034   0.206  -0.172  0.00  0.00    -0.163 F 
ATOM     18  F   UNL     1       6.635   1.557  -1.133  0.00  0.00    -0.163 F 
ATOM     19  F   UNL     1       6.823   1.550   1.034  0.00  0.00    -0.163 F 
ATOM     20  C   UNL     1       6.764   0.716  -0.054  0.00  0.00    +0.452 C 
ENDBRANCH  15  20
ENDBRANCH   1   7
BRANCH   3  24
ATOM     21  F   UNL     1      -4.602   0.552  -2.578  0.00  0.00    -0.204 F 
ATOM     22  F   UNL     1      -6.453  -0.117   2.525  0.00  0.00    -0.202 F 
ATOM     23  F   UNL     1      -8.211   0.281   0.471  0.00  0.00    -0.202 F 
ATOM     24  C   UNL     1      -4.159   0.185  -0.275  0.00  0.00    +0.005 C 
ATOM     25  C   UNL     1      -5.049   0.388  -1.325  0.00  0.00    +0.138 C 
ATOM     26  C   UNL     1      -4.626   0.014   1.024  0.00  0.00    +0.030 C 
ATOM     27  C   UNL     1      -5.997   0.047   1.277  0.00  0.00    +0.167 C 
ATOM     28  C   UNL     1      -6.420   0.421  -1.072  0.00  0.00    +0.061 C 
ATOM     29  C   UNL     1      -6.894   0.251   0.228  0.00  0.00    +0.170 C 
ENDBRANCH   3  24
BRANCH   4  30
ATOM     30  N   UNL     1      -2.611  -2.305  -0.931  0.00  0.00    +0.382 N 
ATOM     31  H   UNL     1      -2.165  -3.184  -0.670  0.00  0.00    -0.089 HD
ATOM     32  H   UNL     1      -2.481  -2.141  -1.929  0.00  0.00    -0.089 HD
ATOM     33  H   UNL     1      -3.608  -2.354  -0.721  0.00  0.00    -0.089 HD
ENDBRANCH   4  30
TORSDOF 4
