REMARK  Name = 11740318
REMARK  5 active torsions:
REMARK  status: ('A' for Active; 'I' for Inactive)
REMARK    1  A    between atoms: N_1  and  C_20
REMARK    2  A    between atoms: C_2  and  O_8
REMARK    3  A    between atoms: O_8  and  C_9
REMARK    4  A    between atoms: C_14  and  N_15
REMARK    5  A    between atoms: C_20  and  C_23
REMARK                            x       y       z     vdW  Elec       q    Type
REMARK                         _______ _______ _______ _____ _____    ______ ____
ROOT
ATOM      1  N   UNL     1      -1.893  -0.938   0.350  0.00  0.00    +0.392 N 
ATOM      2  C   UNL     1       0.435  -1.533  -0.247  0.00  0.00    +0.145 C 
ATOM      3  C   UNL     1      -0.616  -1.449   0.864  0.00  0.00    -0.032 C 
ATOM      4  C   UNL     1      -0.064  -2.380  -1.414  0.00  0.00    +0.039 C 
ATOM      5  C   UNL     1      -1.425  -1.888  -1.887  0.00  0.00    -0.019 C 
ATOM      6  C   UNL     1      -2.415  -1.794  -0.724  0.00  0.00    -0.077 C 
ATOM      7  H   UNL     1      -1.725  -0.011  -0.041  0.00  0.00    -0.079 HD
ENDROOT
BRANCH   2   8
ATOM      8  O   UNL     1       1.627  -2.121   0.262  0.00  0.00    -0.481 OA
BRANCH   8   9
ATOM      9  C   UNL     1       2.762  -1.357   0.209  0.00  0.00    +0.138 C 
ATOM     10  C   UNL     1       2.804  -0.138   0.877  0.00  0.00    +0.038 C 
ATOM     11  C   UNL     1       3.863  -1.807  -0.512  0.00  0.00    +0.038 C 
ATOM     12  C   UNL     1       3.961   0.641   0.823  0.00  0.00    +0.018 C 
ATOM     13  C   UNL     1       5.019  -1.029  -0.566  0.00  0.00    +0.018 C 
ATOM     14  C   UNL     1       5.068   0.195   0.102  0.00  0.00    +0.057 C 
BRANCH  14  15
ATOM     15  N   UNL     1       6.215   0.966   0.049  0.00  0.00    -0.246 N 
ATOM     16  N   UNL     1       8.286   1.598  -0.481  0.00  0.00    -0.224 NA
ATOM     17  C   UNL     1       6.411   2.183   0.650  0.00  0.00    +0.092 C 
ATOM     18  C   UNL     1       7.375   0.661  -0.619  0.00  0.00    +0.172 C 
ATOM     19  C   UNL     1       7.691   2.550   0.309  0.00  0.00    +0.117 C 
ENDBRANCH  14  15
ENDBRANCH   8   9
ENDBRANCH   2   8
BRANCH   1  20
ATOM     20  C   UNL     1      -2.870  -0.820   1.432  0.00  0.00    -0.050 C 
BRANCH  20  23
ATOM     21  O   UNL     1      -5.520   2.500  -1.085  0.00  0.00    -0.435 OA
ATOM     22  O   UNL     1      -7.612   1.513  -0.410  0.00  0.00    -0.435 OA
ATOM     23  C   UNL     1      -4.165  -0.218   0.955  0.00  0.00    -0.040 C 
ATOM     24  C   UNL     1      -4.132   0.900   0.129  0.00  0.00    +0.034 C 
ATOM     25  C   UNL     1      -5.375  -0.799   1.353  0.00  0.00    -0.003 C 
ATOM     26  C   UNL     1      -5.344   1.415  -0.282  0.00  0.00    +0.176 C 
ATOM     27  C   UNL     1      -6.588  -0.258   0.922  0.00  0.00    +0.040 C 
ATOM     28  C   UNL     1      -6.539   0.852   0.104  0.00  0.00    +0.176 C 
ATOM     29  C   UNL     1      -6.959   2.555  -1.163  0.00  0.00    +0.429 C 
ENDBRANCH  20  23
ENDBRANCH   1  20
TORSDOF 5
