REMARK  Name = 17414308
REMARK  6 active torsions:
REMARK  status: ('A' for Active; 'I' for Inactive)
REMARK    1  A    between atoms: S_1  and  C_4
REMARK    2  A    between atoms: S_1  and  N_16
REMARK    3  A    between atoms: C_7  and  S_10
REMARK    4  A    between atoms: S_10  and  N_13
REMARK    5  A    between atoms: N_16  and  C_18
REMARK    6  A    between atoms: C_18  and  C_20
REMARK                            x       y       z     vdW  Elec       q    Type
REMARK                         _______ _______ _______ _____ _____    ______ ____
ROOT
ATOM      1  S   UNL     1       0.188   1.750   0.141  0.00  0.00    +0.064 S 
ATOM      2  O   UNL     1       0.091   2.971  -0.636  0.00  0.00    -0.153 OA
ATOM      3  O   UNL     1       0.629   1.816   1.522  0.00  0.00    -0.153 OA
ENDROOT
BRANCH   1   4
ATOM      4  C   UNL     1      -1.415   0.996   0.138  0.00  0.00    +0.122 C 
ATOM      5  C   UNL     1      -2.305   1.256  -0.904  0.00  0.00    +0.021 C 
ATOM      6  C   UNL     1      -1.786   0.142   1.176  0.00  0.00    +0.021 C 
ATOM      7  C   UNL     1      -3.938  -0.192   0.131  0.00  0.00    +0.122 C 
ATOM      8  C   UNL     1      -3.567   0.662  -0.907  0.00  0.00    +0.021 C 
ATOM      9  C   UNL     1      -3.048  -0.453   1.172  0.00  0.00    +0.021 C 
BRANCH   7  10
ATOM     10  S   UNL     1      -5.518  -0.936   0.127  0.00  0.00    +0.057 S 
ATOM     11  O   UNL     1      -5.872  -1.271   1.499  0.00  0.00    -0.153 OA
ATOM     12  O   UNL     1      -6.415  -0.112  -0.671  0.00  0.00    -0.153 OA
BRANCH  10  13
ATOM     13  N   UNL     1      -5.196  -2.380  -0.728  0.00  0.00    -0.203 NA
ATOM     14  H   UNL     1      -6.053  -2.927  -0.807  0.00  0.00    +0.144 HD
ATOM     15  H   UNL     1      -4.492  -2.922  -0.227  0.00  0.00    +0.144 HD
ENDBRANCH  10  13
ENDBRANCH   7  10
ENDBRANCH   1   4
BRANCH   1  16
ATOM     16  N   UNL     1       1.147   0.599  -0.714  0.00  0.00    -0.150 NA
ATOM     17  C   UNL     1       0.761   0.277  -2.111  0.00  0.00    +0.115 C 
BRANCH  16  18
ATOM     18  C   UNL     1       1.611  -0.602   0.026  0.00  0.00    +0.122 C 
BRANCH  18  20
ATOM     19 CL   UNL     1       7.617  -0.681   0.170  0.00  0.00    -0.082 Cl
ATOM     20  C   UNL     1       3.108  -0.622   0.061  0.00  0.00    -0.004 C 
ATOM     21  C   UNL     1       3.822  -1.260  -0.953  0.00  0.00    -0.002 C 
ATOM     22  C   UNL     1       3.789  -0.002   1.110  0.00  0.00    -0.002 C 
ATOM     23  C   UNL     1       5.216  -1.278  -0.920  0.00  0.00    +0.011 C 
ATOM     24  C   UNL     1       5.183  -0.021   1.143  0.00  0.00    +0.011 C 
ATOM     25  C   UNL     1       5.897  -0.659   0.129  0.00  0.00    +0.058 C 
ENDBRANCH  18  20
ENDBRANCH  16  18
ENDBRANCH   1  16
TORSDOF 6
