REMARK  Name = 10072851
REMARK  4 active torsions:
REMARK  status: ('A' for Active; 'I' for Inactive)
REMARK    1  A    between atoms: C_6  and  N_12
REMARK    2  A    between atoms: C_6  and  C_25
REMARK    3  A    between atoms: C_30  and  O_31
REMARK    4  A    between atoms: O_31  and  C_32
REMARK                            x       y       z     vdW  Elec       q    Type
REMARK                         _______ _______ _______ _____ _____    ______ ____
ROOT
ATOM      1  O   UNL     1       0.472  -2.045  -2.319  0.00  0.00    -0.276 OA
ATOM      2  O   UNL     1       0.648  -2.097   2.491  0.00  0.00    -0.276 OA
ATOM      3  O   UNL     1       2.056  -5.670  -0.008  0.00  0.00    -0.252 OA
ATOM      4  N   UNL     1       1.259  -3.835  -1.131  0.00  0.00    -0.240 N 
ATOM      5  N   UNL     1       1.342  -3.862   1.212  0.00  0.00    -0.240 N 
ATOM      6  C   UNL     1       0.468  -1.840   0.092  0.00  0.00    +0.119 C 
ATOM      7  C   UNL     1       0.725  -2.562  -1.229  0.00  0.00    +0.223 C 
ATOM      8  C   UNL     1       0.820  -2.591   1.375  0.00  0.00    +0.223 C 
ATOM      9  C   UNL     1       1.584  -4.532   0.022  0.00  0.00    +0.312 C 
ATOM     10  H   UNL     1       1.427  -4.302  -1.982  0.00  0.00    +0.159 HD
ATOM     11  H   UNL     1       1.567  -4.349   2.038  0.00  0.00    +0.159 HD
ENDROOT
BRANCH   6  12
ATOM     12  N   UNL     1       1.335  -0.667   0.073  0.00  0.00    +0.405 N 
ATOM     13  N   UNL     1       3.218   1.284  -0.464  0.00  0.00    -0.257 N 
ATOM     14  N   UNL     1       3.503   3.608  -0.219  0.00  0.00    -0.203 NA
ATOM     15  N   UNL     1       5.292   2.084   0.314  0.00  0.00    -0.181 NA
ATOM     16  C   UNL     1       1.073   0.188  -1.082  0.00  0.00    -0.053 C 
ATOM     17  C   UNL     1       2.752  -1.044   0.170  0.00  0.00    -0.053 C 
ATOM     18  C   UNL     1       1.843   1.508  -0.932  0.00  0.00    +0.079 C 
ATOM     19  C   UNL     1       3.707  -0.090  -0.563  0.00  0.00    +0.079 C 
ATOM     20  C   UNL     1       4.029   2.359  -0.113  0.00  0.00    +0.090 C 
ATOM     21  C   UNL     1       4.317   4.627   0.131  0.00  0.00    +0.165 C 
ATOM     22  C   UNL     1       6.050   3.149   0.647  0.00  0.00    +0.108 C 
ATOM     23  C   UNL     1       5.612   4.455   0.575  0.00  0.00    +0.022 C 
ATOM     24  H   UNL     1       1.113  -0.114   0.901  0.00  0.00    -0.078 HD
ENDBRANCH   6  12
BRANCH   6  25
ATOM     25  C   UNL     1      -0.975  -1.430   0.149  0.00  0.00    -0.024 C 
ATOM     26  C   UNL     1      -1.933  -2.194  -0.507  0.00  0.00    -0.002 C 
ATOM     27  C   UNL     1      -1.339  -0.291   0.857  0.00  0.00    -0.002 C 
ATOM     28  C   UNL     1      -3.274  -1.814  -0.454  0.00  0.00    +0.037 C 
ATOM     29  C   UNL     1      -2.680   0.089   0.911  0.00  0.00    +0.037 C 
ATOM     30  C   UNL     1      -3.648  -0.672   0.255  0.00  0.00    +0.145 C 
BRANCH  30  31
ATOM     31  O   UNL     1      -4.956  -0.301   0.306  0.00  0.00    -0.453 OA
BRANCH  31  32
ATOM     32  C   UNL     1      -5.254   1.037   0.106  0.00  0.00    +0.145 C 
ATOM     33  C   UNL     1      -4.641   1.715  -0.932  0.00  0.00    +0.037 C 
ATOM     34  C   UNL     1      -6.157   1.659   0.949  0.00  0.00    +0.037 C 
ATOM     35  C   UNL     1      -4.942   3.062  -1.135  0.00  0.00    +0.003 C 
ATOM     36  C   UNL     1      -6.457   3.007   0.746  0.00  0.00    +0.003 C 
ATOM     37  C   UNL     1      -5.849   3.708  -0.295  0.00  0.00    +0.000 C 
ENDBRANCH  31  32
ENDBRANCH  30  31
ENDBRANCH   6  25
TORSDOF 4
