REMARK  Name = 448994
REMARK  9 active torsions:
REMARK  status: ('A' for Active; 'I' for Inactive)
REMARK    1  A    between atoms: N_1  and  C_10
REMARK    2  A    between atoms: C_11  and  C_19
REMARK    3  A    between atoms: N_20  and  C_23
REMARK    4  A    between atoms: C_22  and  O_28
REMARK    5  A    between atoms: O_28  and  C_29
REMARK    6  A    between atoms: C_29  and  C_30
REMARK    7  A    between atoms: C_30  and  O_31
REMARK    8  A    between atoms: C_30  and  C_33
REMARK    9  A    between atoms: C_33  and  N_34
REMARK                            x       y       z     vdW  Elec       q    Type
REMARK                         _______ _______ _______ _____ _____    ______ ____
ROOT
ATOM      1  N   UNL     1      -4.216  -0.872   0.151  0.00  0.00    -0.300 N 
ATOM      2  N   UNL     1      -4.120   3.118  -0.970  0.00  0.00    -0.233 NA
ATOM      3  N   UNL     1      -5.247   0.989  -0.920  0.00  0.00    -0.233 NA
ATOM      4  C   UNL     1      -3.103   2.554  -0.285  0.00  0.00    +0.113 C 
ATOM      5  C   UNL     1      -4.195   0.490  -0.237  0.00  0.00    +0.113 C 
ATOM      6  C   UNL     1      -3.085   1.233   0.111  0.00  0.00    +0.122 C 
ATOM      7  C   UNL     1      -5.144   2.290  -1.250  0.00  0.00    +0.252 C 
ATOM      8  H   UNL     1      -5.121  -1.224   0.315  0.00  0.00    +0.153 HD
ATOM      9  N   UNL     1      -1.989   3.348   0.051  0.00  0.00    -0.301 N 
ATOM     10  H   UNL     1      -2.206   4.298   0.185  0.00  0.00    +0.153 HD
ENDROOT
BRANCH   1  12
ATOM     11  F   UNL     1      -4.494  -2.934   1.995  0.00  0.00    -0.203 F 
ATOM     12  C   UNL     1      -3.197  -1.817   0.348  0.00  0.00    +0.077 C 
ATOM     13  C   UNL     1      -1.003  -2.670  -0.197  0.00  0.00    +0.073 C 
ATOM     14  C   UNL     1      -2.017  -1.731  -0.391  0.00  0.00    +0.021 C 
ATOM     15  C   UNL     1      -3.363  -2.842   1.280  0.00  0.00    +0.153 C 
ATOM     16  C   UNL     1      -1.169  -3.694   0.735  0.00  0.00    +0.006 C 
ATOM     17  C   UNL     1      -2.349  -3.780   1.474  0.00  0.00    +0.031 C 
BRANCH  13  21
ATOM     18  F   UNL     1       1.161  -3.561  -0.693  0.00  0.00    -0.166 F 
ATOM     19  F   UNL     1       0.067  -2.663  -2.336  0.00  0.00    -0.166 F 
ATOM     20  F   UNL     1       0.921  -1.402  -0.784  0.00  0.00    -0.166 F 
ATOM     21  C   UNL     1       0.259  -2.578  -0.986  0.00  0.00    +0.419 C 
ENDBRANCH  13  21
ENDBRANCH   1  12
BRANCH   9  23
ATOM     22  C   UNL     1       2.080   2.454   0.592  0.00  0.00    +0.139 C 
ATOM     23  C   UNL     1      -0.623   3.047   0.233  0.00  0.00    +0.049 C 
ATOM     24  C   UNL     1       1.495   3.503   1.302  0.00  0.00    +0.038 C 
ATOM     25  C   UNL     1       1.313   1.702  -0.299  0.00  0.00    +0.038 C 
ATOM     26  C   UNL     1       0.144   3.799   1.123  0.00  0.00    +0.018 C 
ATOM     27  C   UNL     1      -0.038   1.999  -0.478  0.00  0.00    +0.018 C 
BRANCH  22  28
ATOM     28  O   UNL     1       3.406   2.163   0.768  0.00  0.00    -0.473 OA
BRANCH  28  29
ATOM     29  C   UNL     1       3.930   1.079   0.007  0.00  0.00    +0.232 C 
BRANCH  29  30
ATOM     30  C   UNL     1       5.415   0.925   0.327  0.00  0.00    +0.133 C 
BRANCH  30  31
ATOM     31  O   UNL     1       6.089   2.131  -0.044  0.00  0.00    -0.383 OA
ATOM     32  H   UNL     1       7.035   2.047   0.153  0.00  0.00    +0.210 HD
ENDBRANCH  30  31
BRANCH  30  33
ATOM     33  C   UNL     1       6.077  -0.239  -0.414  0.00  0.00    -0.044 C 
BRANCH  33  34
ATOM     34  N   UNL     1       5.428  -1.511  -0.126  0.00  0.00    +0.386 N 
ATOM     35  C   UNL     1       5.645  -2.462  -1.219  0.00  0.00    -0.101 C 
ATOM     36  C   UNL     1       5.922  -2.069   1.135  0.00  0.00    -0.101 C 
ATOM     37  H   UNL     1       4.427  -1.343  -0.036  0.00  0.00    -0.080 HD
ENDBRANCH  33  34
ENDBRANCH  30  33
ENDBRANCH  29  30
ENDBRANCH  28  29
ENDBRANCH  22  28
ENDBRANCH   9  23
TORSDOF 9
