REMARK  Name = 10156987
REMARK  5 active torsions:
REMARK  status: ('A' for Active; 'I' for Inactive)
REMARK    1  A    between atoms: C_2  and  C_23
REMARK    2  A    between atoms: C_9  and  C_13
REMARK    3  A    between atoms: C_23  and  N_24
REMARK    4  A    between atoms: C_25  and  C_31
REMARK    5  A    between atoms: C_31  and  N_32
REMARK                            x       y       z     vdW  Elec       q    Type
REMARK                         _______ _______ _______ _____ _____    ______ ____
ROOT
ATOM      1  N   UNL     1       1.317   1.779  -0.249  0.00  0.00    -0.312 N 
ATOM      2  C   UNL     1      -2.671   1.690   0.754  0.00  0.00    -0.043 C 
ATOM      3  C   UNL     1      -1.820   0.601   0.946  0.00  0.00    -0.005 C 
ATOM      4  C   UNL     1      -2.210   2.881   0.207  0.00  0.00    -0.005 C 
ATOM      5  C   UNL     1      -0.466   0.720   0.573  0.00  0.00    +0.014 C 
ATOM      6  C   UNL     1      -0.025   1.926   0.024  0.00  0.00    +0.048 C 
ATOM      7  C   UNL     1      -0.872   3.022  -0.171  0.00  0.00    +0.014 C 
ATOM      8  C   UNL     1       0.656  -0.153   0.619  0.00  0.00    +0.016 C 
ATOM      9  C   UNL     1       1.737   0.526   0.107  0.00  0.00    +0.053 C 
ATOM     10  H   UNL     1       1.891   2.475  -0.644  0.00  0.00    +0.152 HD
ENDROOT
BRANCH   9  13
ATOM     11  O   UNL     1       3.334   1.629  -1.990  0.00  0.00    -0.270 OA
ATOM     12  N   UNL     1       5.201   0.459  -1.358  0.00  0.00    -0.280 N 
ATOM     13  C   UNL     1       3.110   0.188  -0.105  0.00  0.00    +0.067 C 
ATOM     14  C   UNL     1       3.711  -0.697   0.709  0.00  0.00    +0.007 C 
ATOM     15  C   UNL     1       3.875   0.827  -1.229  0.00  0.00    +0.251 C 
ATOM     16  C   UNL     1       5.115  -1.058   0.526  0.00  0.00    +0.014 C 
ATOM     17  C   UNL     1       5.838  -0.464  -0.513  0.00  0.00    +0.051 C 
ATOM     18  C   UNL     1       5.750  -1.978   1.365  0.00  0.00    +0.001 C 
ATOM     19  C   UNL     1       7.183  -0.782  -0.718  0.00  0.00    +0.015 C 
ATOM     20  C   UNL     1       7.095  -2.297   1.162  0.00  0.00    +0.000 C 
ATOM     21  C   UNL     1       7.809  -1.701   0.123  0.00  0.00    +0.001 C 
ATOM     22  H   UNL     1       5.728   0.867  -2.083  0.00  0.00    +0.155 HD
ENDBRANCH   9  13
BRANCH   2  23
ATOM     23  C   UNL     1      -4.114   1.569   1.148  0.00  0.00    -0.050 C 
BRANCH  23  24
ATOM     24  N   UNL     1      -4.698   0.303   0.706  0.00  0.00    +0.390 N 
ATOM     25  C   UNL     1      -6.622  -1.365  -0.749  0.00  0.00    -0.026 C 
ATOM     26  C   UNL     1      -6.693  -1.160   0.768  0.00  0.00    -0.025 C 
ATOM     27  C   UNL     1      -5.183  -1.157  -1.232  0.00  0.00    -0.025 C 
ATOM     28  C   UNL     1      -6.085   0.183   1.177  0.00  0.00    -0.077 C 
ATOM     29  C   UNL     1      -4.624   0.186  -0.757  0.00  0.00    -0.077 C 
ATOM     30  H   UNL     1      -4.161  -0.464   1.110  0.00  0.00    -0.079 HD
BRANCH  25  31
ATOM     31  C   UNL     1      -7.138  -2.747  -1.141  0.00  0.00    -0.086 C 
BRANCH  31  32
ATOM     32  N   UNL     1      -8.512  -2.932  -0.701  0.00  0.00    +0.380 N 
ATOM     33  H   UNL     1      -8.834  -3.860  -0.974  0.00  0.00    -0.089 HD
ATOM     34  H   UNL     1      -9.106  -2.225  -1.135  0.00  0.00    -0.089 HD
ATOM     35  H   UNL     1      -8.560  -2.840   0.314  0.00  0.00    -0.089 HD
ENDBRANCH  31  32
ENDBRANCH  25  31
ENDBRANCH  23  24
ENDBRANCH   2  23
TORSDOF 5
