REMARK  Name = 25023707
REMARK  2 active torsions:
REMARK  status: ('A' for Active; 'I' for Inactive)
REMARK    1  A    between atoms: C_13  and  C_28
REMARK    2  A    between atoms: C_18  and  C_25
REMARK                            x       y       z     vdW  Elec       q    Type
REMARK                         _______ _______ _______ _____ _____    ______ ____
ROOT
ATOM      1  N   UNL     1       0.633  -0.075   0.194  0.00  0.00    -0.282 N 
ATOM      2  N   UNL     1       3.178  -1.257   0.279  0.00  0.00    -0.250 N 
ATOM      3  N   UNL     1      -0.532   1.949   0.075  0.00  0.00    -0.331 NA
ATOM      4  N   UNL     1      -2.935   1.946  -0.079  0.00  0.00    -0.283 NA
ATOM      5  N   UNL     1      -4.143  -0.030  -0.113  0.00  0.00    -0.327 NA
ATOM      6  N   UNL     1       5.202  -0.490   1.137  0.00  0.00    -0.181 NA
ATOM      7  N   UNL     1       4.831  -0.639  -1.239  0.00  0.00    -0.203 NA
ATOM      8  C   UNL     1       1.313  -0.436  -1.063  0.00  0.00    +0.115 C 
ATOM      9  C   UNL     1       1.495   0.143   1.367  0.00  0.00    +0.115 C 
ATOM     10  C   UNL     1       2.289  -1.596  -0.836  0.00  0.00    +0.123 C 
ATOM     11  C   UNL     1       2.466  -1.027   1.536  0.00  0.00    +0.123 C 
ATOM     12  C   UNL     1      -0.587   0.606   0.101  0.00  0.00    +0.192 C 
ATOM     13  C   UNL     1      -1.728   2.546  -0.015  0.00  0.00    +0.124 C 
ATOM     14  C   UNL     1      -1.774  -0.119   0.041  0.00  0.00    +0.199 C 
ATOM     15  C   UNL     1       4.462  -0.774   0.049  0.00  0.00    +0.090 C 
ATOM     16  C   UNL     1      -2.966   0.608  -0.052  0.00  0.00    +0.138 C 
ATOM     17  C   UNL     1      -1.813  -1.521   0.069  0.00  0.00    +0.007 C 
ATOM     18  C   UNL     1      -3.033  -2.172   0.005  0.00  0.00    +0.095 C 
ATOM     19  C   UNL     1      -4.161  -1.384  -0.085  0.00  0.00    +0.193 C 
ATOM     20  C   UNL     1       6.441  -0.024   0.878  0.00  0.00    +0.108 C 
ATOM     21  C   UNL     1       6.082  -0.167  -1.426  0.00  0.00    +0.165 C 
ATOM     22  C   UNL     1       6.939   0.160  -0.396  0.00  0.00    +0.022 C 
ATOM     23  N   UNL     1      -5.423  -2.025  -0.152  0.00  0.00    -0.332 N 
ATOM     24  H   UNL     1      -6.246  -1.487  -0.216  0.00  0.00    +0.145 HD
ATOM     25  H   UNL     1      -5.478  -3.008  -0.134  0.00  0.00    +0.145 HD
ENDROOT
BRANCH  18  28
ATOM     26  O   UNL     1      -3.184  -4.249   1.105  0.00  0.00    -0.270 OA
ATOM     27  N   UNL     1      -3.020  -4.299  -1.182  0.00  0.00    -0.325 N 
ATOM     28  C   UNL     1      -3.079  -3.627   0.034  0.00  0.00    +0.246 C 
ATOM     29  H   UNL     1      -3.049  -5.283  -1.203  0.00  0.00    +0.145 HD
ATOM     30  H   UNL     1      -2.950  -3.792  -2.023  0.00  0.00    +0.145 HD
ENDBRANCH  18  28
BRANCH  13  31
ATOM     31  C   UNL     1      -1.728   4.037  -0.047  0.00  0.00    +0.096 C 
ATOM     32  C   UNL     1      -2.533   4.630   1.151  0.00  0.00    +0.017 C 
ATOM     33  C   UNL     1      -2.374   4.575  -1.361  0.00  0.00    +0.017 C 
ATOM     34  C   UNL     1      -0.317   4.710   0.028  0.00  0.00    +0.017 C 
ENDBRANCH  13  31
TORSDOF 2
