REMARK  Name = 24875302
REMARK  15 active torsions:
REMARK  status: ('A' for Active; 'I' for Inactive)
REMARK    1  A    between atoms: C_1  and  C_4
REMARK    2  A    between atoms: C_2  and  C_15
REMARK    3  A    between atoms: C_3  and  C_5
REMARK    4  A    between atoms: C_5  and  O_6
REMARK    5  A    between atoms: C_5  and  C_8
REMARK    6  A    between atoms: C_8  and  C_9
REMARK    7  A    between atoms: C_9  and  C_10
REMARK    8  A    between atoms: C_10  and  C_12
REMARK    9  A    between atoms: C_12  and  O_13
REMARK   10  A    between atoms: C_15  and  C_16
REMARK   11  A    between atoms: C_17  and  C_18
REMARK   12  A    between atoms: C_18  and  C_19
REMARK   13  A    between atoms: C_20  and  C_21
REMARK   14  A    between atoms: C_21  and  C_22
REMARK   15  A    between atoms: C_23  and  C_24
REMARK                            x       y       z     vdW  Elec       q    Type
REMARK                         _______ _______ _______ _____ _____    ______ ____
ROOT
ATOM      1  C   UNL     1      -0.634  -2.263   2.142  0.00  0.00    -0.004 C 
ATOM      2  C   UNL     1      -1.815  -1.750   2.518  0.00  0.00    -0.021 C 
ENDROOT
BRANCH   1   4
ATOM      3  C   UNL     1       1.118  -2.566   0.456  0.00  0.00    +0.003 C 
ATOM      4  C   UNL     1      -0.062  -2.052   0.832  0.00  0.00    -0.003 C 
BRANCH   3   5
ATOM      5  C   UNL     1       1.720  -2.356  -0.906  0.00  0.00    +0.132 C 
BRANCH   5   6
ATOM      6  O   UNL     1       1.818  -3.626  -1.555  0.00  0.00    -0.380 OA
ATOM      7  H   UNL     1       2.205  -3.509  -2.437  0.00  0.00    +0.211 HD
ENDBRANCH   5   6
BRANCH   5   8
ATOM      8  C   UNL     1       3.120  -1.728  -0.855  0.00  0.00    +0.034 C 
BRANCH   8   9
ATOM      9  C   UNL     1       3.131  -0.333  -0.220  0.00  0.00    +0.014 C 
BRANCH   9  10
ATOM     10  C   UNL     1       4.525   0.288  -0.206  0.00  0.00    +0.109 C 
BRANCH  10  12
ATOM     11  O   UNL     1       3.556   2.189   0.926  0.00  0.00    -0.250 OA
ATOM     12  C   UNL     1       4.549   1.631   0.480  0.00  0.00    +0.314 C 
BRANCH  12  13
ATOM     13  O   UNL     1       5.798   2.156   0.556  0.00  0.00    -0.480 OA
ATOM     14  H   UNL     1       6.526   1.687   0.197  0.00  0.00    +0.295 HD
ENDBRANCH  12  13
ENDBRANCH  10  12
ENDBRANCH   9  10
ENDBRANCH   8   9
ENDBRANCH   5   8
ENDBRANCH   3   5
ENDBRANCH   1   4
BRANCH   2  15
ATOM     15  C   UNL     1      -2.675  -0.901   1.627  0.00  0.00    +0.052 C 
BRANCH  15  16
ATOM     16  C   UNL     1      -3.622  -1.736   0.815  0.00  0.00    -0.026 C 
ATOM     17  C   UNL     1      -4.027  -1.415  -0.423  0.00  0.00    -0.026 C 
BRANCH  17  18
ATOM     18  C   UNL     1      -3.584  -0.179  -1.152  0.00  0.00    +0.051 C 
BRANCH  18  19
ATOM     19  C   UNL     1      -2.377  -0.444  -2.003  0.00  0.00    -0.026 C 
ATOM     20  C   UNL     1      -1.456   0.486  -2.301  0.00  0.00    -0.026 C 
BRANCH  20  21
ATOM     21  C   UNL     1      -1.518   1.906  -1.821  0.00  0.00    +0.051 C 
BRANCH  21  22
ATOM     22  C   UNL     1      -0.762   2.088  -0.536  0.00  0.00    -0.026 C 
ATOM     23  C   UNL     1      -1.074   3.011   0.386  0.00  0.00    -0.030 C 
BRANCH  23  24
ATOM     24  C   UNL     1      -2.196   4.012   0.329  0.00  0.00    +0.026 C 
ATOM     25  C   UNL     1      -3.534   3.580   0.913  0.00  0.00    +0.005 C 
ENDBRANCH  23  24
ENDBRANCH  21  22
ENDBRANCH  20  21
ENDBRANCH  18  19
ENDBRANCH  17  18
ENDBRANCH  15  16
ENDBRANCH   2  15
TORSDOF 15
