REMARK  Name = 1415427
REMARK  3 active torsions:
REMARK  status: ('A' for Active; 'I' for Inactive)
REMARK    1  A    between atoms: C_3  and  C_16
REMARK    2  A    between atoms: C_8  and  C_9
REMARK    3  A    between atoms: C_16  and  C_17
REMARK                            x       y       z     vdW  Elec       q    Type
REMARK                         _______ _______ _______ _____ _____    ______ ____
ROOT
ATOM      1  O   UNL     1       2.868   2.716   0.227  0.00  0.00    -0.270 OA
ATOM      2  N   UNL     1       0.985   1.474  -0.386  0.00  0.00    -0.276 N 
ATOM      3  C   UNL     1      -1.840   1.084   0.120  0.00  0.00    +0.008 C 
ATOM      4  C   UNL     1      -1.122   2.394   0.484  0.00  0.00    +0.022 C 
ATOM      5  C   UNL     1      -0.847  -0.089   0.123  0.00  0.00    +0.022 C 
ATOM      6  C   UNL     1       0.092   2.631  -0.412  0.00  0.00    +0.094 C 
ATOM      7  C   UNL     1       0.355   0.205  -0.772  0.00  0.00    +0.094 C 
ATOM      8  C   UNL     1       2.331   1.647  -0.056  0.00  0.00    +0.249 C 
ENDROOT
BRANCH   8   9
ATOM      9  C   UNL     1       3.196   0.460  -0.027  0.00  0.00    +0.054 C 
ATOM     10  C   UNL     1       3.869   0.064  -1.180  0.00  0.00    +0.004 C 
ATOM     11  C   UNL     1       3.340  -0.263   1.155  0.00  0.00    +0.004 C 
ATOM     12  C   UNL     1       4.691  -1.063  -1.151  0.00  0.00    -0.004 C 
ATOM     13  C   UNL     1       4.162  -1.389   1.184  0.00  0.00    -0.004 C 
ATOM     14  C   UNL     1       4.838  -1.789   0.031  0.00  0.00    -0.022 C 
ATOM     15  C   UNL     1       5.716  -2.994   0.061  0.00  0.00    +0.031 C 
ENDBRANCH   8   9
BRANCH   3  16
ATOM     16  C   UNL     1      -2.999   0.817   1.076  0.00  0.00    +0.026 C 
BRANCH  16  17
ATOM     17  C   UNL     1      -4.009  -0.121   0.474  0.00  0.00    -0.022 C 
ATOM     18  C   UNL     1      -5.068   0.393  -0.263  0.00  0.00    -0.004 C 
ATOM     19  C   UNL     1      -3.871  -1.490   0.662  0.00  0.00    -0.004 C 
ATOM     20  C   UNL     1      -6.005  -0.476  -0.821  0.00  0.00    -0.000 C 
ATOM     21  C   UNL     1      -4.807  -2.360   0.104  0.00  0.00    -0.000 C 
ATOM     22  C   UNL     1      -5.875  -1.853  -0.637  0.00  0.00    -0.000 C 
ENDBRANCH  16  17
ENDBRANCH   3  16
TORSDOF 3
