REMARK  Name = 23661697
REMARK  6 active torsions:
REMARK  status: ('A' for Active; 'I' for Inactive)
REMARK    1  A    between atoms: C_10  and  C_17
REMARK    2  A    between atoms: C_12  and  C_16
REMARK    3  A    between atoms: C_17  and  C_18
REMARK    4  A    between atoms: C_18  and  N_19
REMARK    5  A    between atoms: C_18  and  C_23
REMARK    6  A    between atoms: C_23  and  C_27
REMARK                            x       y       z     vdW  Elec       q    Type
REMARK                         _______ _______ _______ _____ _____    ______ ____
ROOT
ATOM      1  O   UNL     1      -0.525   4.289   0.240  0.00  0.00    -0.275 OA
ATOM      2  N   UNL     1       0.688   2.362   0.722  0.00  0.00    -0.272 N 
ATOM      3  N   UNL     1       3.068   1.116   0.074  0.00  0.00    -0.176 N 
ATOM      4  N   UNL     1       2.385  -0.933   0.371  0.00  0.00    -0.332 NA
ATOM      5  N   UNL     1       4.118   0.393  -0.333  0.00  0.00    -0.107 NA
ATOM      6  C   UNL     1       0.740   0.899   0.985  0.00  0.00    +0.145 C 
ATOM      7  C   UNL     1       1.944   3.108   0.910  0.00  0.00    +0.117 C 
ATOM      8  C   UNL     1       3.039   2.558   0.003  0.00  0.00    +0.141 C 
ATOM      9  C   UNL     1       2.031   0.330   0.489  0.00  0.00    +0.209 C 
ATOM     10  C   UNL     1      -0.474   3.065   0.389  0.00  0.00    +0.224 C 
ATOM     11  C   UNL     1       0.556   0.609   2.475  0.00  0.00    +0.031 C 
ATOM     12  C   UNL     1       3.656  -0.844  -0.129  0.00  0.00    +0.176 C 
ENDROOT
BRANCH  12  16
ATOM     13  F   UNL     1       3.811  -3.204  -0.154  0.00  0.00    -0.157 F 
ATOM     14  F   UNL     1       4.837  -2.123  -1.737  0.00  0.00    -0.157 F 
ATOM     15  F   UNL     1       5.616  -2.069   0.298  0.00  0.00    -0.157 F 
ATOM     16  C   UNL     1       4.461  -2.034  -0.427  0.00  0.00    +0.490 C 
ENDBRANCH  12  16
BRANCH  10  17
ATOM     17  C   UNL     1      -1.727   2.248   0.191  0.00  0.00    +0.064 C 
BRANCH  17  18
ATOM     18  C   UNL     1      -1.879   1.790  -1.260  0.00  0.00    -0.052 C 
BRANCH  18  19
ATOM     19  N   UNL     1      -1.864   2.995  -2.100  0.00  0.00    +0.382 N 
ATOM     20  H   UNL     1      -1.001   3.513  -1.935  0.00  0.00    -0.089 HD
ATOM     21  H   UNL     1      -2.663   3.584  -1.865  0.00  0.00    -0.089 HD
ATOM     22  H   UNL     1      -1.917   2.726  -3.082  0.00  0.00    -0.089 HD
ENDBRANCH  18  19
BRANCH  18  23
ATOM     23  C   UNL     1      -3.194   1.026  -1.528  0.00  0.00    +0.007 C 
BRANCH  23  27
ATOM     24  F   UNL     1      -5.290   0.518   0.298  0.00  0.00    -0.204 F 
ATOM     25  F   UNL     1      -1.615  -3.457  -0.481  0.00  0.00    -0.202 F 
ATOM     26  F   UNL     1      -3.687  -3.829   1.261  0.00  0.00    -0.202 F 
ATOM     27  C   UNL     1      -3.329  -0.277  -0.777  0.00  0.00    +0.006 C 
ATOM     28  C   UNL     1      -4.385  -0.451   0.103  0.00  0.00    +0.138 C 
ATOM     29  C   UNL     1      -2.391  -1.276  -0.984  0.00  0.00    +0.030 C 
ATOM     30  C   UNL     1      -2.513  -2.481  -0.291  0.00  0.00    +0.167 C 
ATOM     31  C   UNL     1      -4.506  -1.656   0.795  0.00  0.00    +0.061 C 
ATOM     32  C   UNL     1      -3.570  -2.671   0.598  0.00  0.00    +0.170 C 
ENDBRANCH  23  27
ENDBRANCH  18  23
ENDBRANCH  17  18
ENDBRANCH  10  17
TORSDOF 6
