REMARK  Name = 15942652
REMARK  5 active torsions:
REMARK  status: ('A' for Active; 'I' for Inactive)
REMARK    1  A    between atoms: C_3  and  N_16
REMARK    2  A    between atoms: C_10  and  C_20
REMARK    3  A    between atoms: C_11  and  O_30
REMARK    4  A    between atoms: C_23  and  O_26
REMARK    5  A    between atoms: C_25  and  O_28
REMARK                            x       y       z     vdW  Elec       q    Type
REMARK                         _______ _______ _______ _____ _____    ______ ____
ROOT
ATOM      1  O   UNL     1       0.044  -0.195   0.070  0.00  0.00    -0.449 OA
ATOM      2  O   UNL     1      -0.524  -4.218  -0.241  0.00  0.00    -0.283 OA
ATOM      3  C   UNL     1      -2.273   0.184   0.311  0.00  0.00    +0.103 C 
ATOM      4  C   UNL     1      -1.222  -0.716   0.135  0.00  0.00    +0.163 A 
ATOM      5  C   UNL     1      -3.584  -0.285   0.384  0.00  0.00    +0.015 C 
ATOM      6  C   UNL     1      -1.484  -2.081   0.033  0.00  0.00    +0.078 A 
ATOM      7  C   UNL     1      -3.845  -1.652   0.282  0.00  0.00    -0.020 C 
ATOM      8  C   UNL     1      -2.796  -2.555   0.106  0.00  0.00    +0.002 C 
ATOM      9  C   UNL     1      -0.357  -3.009  -0.151  0.00  0.00    +0.235 A 
ATOM     10  C   UNL     1       1.108  -1.063  -0.116  0.00  0.00    +0.182 A 
ATOM     11  C   UNL     1       0.993  -2.400  -0.220  0.00  0.00    +0.208 A 
ATOM     12  C   UNL     1      -5.249  -2.150   0.362  0.00  0.00    +0.031 C 
ENDROOT
BRANCH   3  16
ATOM     13  S   UNL     1      -2.242   2.597  -0.999  0.00  0.00    +0.057 S 
ATOM     14  O   UNL     1      -0.960   2.792  -1.645  0.00  0.00    -0.154 OA
ATOM     15  O   UNL     1      -3.420   2.180  -1.733  0.00  0.00    -0.154 OA
ATOM     16  N   UNL     1      -2.026   1.611   0.420  0.00  0.00    -0.191 N 
ATOM     17  C   UNL     1      -2.429   2.361   1.644  0.00  0.00    +0.117 C 
ATOM     18  C   UNL     1      -2.660   4.067  -0.075  0.00  0.00    +0.174 C 
ATOM     19  C   UNL     1      -2.127   3.823   1.327  0.00  0.00    +0.051 C 
ENDBRANCH   3  16
BRANCH  10  20
ATOM     20  C   UNL     1       2.410  -0.375  -0.168  0.00  0.00    +0.041 C 
ATOM     21  C   UNL     1       3.128  -0.150   1.007  0.00  0.00    +0.043 C 
ATOM     22  C   UNL     1       2.925   0.053  -1.392  0.00  0.00    +0.006 C 
ATOM     23  C   UNL     1       4.360   0.502   0.958  0.00  0.00    +0.168 C 
ATOM     24  C   UNL     1       4.156   0.705  -1.441  0.00  0.00    +0.040 C 
ATOM     25  C   UNL     1       4.874   0.930  -0.267  0.00  0.00    +0.167 C 
BRANCH  23  26
ATOM     26  O   UNL     1       5.052   0.716   2.112  0.00  0.00    -0.503 OA
ATOM     27  H   UNL     1       4.699   0.425   2.930  0.00  0.00    +0.292 HD
ENDBRANCH  23  26
BRANCH  25  28
ATOM     28  O   UNL     1       6.077   1.567  -0.328  0.00  0.00    -0.503 OA
ATOM     29  H   UNL     1       6.565   1.721   0.457  0.00  0.00    +0.292 HD
ENDBRANCH  25  28
ENDBRANCH  10  20
BRANCH  11  30
ATOM     30  O   UNL     1       2.076  -3.239  -0.373  0.00  0.00    -0.501 OA
ATOM     31  H   UNL     1       1.945  -4.164  -0.441  0.00  0.00    +0.292 HD
ENDBRANCH  11  30
TORSDOF 5
