REMARK  Name = 19826721
REMARK  4 active torsions:
REMARK  status: ('A' for Active; 'I' for Inactive)
REMARK    1  A    between atoms: C_1  and  N_11
REMARK    2  A    between atoms: C_2  and  C_8
REMARK    3  A    between atoms: C_8  and  O_9
REMARK    4  A    between atoms: N_11  and  C_13
REMARK                            x       y       z     vdW  Elec       q    Type
REMARK                         _______ _______ _______ _____ _____    ______ ____
ROOT
ATOM      1  C   UNL     1       0.769   0.440   0.218  0.00  0.00    +0.051 C 
ATOM      2  C   UNL     1       1.835  -0.416  -0.064  0.00  0.00    +0.089 C 
ATOM      3  C   UNL     1       0.978   1.818   0.274  0.00  0.00    +0.015 C 
ATOM      4  C   UNL     1       3.108   0.107  -0.289  0.00  0.00    +0.008 C 
ATOM      5  C   UNL     1       2.251   2.341   0.048  0.00  0.00    +0.001 C 
ATOM      6  C   UNL     1       3.316   1.486  -0.233  0.00  0.00    +0.000 C 
ENDROOT
BRANCH   2   8
ATOM      7  O   UNL     1       0.613  -2.432  -0.472  0.00  0.00    -0.245 OA
ATOM      8  C   UNL     1       1.651  -1.860  -0.130  0.00  0.00    +0.339 C 
BRANCH   8   9
ATOM      9  O   UNL     1       2.771  -2.541   0.233  0.00  0.00    -0.477 OA
ATOM     10  H   UNL     1       3.542  -2.074   0.487  0.00  0.00    +0.295 HD
ENDBRANCH   8   9
ENDBRANCH   2   8
BRANCH   1  11
ATOM     11  N   UNL     1      -0.500  -0.059   0.443  0.00  0.00    -0.334 N 
ATOM     12  H   UNL     1      -0.633  -1.034   0.400  0.00  0.00    +0.147 HD
BRANCH  11  13
ATOM     13  C   UNL     1      -1.648   0.777   0.740  0.00  0.00    +0.069 C 
ATOM     14  C   UNL     1      -2.182   1.413  -0.547  0.00  0.00    +0.019 C 
ATOM     15  C   UNL     1      -2.728  -0.045   1.452  0.00  0.00    +0.019 C 
ATOM     16  C   UNL     1      -2.869   0.402  -1.466  0.00  0.00    +0.002 C 
ATOM     17  C   UNL     1      -3.412  -1.051   0.525  0.00  0.00    +0.002 C 
ATOM     18  C   UNL     1      -3.954  -0.380  -0.733  0.00  0.00    +0.000 C 
ENDBRANCH  11  13
ENDBRANCH   1  11
TORSDOF 4
