REMARK  Name = 9826528
REMARK  9 active torsions:
REMARK  status: ('A' for Active; 'I' for Inactive)
REMARK    1  A    between atoms: C_3  and  N_21
REMARK    2  A    between atoms: C_4  and  C_11
REMARK    3  A    between atoms: N_10  and  O_13
REMARK    4  A    between atoms: O_13  and  C_14
REMARK    5  A    between atoms: C_14  and  C_15
REMARK    6  A    between atoms: C_15  and  O_16
REMARK    7  A    between atoms: C_15  and  C_18
REMARK    8  A    between atoms: C_18  and  O_19
REMARK    9  A    between atoms: N_21  and  C_25
REMARK                            x       y       z     vdW  Elec       q    Type
REMARK                         _______ _______ _______ _____ _____    ______ ____
ROOT
ATOM      1  F   UNL     1       3.034  -1.802  -0.763  0.00  0.00    -0.200 F 
ATOM      2  F   UNL     1       2.277  -4.412  -0.565  0.00  0.00    -0.202 F 
ATOM      3  C   UNL     1       0.861  -1.090  -0.119  0.00  0.00    +0.083 C 
ATOM      4  C   UNL     1      -0.422  -1.436   0.254  0.00  0.00    +0.071 C 
ATOM      5  C   UNL     1       1.779  -2.102  -0.398  0.00  0.00    +0.181 C 
ATOM      6  C   UNL     1      -0.826  -2.752   0.360  0.00  0.00    +0.008 C 
ATOM      7  C   UNL     1       1.395  -3.439  -0.297  0.00  0.00    +0.169 C 
ATOM      8  C   UNL     1       0.093  -3.764   0.082  0.00  0.00    +0.032 C 
ENDROOT
BRANCH   4  11
ATOM      9  O   UNL     1      -1.053   0.689   1.032  0.00  0.00    -0.268 OA
ATOM     10  N   UNL     1      -2.734  -0.708   0.295  0.00  0.00    -0.190 N 
ATOM     11  C   UNL     1      -1.426  -0.382   0.559  0.00  0.00    +0.269 C 
ATOM     12  H   UNL     1      -2.999  -1.583  -0.072  0.00  0.00    +0.183 HD
BRANCH  10  13
ATOM     13  O   UNL     1      -3.667   0.303   0.591  0.00  0.00    -0.263 OA
BRANCH  13  14
ATOM     14  C   UNL     1      -4.767   0.172  -0.304  0.00  0.00    +0.203 C 
BRANCH  14  15
ATOM     15  C   UNL     1      -5.802   1.254  -0.013  0.00  0.00    +0.172 C 
BRANCH  15  16
ATOM     16  O   UNL     1      -6.279   1.085   1.323  0.00  0.00    -0.379 OA
ATOM     17  H   UNL     1      -5.535   1.147   1.943  0.00  0.00    +0.211 HD
ENDBRANCH  15  16
BRANCH  15  18
ATOM     18  C   UNL     1      -6.994   1.151  -0.955  0.00  0.00    +0.169 C 
BRANCH  18  19
ATOM     19  O   UNL     1      -7.937   2.164  -0.620  0.00  0.00    -0.379 OA
ATOM     20  H   UNL     1      -8.700   2.105  -1.216  0.00  0.00    +0.211 HD
ENDBRANCH  18  19
ENDBRANCH  15  18
ENDBRANCH  14  15
ENDBRANCH  13  14
ENDBRANCH  10  13
ENDBRANCH   4  11
BRANCH   3  21
ATOM     21  N   UNL     1       1.267   0.259  -0.226  0.00  0.00    -0.309 N 
ATOM     22  H   UNL     1       0.539   0.873  -0.476  0.00  0.00    +0.152 HD
BRANCH  21  25
ATOM     23  I   UNL     1       6.808   3.095   0.587  0.00  0.00    -0.042 I 
ATOM     24  F   UNL     1       1.940   2.558  -1.643  0.00  0.00    -0.203 F 
ATOM     25  C   UNL     1       2.508   0.896  -0.045  0.00  0.00    +0.076 C 
ATOM     26  C   UNL     1       2.820   2.049  -0.770  0.00  0.00    +0.154 C 
ATOM     27  C   UNL     1       3.435   0.376   0.861  0.00  0.00    +0.017 C 
ATOM     28  C   UNL     1       4.051   2.678  -0.589  0.00  0.00    +0.037 C 
ATOM     29  C   UNL     1       4.666   1.006   1.043  0.00  0.00    +0.007 C 
ATOM     30  C   UNL     1       4.974   2.157   0.318  0.00  0.00    +0.032 C 
ENDBRANCH  21  25
ENDBRANCH   3  21
TORSDOF 9
