REMARK  Name = 25113125
REMARK  7 active torsions:
REMARK  status: ('A' for Active; 'I' for Inactive)
REMARK    1  A    between atoms: C_3  and  C_10
REMARK    2  A    between atoms: C_7  and  C_19
REMARK    3  A    between atoms: N_9  and  C_12
REMARK    4  A    between atoms: C_12  and  C_13
REMARK    5  A    between atoms: C_19  and  N_20
REMARK    6  A    between atoms: C_19  and  C_24
REMARK    7  A    between atoms: C_24  and  C_25
REMARK                            x       y       z     vdW  Elec       q    Type
REMARK                         _______ _______ _______ _____ _____    ______ ____
ROOT
ATOM      1  O   UNL     1      -0.047  -1.265  -0.070  0.00  0.00    -0.277 OA
ATOM      2  N   UNL     1      -0.759   0.850   0.543  0.00  0.00    -0.275 N 
ATOM      3  C   UNL     1       0.106   1.588  -0.368  0.00  0.00    +0.152 C 
ATOM      4  C   UNL     1      -0.469   2.999  -0.390  0.00  0.00    +0.031 C 
ATOM      5  C   UNL     1      -1.105   3.145   0.990  0.00  0.00    +0.024 C 
ATOM      6  C   UNL     1      -1.644   1.752   1.275  0.00  0.00    +0.094 C 
ATOM      7  C   UNL     1      -0.812  -0.535   0.562  0.00  0.00    +0.206 C 
ENDROOT
BRANCH   3  10
ATOM      8  O   UNL     1       1.679   1.500   1.425  0.00  0.00    -0.273 OA
ATOM      9  N   UNL     1       2.468   1.627  -0.761  0.00  0.00    -0.299 N 
ATOM     10  C   UNL     1       1.488   1.558   0.214  0.00  0.00    +0.241 C 
ATOM     11  H   UNL     1       2.189   1.670  -1.704  0.00  0.00    +0.150 HD
BRANCH   9  12
ATOM     12  C   UNL     1       3.882   1.638  -0.461  0.00  0.00    +0.116 C 
BRANCH  12  13
ATOM     13  C   UNL     1       4.458   0.253  -0.416  0.00  0.00    -0.003 C 
ATOM     14  C   UNL     1       4.474  -0.457   0.785  0.00  0.00    -0.003 C 
ATOM     15  C   UNL     1       4.975  -0.326  -1.575  0.00  0.00    -0.003 C 
ATOM     16  C   UNL     1       5.008  -1.745   0.827  0.00  0.00    -0.000 C 
ATOM     17  C   UNL     1       5.509  -1.614  -1.533  0.00  0.00    -0.000 C 
ATOM     18  C   UNL     1       5.526  -2.323  -0.332  0.00  0.00    -0.000 C 
ENDBRANCH  12  13
ENDBRANCH   9  12
ENDBRANCH   3  10
BRANCH   7  19
ATOM     19  C   UNL     1      -1.885  -1.132   1.437  0.00  0.00    +0.018 C 
BRANCH  19  20
ATOM     20  N   UNL     1      -1.172  -1.867   2.473  0.00  0.00    +0.388 N 
ATOM     21  H   UNL     1      -0.570  -1.227   2.991  0.00  0.00    -0.089 HD
ATOM     22  H   UNL     1      -0.603  -2.596   2.042  0.00  0.00    -0.089 HD
ATOM     23  H   UNL     1      -1.844  -2.293   3.112  0.00  0.00    -0.089 HD
ENDBRANCH  19  20
BRANCH  19  24
ATOM     24  C   UNL     1      -2.802  -2.054   0.634  0.00  0.00    +0.013 C 
BRANCH  24  25
ATOM     25  C   UNL     1      -3.848  -1.298  -0.152  0.00  0.00    -0.024 C 
ATOM     26  C   UNL     1      -5.086  -1.015   0.426  0.00  0.00    -0.004 C 
ATOM     27  C   UNL     1      -3.576  -0.881  -1.455  0.00  0.00    -0.004 C 
ATOM     28  C   UNL     1      -6.051  -0.316  -0.298  0.00  0.00    -0.000 C 
ATOM     29  C   UNL     1      -4.541  -0.181  -2.179  0.00  0.00    -0.000 C 
ATOM     30  C   UNL     1      -5.779   0.101  -1.601  0.00  0.00    -0.000 C 
ENDBRANCH  24  25
ENDBRANCH  19  24
ENDBRANCH   7  19
TORSDOF 7
