REMARK  Name = 10041129
REMARK  6 active torsions:
REMARK  status: ('A' for Active; 'I' for Inactive)
REMARK    1  A    between atoms: C_2  and  O_18
REMARK    2  A    between atoms: C_3  and  O_20
REMARK    3  A    between atoms: C_4  and  N_6
REMARK    4  A    between atoms: C_5  and  C_22
REMARK    5  A    between atoms: C_22  and  S_23
REMARK    6  A    between atoms: S_23  and  C_24
REMARK                            x       y       z     vdW  Elec       q    Type
REMARK                         _______ _______ _______ _____ _____    ______ ____
ROOT
ATOM      1  O   UNL     1       1.486  -0.502   0.995  0.00  0.00    -0.335 OA
ATOM      2  C   UNL     1       0.753  -1.786  -0.855  0.00  0.00    +0.187 C 
ATOM      3  C   UNL     1       2.111  -2.305  -0.428  0.00  0.00    +0.169 C 
ATOM      4  C   UNL     1       0.298  -1.060   0.402  0.00  0.00    +0.225 C 
ATOM      5  C   UNL     1       2.643  -1.160   0.428  0.00  0.00    +0.157 C 
ENDROOT
BRANCH   4   6
ATOM      6  N   UNL     1      -0.676   0.002   0.156  0.00  0.00    -0.247 N 
ATOM      7  N   UNL     1      -1.475   2.026  -0.335  0.00  0.00    -0.242 NA
ATOM      8  N   UNL     1      -2.761  -1.194   0.504  0.00  0.00    -0.228 NA
ATOM      9  N   UNL     1      -4.688   0.268   0.179  0.00  0.00    -0.229 NA
ATOM     10  C   UNL     1      -2.037  -0.103   0.213  0.00  0.00    +0.152 C 
ATOM     11  C   UNL     1      -0.388   1.301  -0.176  0.00  0.00    +0.223 C 
ATOM     12  C   UNL     1      -2.513   1.161  -0.095  0.00  0.00    +0.140 C 
ATOM     13  C   UNL     1      -3.895   1.328  -0.106  0.00  0.00    +0.143 C 
ATOM     14  C   UNL     1      -4.081  -0.910   0.462  0.00  0.00    +0.253 C 
ATOM     15  N   UNL     1      -4.465   2.576  -0.410  0.00  0.00    -0.342 N 
ATOM     16  H   UNL     1      -5.443   2.683  -0.415  0.00  0.00    +0.144 HD
ATOM     17  H   UNL     1      -3.885   3.345  -0.618  0.00  0.00    +0.144 HD
ENDBRANCH   4   6
BRANCH   2  18
ATOM     18  O   UNL     1      -0.143  -2.816  -1.222  0.00  0.00    -0.378 OA
ATOM     19  H   UNL     1       0.180  -3.254  -2.025  0.00  0.00    +0.211 HD
ENDBRANCH   2  18
BRANCH   3  20
ATOM     20  O   UNL     1       1.943  -3.457   0.398  0.00  0.00    -0.379 OA
ATOM     21  H   UNL     1       1.605  -4.192  -0.137  0.00  0.00    +0.211 HD
ENDBRANCH   3  20
BRANCH   5  22
ATOM     22  C   UNL     1       3.432  -0.135  -0.376  0.00  0.00    +0.090 C 
BRANCH  22  23
ATOM     23  S   UNL     1       4.038   1.185   0.707  0.00  0.00    -0.138 S 
BRANCH  23  24
ATOM     24  C   UNL     1       4.894   2.179  -0.538  0.00  0.00    +0.058 C 
ATOM     25  C   UNL     1       5.526   3.401   0.099  0.00  0.00    +0.013 C 
ENDBRANCH  23  24
ENDBRANCH  22  23
ENDBRANCH   5  22
TORSDOF 6
