REMARK  Name = 9547959
REMARK  7 active torsions:
REMARK  status: ('A' for Active; 'I' for Inactive)
REMARK    1  A    between atoms: C_3  and  C_7
REMARK    2  A    between atoms: C_4  and  O_17
REMARK    3  A    between atoms: C_6  and  C_14
REMARK    4  A    between atoms: C_14  and  O_15
REMARK    5  A    between atoms: O_17  and  C_18
REMARK    6  A    between atoms: C_18  and  C_20
REMARK    7  A    between atoms: C_20  and  O_21
REMARK                            x       y       z     vdW  Elec       q    Type
REMARK                         _______ _______ _______ _____ _____    ______ ____
ROOT
ATOM      1 BR   UNL     1      -0.352  -2.466   0.650  0.00  0.00    -0.045 Br
ATOM      2  S   UNL     1      -0.823   1.844  -0.186  0.00  0.00    -0.077 S 
ATOM      3  C   UNL     1      -1.319   0.222   0.061  0.00  0.00    +0.039 A 
ATOM      4  C   UNL     1       0.991   0.095   0.315  0.00  0.00    +0.158 A 
ATOM      5  C   UNL     1      -0.248  -0.608   0.320  0.00  0.00    +0.075 A 
ATOM      6  C   UNL     1       0.823   1.437   0.052  0.00  0.00    +0.139 A 
ENDROOT
BRANCH   3   7
ATOM      7  C   UNL     1      -2.727  -0.080  -0.024  0.00  0.00    +0.007 C 
ATOM      8  C   UNL     1      -3.526  -0.009   1.117  0.00  0.00    +0.001 C 
ATOM      9  C   UNL     1      -3.290  -0.442  -1.248  0.00  0.00    +0.001 C 
ATOM     10  C   UNL     1      -4.887  -0.300   1.034  0.00  0.00    +0.000 C 
ATOM     11  C   UNL     1      -4.651  -0.733  -1.331  0.00  0.00    +0.000 C 
ATOM     12  C   UNL     1      -5.450  -0.662  -0.189  0.00  0.00    +0.000 C 
ENDBRANCH   3   7
BRANCH   6  14
ATOM     13  O   UNL     1       1.613   3.675  -0.278  0.00  0.00    -0.244 OA
ATOM     14  C   UNL     1       1.806   2.470  -0.038  0.00  0.00    +0.347 C 
BRANCH  14  15
ATOM     15  O   UNL     1       3.083   2.014   0.173  0.00  0.00    -0.477 OA
ATOM     16  H   UNL     1       3.233   1.107   0.354  0.00  0.00    +0.295 HD
ENDBRANCH  14  15
ENDBRANCH   6  14
BRANCH   4  17
ATOM     17  O   UNL     1       2.204  -0.445   0.536  0.00  0.00    -0.463 OA
BRANCH  17  18
ATOM     18  C   UNL     1       2.928  -0.940  -0.598  0.00  0.00    +0.314 C 
BRANCH  18  20
ATOM     19  O   UNL     1       4.659  -1.542   0.998  0.00  0.00    -0.246 OA
ATOM     20  C   UNL     1       4.243  -1.516  -0.151  0.00  0.00    +0.359 C 
BRANCH  20  21
ATOM     21  O   UNL     1       4.921  -2.015  -1.214  0.00  0.00    -0.478 OA
ATOM     22  H   UNL     1       4.549  -1.966  -2.073  0.00  0.00    +0.295 HD
ENDBRANCH  20  21
ENDBRANCH  18  20
ENDBRANCH  17  18
ENDBRANCH   4  17
TORSDOF 7
