REMARK  Name = 961704
REMARK  6 active torsions:
REMARK  status: ('A' for Active; 'I' for Inactive)
REMARK    1  A    between atoms: N_1  and  C_15
REMARK    2  A    between atoms: C_15  and  C_16
REMARK    3  A    between atoms: C_16  and  O_17
REMARK    4  A    between atoms: C_16  and  C_19
REMARK    5  A    between atoms: C_19  and  N_20
REMARK    6  A    between atoms: N_20  and  C_23
REMARK                            x       y       z     vdW  Elec       q    Type
REMARK                         _______ _______ _______ _____ _____    ______ ____
ROOT
ATOM      1  N   UNL     1       1.141  -0.156  -0.207  0.00  0.00    -0.329 N 
ATOM      2  C   UNL     1       1.675  -1.411  -0.150  0.00  0.00    +0.033 A 
ATOM      3  C   UNL     1       3.050  -1.302  -0.131  0.00  0.00    -0.009 A 
ATOM      4  C   UNL     1       0.889  -2.671  -0.085  0.00  0.00    +0.043 C 
ATOM      5  C   UNL     1       3.943  -2.495  -0.086  0.00  0.00    +0.028 C 
ATOM      6  C   UNL     1       1.807  -3.871  -0.381  0.00  0.00    +0.007 C 
ATOM      7  C   UNL     1       3.368   0.084  -0.188  0.00  0.00    +0.013 A 
ATOM      8  C   UNL     1       3.165  -3.757   0.338  0.00  0.00    +0.005 C 
ATOM      9  C   UNL     1       2.154   0.779  -0.234  0.00  0.00    +0.059 A 
ATOM     10  C   UNL     1       4.569   0.820  -0.207  0.00  0.00    -0.003 C 
ATOM     11  C   UNL     1       2.087   2.176  -0.295  0.00  0.00    +0.017 C 
ATOM     12  C   UNL     1       4.516   2.217  -0.269  0.00  0.00    -0.022 C 
ATOM     13  C   UNL     1       3.293   2.882  -0.312  0.00  0.00    -0.003 C 
ATOM     14  C   UNL     1       5.786   3.002  -0.290  0.00  0.00    +0.031 C 
ENDROOT
BRANCH   1  15
ATOM     15  C   UNL     1      -0.274   0.152  -0.230  0.00  0.00    +0.133 C 
BRANCH  15  16
ATOM     16  C   UNL     1      -0.853   0.328   1.179  0.00  0.00    +0.112 C 
BRANCH  16  17
ATOM     17  O   UNL     1      -0.175   1.417   1.809  0.00  0.00    -0.385 OA
ATOM     18  H   UNL     1       0.778   1.235   1.832  0.00  0.00    +0.210 HD
ENDBRANCH  16  17
BRANCH  16  19
ATOM     19  C   UNL     1      -2.351   0.652   1.161  0.00  0.00    -0.050 C 
BRANCH  19  20
ATOM     20  N   UNL     1      -3.128  -0.381   0.489  0.00  0.00    +0.387 N 
ATOM     21  H   UNL     1      -2.784  -0.489  -0.465  0.00  0.00    -0.084 HD
ATOM     22  H   UNL     1      -3.025  -1.254   1.006  0.00  0.00    -0.084 HD
BRANCH  20  23
ATOM     23  C   UNL     1      -4.545  -0.027   0.449  0.00  0.00    -0.062 C 
ATOM     24  C   UNL     1      -4.730   1.298  -0.299  0.00  0.00    -0.021 C 
ATOM     25  C   UNL     1      -5.345  -1.153  -0.214  0.00  0.00    -0.021 C 
ATOM     26  C   UNL     1      -6.208   1.663  -0.427  0.00  0.00    -0.002 C 
ATOM     27  C   UNL     1      -6.822  -0.785  -0.343  0.00  0.00    -0.002 C 
ATOM     28  C   UNL     1      -7.011   0.539  -1.077  0.00  0.00    -0.000 C 
ENDBRANCH  20  23
ENDBRANCH  19  20
ENDBRANCH  16  19
ENDBRANCH  15  16
ENDBRANCH   1  15
TORSDOF 6
