MODEL 1
REMARK VINA RESULT:     -12.0      0.000      0.000
REMARK  Name = 46937091
REMARK  8 active torsions:
REMARK  status: ('A' for Active; 'I' for Inactive)
REMARK    1  A    between atoms: C_1  and  C_4
REMARK    2  A    between atoms: C_1  and  C_18
REMARK    3  A    between atoms: C_10  and  C_12
REMARK    4  A    between atoms: C_18  and  C_19
REMARK    5  A    between atoms: C_19  and  N_20
REMARK    6  A    between atoms: C_19  and  C_30
REMARK    7  A    between atoms: C_24  and  C_27
REMARK    8  A    between atoms: C_30  and  O_32
REMARK                            x       y       z     vdW  Elec       q    Type
REMARK                         _______ _______ _______ _____ _____    ______ ____
ROOT
ATOM      1  C   UNL     1      34.165 -24.068 -14.177  0.00  0.00    +0.031 C 
ENDROOT
BRANCH   1   4
ATOM      2  O   UNL     1      33.258 -22.535 -16.663  0.00  0.00    -0.425 OA
ATOM      3  N   UNL     1      31.137 -22.139 -17.355  0.00  0.00    -0.368 NA
ATOM      4  C   UNL     1      32.744 -23.820 -14.616  0.00  0.00    +0.014 C 
ATOM      5  C   UNL     1      32.408 -23.110 -15.763  0.00  0.00    +0.170 C 
ATOM      6  C   UNL     1      31.666 -24.304 -13.867  0.00  0.00    -0.005 C 
ATOM      7  C   UNL     1      31.111 -22.867 -16.190  0.00  0.00    +0.151 C 
ATOM      8  C   UNL     1      30.342 -24.080 -14.262  0.00  0.00    -0.019 C 
ATOM      9  C   UNL     1      30.042 -23.359 -15.428  0.00  0.00    +0.088 C 
ATOM     10  C   UNL     1      32.421 -21.977 -17.582  0.00  0.00    +0.282 C 
BRANCH  10  12
ATOM     11 CL   UNL     1      35.119 -19.141 -22.060  0.00  0.00    -0.082 Cl
ATOM     12  C   UNL     1      33.074 -21.292 -18.664  0.00  0.00    +0.066 C 
ATOM     13  C   UNL     1      32.328 -20.505 -19.541  0.00  0.00    +0.007 C 
ATOM     14  C   UNL     1      34.452 -21.412 -18.836  0.00  0.00    +0.007 C 
ATOM     15  C   UNL     1      32.960 -19.840 -20.591  0.00  0.00    +0.012 C 
ATOM     16  C   UNL     1      35.085 -20.748 -19.886  0.00  0.00    +0.012 C 
ATOM     17  C   UNL     1      34.338 -19.961 -20.764  0.00  0.00    +0.058 C 
ENDBRANCH  10  12
ENDBRANCH   1   4
BRANCH   1  18
ATOM     18  C   UNL     1      34.402 -23.902 -12.666  0.00  0.00    +0.023 C 
BRANCH  18  19
ATOM     19  C   UNL     1      35.759 -23.255 -12.280  0.00  0.00    +0.087 C 
BRANCH  19  20
ATOM     20  N   UNL     1      36.877 -23.605 -13.254  0.00  0.00    -0.246 NA
ATOM     21  N   UNL     1      38.217 -23.466 -15.020  0.00  0.00    -0.251 NA
ATOM     22  C   UNL     1      37.735 -24.663 -13.155  0.00  0.00    +0.125 C 
ATOM     23  C   UNL     1      37.204 -22.915 -14.388  0.00  0.00    +0.201 C 
ATOM     24  C   UNL     1      38.553 -24.556 -14.256  0.00  0.00    +0.124 C 
BRANCH  24  27
ATOM     25  O   UNL     1      40.037 -25.565 -15.782  0.00  0.00    -0.269 OA
ATOM     26  N   UNL     1      40.243 -26.176 -13.581  0.00  0.00    -0.324 N 
ATOM     27  C   UNL     1      39.623 -25.439 -14.602  0.00  0.00    +0.257 C 
ATOM     28  H   UNL     1      40.982 -26.790 -13.796  0.00  0.00    +0.145 HD
ATOM     29  H   UNL     1      39.939 -26.079 -12.650  0.00  0.00    +0.145 HD
ENDBRANCH  24  27
ENDBRANCH  19  20
BRANCH  19  30
ATOM     30  C   UNL     1      36.117 -23.584 -10.805  0.00  0.00    +0.125 C 
ATOM     31  C   UNL     1      34.994 -24.275 -10.038  0.00  0.00    +0.033 C 
BRANCH  30  32
ATOM     32  O   UNL     1      36.508 -22.405 -10.104  0.00  0.00    -0.383 OA
ATOM     33  H   UNL     1      36.510 -21.652 -10.715  0.00  0.00    +0.210 HD
ENDBRANCH  30  32
ENDBRANCH  19  30
ENDBRANCH  18  19
ENDBRANCH   1  18
TORSDOF 8
ENDMDL
MODEL 2
REMARK VINA RESULT:     -11.6      3.592      7.267
REMARK  Name = 46937091
REMARK  8 active torsions:
REMARK  status: ('A' for Active; 'I' for Inactive)
REMARK    1  A    between atoms: C_1  and  C_4
REMARK    2  A    between atoms: C_1  and  C_18
REMARK    3  A    between atoms: C_10  and  C_12
REMARK    4  A    between atoms: C_18  and  C_19
REMARK    5  A    between atoms: C_19  and  N_20
REMARK    6  A    between atoms: C_19  and  C_30
REMARK    7  A    between atoms: C_24  and  C_27
REMARK    8  A    between atoms: C_30  and  O_32
REMARK                            x       y       z     vdW  Elec       q    Type
REMARK                         _______ _______ _______ _____ _____    ______ ____
ROOT
ATOM      1  C   UNL     1      32.716 -23.091 -16.863  0.00  0.00    +0.031 C 
ENDROOT
BRANCH   1   4
ATOM      2  O   UNL     1      34.298 -21.202 -18.674  0.00  0.00    -0.425 OA
ATOM      3  N   UNL     1      36.452 -20.536 -18.444  0.00  0.00    -0.368 NA
ATOM      4  C   UNL     1      34.150 -22.663 -16.686  0.00  0.00    +0.014 C 
ATOM      5  C   UNL     1      34.805 -21.797 -17.555  0.00  0.00    +0.170 C 
ATOM      6  C   UNL     1      34.912 -23.130 -15.610  0.00  0.00    -0.005 C 
ATOM      7  C   UNL     1      36.123 -21.387 -17.417  0.00  0.00    +0.151 C 
ATOM      8  C   UNL     1      36.245 -22.741 -15.434  0.00  0.00    -0.019 C 
ATOM      9  C   UNL     1      36.872 -21.864 -16.332  0.00  0.00    +0.088 C 
ATOM     10  C   UNL     1      35.343 -20.467 -19.146  0.00  0.00    +0.282 C 
BRANCH  10  12
ATOM     11 CL   UNL     1      34.224 -17.391 -24.113  0.00  0.00    -0.082 Cl
ATOM     12  C   UNL     1      35.072 -19.724 -20.347  0.00  0.00    +0.066 C 
ATOM     13  C   UNL     1      36.080 -18.961 -20.936  0.00  0.00    +0.007 C 
ATOM     14  C   UNL     1      33.802 -19.765 -20.922  0.00  0.00    +0.007 C 
ATOM     15  C   UNL     1      35.817 -18.239 -22.101  0.00  0.00    +0.012 C 
ATOM     16  C   UNL     1      33.540 -19.044 -22.086  0.00  0.00    +0.012 C 
ATOM     17  C   UNL     1      34.548 -18.281 -22.676  0.00  0.00    +0.058 C 
ENDBRANCH  10  12
ENDBRANCH   1   4
BRANCH   1  18
ATOM     18  C   UNL     1      31.789 -22.705 -15.698  0.00  0.00    +0.023 C 
BRANCH  18  19
ATOM     19  C   UNL     1      30.801 -23.814 -15.247  0.00  0.00    +0.087 C 
BRANCH  19  20
ATOM     20  N   UNL     1      29.377 -23.566 -15.727  0.00  0.00    -0.246 NA
ATOM     21  N   UNL     1      27.440 -23.906 -16.759  0.00  0.00    -0.251 NA
ATOM     22  C   UNL     1      28.609 -22.472 -15.448  0.00  0.00    +0.125 C 
ATOM     23  C   UNL     1      28.635 -24.399 -16.516  0.00  0.00    +0.201 C 
ATOM     24  C   UNL     1      27.417 -22.704 -16.096  0.00  0.00    +0.124 C 
BRANCH  24  27
ATOM     25  O   UNL     1      25.569 -21.648 -15.088  0.00  0.00    -0.269 OA
ATOM     26  N   UNL     1      25.957 -21.167 -17.296  0.00  0.00    -0.324 N 
ATOM     27  C   UNL     1      26.279 -21.839 -16.107  0.00  0.00    +0.257 C 
ATOM     28  H   UNL     1      25.178 -20.566 -17.327  0.00  0.00    +0.145 HD
ATOM     29  H   UNL     1      26.511 -21.297 -18.099  0.00  0.00    +0.145 HD
ENDBRANCH  24  27
ENDBRANCH  19  20
BRANCH  19  30
ATOM     30  C   UNL     1      30.893 -24.033 -13.713  0.00  0.00    +0.125 C 
ATOM     31  C   UNL     1      31.291 -22.782 -12.935  0.00  0.00    +0.033 C 
BRANCH  30  32
ATOM     32  O   UNL     1      31.803 -25.087 -13.405  0.00  0.00    -0.383 OA
ATOM     33  H   UNL     1      31.434 -25.634 -12.694  0.00  0.00    +0.210 HD
ENDBRANCH  30  32
ENDBRANCH  19  30
ENDBRANCH  18  19
ENDBRANCH   1  18
TORSDOF 8
ENDMDL
MODEL 3
REMARK VINA RESULT:     -11.5      3.701      7.869
REMARK  Name = 46937091
REMARK  8 active torsions:
REMARK  status: ('A' for Active; 'I' for Inactive)
REMARK    1  A    between atoms: C_1  and  C_4
REMARK    2  A    between atoms: C_1  and  C_18
REMARK    3  A    between atoms: C_10  and  C_12
REMARK    4  A    between atoms: C_18  and  C_19
REMARK    5  A    between atoms: C_19  and  N_20
REMARK    6  A    between atoms: C_19  and  C_30
REMARK    7  A    between atoms: C_24  and  C_27
REMARK    8  A    between atoms: C_30  and  O_32
REMARK                            x       y       z     vdW  Elec       q    Type
REMARK                         _______ _______ _______ _____ _____    ______ ____
ROOT
ATOM      1  C   UNL     1      36.637 -21.412 -17.237  0.00  0.00    +0.031 C 
ENDROOT
BRANCH   1   4
ATOM      2  O   UNL     1      34.149 -22.429 -15.778  0.00  0.00    -0.425 OA
ATOM      3  N   UNL     1      34.054 -23.858 -14.022  0.00  0.00    -0.368 NA
ATOM      4  C   UNL     1      36.602 -22.366 -16.070  0.00  0.00    +0.014 C 
ATOM      5  C   UNL     1      35.427 -22.784 -15.456  0.00  0.00    +0.170 C 
ATOM      6  C   UNL     1      37.784 -22.889 -15.534  0.00  0.00    -0.005 C 
ATOM      7  C   UNL     1      35.365 -23.659 -14.381  0.00  0.00    +0.151 C 
ATOM      8  C   UNL     1      37.766 -23.774 -14.450  0.00  0.00    -0.019 C 
ATOM      9  C   UNL     1      36.559 -24.174 -13.857  0.00  0.00    +0.088 C 
ATOM     10  C   UNL     1      33.390 -23.112 -14.877  0.00  0.00    +0.282 C 
BRANCH  10  12
ATOM     11 CL   UNL     1      27.522 -22.283 -15.373  0.00  0.00    -0.082 Cl
ATOM     12  C   UNL     1      31.972 -22.912 -14.997  0.00  0.00    +0.066 C 
ATOM     13  C   UNL     1      31.167 -22.923 -13.858  0.00  0.00    +0.007 C 
ATOM     14  C   UNL     1      31.401 -22.705 -16.252  0.00  0.00    +0.007 C 
ATOM     15  C   UNL     1      29.791 -22.729 -13.975  0.00  0.00    +0.012 C 
ATOM     16  C   UNL     1      30.024 -22.511 -16.369  0.00  0.00    +0.012 C 
ATOM     17  C   UNL     1      29.220 -22.522 -15.230  0.00  0.00    +0.058 C 
ENDBRANCH  10  12
ENDBRANCH   1   4
BRANCH   1  18
ATOM     18  C   UNL     1      35.251 -21.006 -17.768  0.00  0.00    +0.023 C 
BRANCH  18  19
ATOM     19  C   UNL     1      35.027 -21.256 -19.283  0.00  0.00    +0.087 C 
BRANCH  19  20
ATOM     20  N   UNL     1      35.267 -20.011 -20.127  0.00  0.00    -0.246 NA
ATOM     21  N   UNL     1      36.251 -18.170 -20.886  0.00  0.00    -0.251 NA
ATOM     22  C   UNL     1      34.467 -19.546 -21.131  0.00  0.00    +0.125 C 
ATOM     23  C   UNL     1      36.326 -19.153 -20.016  0.00  0.00    +0.201 C 
ATOM     24  C   UNL     1      35.094 -18.410 -21.585  0.00  0.00    +0.124 C 
BRANCH  24  27
ATOM     25  O   UNL     1      33.931 -17.981 -23.588  0.00  0.00    -0.269 OA
ATOM     26  N   UNL     1      34.986 -16.199 -22.602  0.00  0.00    -0.324 N 
ATOM     27  C   UNL     1      34.640 -17.558 -22.640  0.00  0.00    +0.257 C 
ATOM     28  H   UNL     1      34.685 -15.594 -23.318  0.00  0.00    +0.145 HD
ATOM     29  H   UNL     1      35.531 -15.851 -21.860  0.00  0.00    +0.145 HD
ENDBRANCH  24  27
ENDBRANCH  19  20
BRANCH  19  30
ATOM     30  C   UNL     1      33.633 -21.893 -19.528  0.00  0.00    +0.125 C 
ATOM     31  C   UNL     1      32.468 -21.022 -19.070  0.00  0.00    +0.033 C 
BRANCH  30  32
ATOM     32  O   UNL     1      33.541 -23.170 -18.899  0.00  0.00    -0.383 OA
ATOM     33  H   UNL     1      32.624 -23.332 -18.629  0.00  0.00    +0.210 HD
ENDBRANCH  30  32
ENDBRANCH  19  30
ENDBRANCH  18  19
ENDBRANCH   1  18
TORSDOF 8
ENDMDL
MODEL 4
REMARK VINA RESULT:     -11.4      1.545      3.446
REMARK  Name = 46937091
REMARK  8 active torsions:
REMARK  status: ('A' for Active; 'I' for Inactive)
REMARK    1  A    between atoms: C_1  and  C_4
REMARK    2  A    between atoms: C_1  and  C_18
REMARK    3  A    between atoms: C_10  and  C_12
REMARK    4  A    between atoms: C_18  and  C_19
REMARK    5  A    between atoms: C_19  and  N_20
REMARK    6  A    between atoms: C_19  and  C_30
REMARK    7  A    between atoms: C_24  and  C_27
REMARK    8  A    between atoms: C_30  and  O_32
REMARK                            x       y       z     vdW  Elec       q    Type
REMARK                         _______ _______ _______ _____ _____    ______ ____
ROOT
ATOM      1  C   UNL     1      33.665 -23.981 -14.619  0.00  0.00    +0.031 C 
ENDROOT
BRANCH   1   4
ATOM      2  O   UNL     1      33.065 -22.287 -17.093  0.00  0.00    -0.425 OA
ATOM      3  N   UNL     1      31.040 -21.643 -17.879  0.00  0.00    -0.368 NA
ATOM      4  C   UNL     1      32.305 -23.567 -15.121  0.00  0.00    +0.014 C 
ATOM      5  C   UNL     1      32.110 -22.792 -16.258  0.00  0.00    +0.170 C 
ATOM      6  C   UNL     1      31.142 -23.953 -14.446  0.00  0.00    -0.005 C 
ATOM      7  C   UNL     1      30.872 -22.397 -16.743  0.00  0.00    +0.151 C 
ATOM      8  C   UNL     1      29.873 -23.575 -14.900  0.00  0.00    -0.019 C 
ATOM      9  C   UNL     1      29.717 -22.792 -16.054  0.00  0.00    +0.088 C 
ATOM     10  C   UNL     1      32.345 -21.615 -18.034  0.00  0.00    +0.282 C 
BRANCH  10  12
ATOM     11 CL   UNL     1      35.577 -18.963 -22.263  0.00  0.00    -0.082 Cl
ATOM     12  C   UNL     1      33.125 -20.974 -19.056  0.00  0.00    +0.066 C 
ATOM     13  C   UNL     1      34.506 -21.166 -19.102  0.00  0.00    +0.007 C 
ATOM     14  C   UNL     1      32.503 -20.161 -20.002  0.00  0.00    +0.007 C 
ATOM     15  C   UNL     1      35.264 -20.543 -20.093  0.00  0.00    +0.012 C 
ATOM     16  C   UNL     1      33.261 -19.539 -20.994  0.00  0.00    +0.012 C 
ATOM     17  C   UNL     1      34.641 -19.730 -21.040  0.00  0.00    +0.058 C 
ENDBRANCH  10  12
ENDBRANCH   1   4
BRANCH   1  18
ATOM     18  C   UNL     1      34.841 -23.433 -15.445  0.00  0.00    +0.023 C 
BRANCH  18  19
ATOM     19  C   UNL     1      36.250 -23.815 -14.918  0.00  0.00    +0.087 C 
BRANCH  19  20
ATOM     20  N   UNL     1      36.240 -24.221 -13.450  0.00  0.00    -0.246 NA
ATOM     21  N   UNL     1      36.543 -25.460 -11.633  0.00  0.00    -0.251 NA
ATOM     22  C   UNL     1      35.783 -23.470 -12.406  0.00  0.00    +0.125 C 
ATOM     23  C   UNL     1      36.686 -25.408 -12.939  0.00  0.00    +0.201 C 
ATOM     24  C   UNL     1      35.981 -24.255 -11.294  0.00  0.00    +0.124 C 
BRANCH  24  27
ATOM     25  O   UNL     1      34.942 -24.634  -9.215  0.00  0.00    -0.269 OA
ATOM     26  N   UNL     1      36.182 -22.716  -9.416  0.00  0.00    -0.324 N 
ATOM     27  C   UNL     1      35.660 -23.906  -9.945  0.00  0.00    +0.257 C 
ATOM     28  H   UNL     1      35.974 -22.456  -8.489  0.00  0.00    +0.145 HD
ATOM     29  H   UNL     1      36.756 -22.141  -9.971  0.00  0.00    +0.145 HD
ENDBRANCH  24  27
ENDBRANCH  19  20
BRANCH  19  30
ATOM     30  C   UNL     1      37.269 -22.685 -15.226  0.00  0.00    +0.125 C 
ATOM     31  C   UNL     1      36.838 -21.756 -16.356  0.00  0.00    +0.033 C 
BRANCH  30  32
ATOM     32  O   UNL     1      38.552 -23.228 -15.529  0.00  0.00    -0.383 OA
ATOM     33  H   UNL     1      38.572 -23.513 -16.456  0.00  0.00    +0.210 HD
ENDBRANCH  30  32
ENDBRANCH  19  30
ENDBRANCH  18  19
ENDBRANCH   1  18
TORSDOF 8
ENDMDL
MODEL 5
REMARK VINA RESULT:     -11.3     11.360     15.199
REMARK  Name = 46937091
REMARK  8 active torsions:
REMARK  status: ('A' for Active; 'I' for Inactive)
REMARK    1  A    between atoms: C_1  and  C_4
REMARK    2  A    between atoms: C_1  and  C_18
REMARK    3  A    between atoms: C_10  and  C_12
REMARK    4  A    between atoms: C_18  and  C_19
REMARK    5  A    between atoms: C_19  and  N_20
REMARK    6  A    between atoms: C_19  and  C_30
REMARK    7  A    between atoms: C_24  and  C_27
REMARK    8  A    between atoms: C_30  and  O_32
REMARK                            x       y       z     vdW  Elec       q    Type
REMARK                         _______ _______ _______ _____ _____    ______ ____
ROOT
ATOM      1  C   UNL     1      32.336 -11.148 -23.475  0.00  0.00    +0.031 C 
ENDROOT
BRANCH   1   4
ATOM      2  O   UNL     1      32.302  -8.108 -23.140  0.00  0.00    -0.425 OA
ATOM      3  N   UNL     1      31.700  -6.919 -21.307  0.00  0.00    -0.368 NA
ATOM      4  C   UNL     1      31.929 -10.381 -22.243  0.00  0.00    +0.014 C 
ATOM      5  C   UNL     1      31.940  -8.993 -22.164  0.00  0.00    +0.170 C 
ATOM      6  C   UNL     1      31.511 -11.048 -21.087  0.00  0.00    -0.005 C 
ATOM      7  C   UNL     1      31.572  -8.262 -21.045  0.00  0.00    +0.151 C 
ATOM      8  C   UNL     1      31.131 -10.348 -19.935  0.00  0.00    -0.019 C 
ATOM      9  C   UNL     1      31.155  -8.946 -19.895  0.00  0.00    +0.088 C 
ATOM     10  C   UNL     1      32.130  -6.893 -22.549  0.00  0.00    +0.282 C 
BRANCH  10  12
ATOM     11 CL   UNL     1      33.443  -2.213 -25.976  0.00  0.00    -0.082 Cl
ATOM     12  C   UNL     1      32.448  -5.762 -23.377  0.00  0.00    +0.066 C 
ATOM     13  C   UNL     1      31.480  -4.790 -23.630  0.00  0.00    +0.007 C 
ATOM     14  C   UNL     1      33.723  -5.637 -23.928  0.00  0.00    +0.007 C 
ATOM     15  C   UNL     1      31.788  -3.693 -24.434  0.00  0.00    +0.012 C 
ATOM     16  C   UNL     1      34.030  -4.539 -24.732  0.00  0.00    +0.012 C 
ATOM     17  C   UNL     1      33.063  -3.567 -24.984  0.00  0.00    +0.058 C 
ENDBRANCH  10  12
ENDBRANCH   1   4
BRANCH   1  18
ATOM     18  C   UNL     1      33.434 -12.198 -23.236  0.00  0.00    +0.023 C 
BRANCH  18  19
ATOM     19  C   UNL     1      33.000 -13.670 -23.474  0.00  0.00    +0.087 C 
BRANCH  19  20
ATOM     20  N   UNL     1      33.634 -14.638 -22.484  0.00  0.00    -0.246 NA
ATOM     21  N   UNL     1      34.305 -15.489 -20.545  0.00  0.00    -0.251 NA
ATOM     22  C   UNL     1      34.245 -15.821 -22.787  0.00  0.00    +0.125 C 
ATOM     23  C   UNL     1      33.694 -14.480 -21.127  0.00  0.00    +0.201 C 
ATOM     24  C   UNL     1      34.651 -16.329 -21.575  0.00  0.00    +0.124 C 
BRANCH  24  27
ATOM     25  O   UNL     1      34.945 -18.427 -20.545  0.00  0.00    -0.269 OA
ATOM     26  N   UNL     1      36.503 -17.816 -22.113  0.00  0.00    -0.324 N 
ATOM     27  C   UNL     1      35.345 -17.561 -21.364  0.00  0.00    +0.257 C 
ATOM     28  H   UNL     1      36.998 -18.658 -21.985  0.00  0.00    +0.145 HD
ATOM     29  H   UNL     1      36.822 -17.154 -22.767  0.00  0.00    +0.145 HD
ENDBRANCH  24  27
ENDBRANCH  19  20
BRANCH  19  30
ATOM     30  C   UNL     1      33.241 -14.074 -24.954  0.00  0.00    +0.125 C 
ATOM     31  C   UNL     1      32.698 -13.068 -25.964  0.00  0.00    +0.033 C 
BRANCH  30  32
ATOM     32  O   UNL     1      32.685 -15.358 -25.225  0.00  0.00    -0.383 OA
ATOM     33  H   UNL     1      31.917 -15.505 -24.651  0.00  0.00    +0.210 HD
ENDBRANCH  30  32
ENDBRANCH  19  30
ENDBRANCH  18  19
ENDBRANCH   1  18
TORSDOF 8
ENDMDL
MODEL 6
REMARK VINA RESULT:     -11.0      2.946      5.747
REMARK  Name = 46937091
REMARK  8 active torsions:
REMARK  status: ('A' for Active; 'I' for Inactive)
REMARK    1  A    between atoms: C_1  and  C_4
REMARK    2  A    between atoms: C_1  and  C_18
REMARK    3  A    between atoms: C_10  and  C_12
REMARK    4  A    between atoms: C_18  and  C_19
REMARK    5  A    between atoms: C_19  and  N_20
REMARK    6  A    between atoms: C_19  and  C_30
REMARK    7  A    between atoms: C_24  and  C_27
REMARK    8  A    between atoms: C_30  and  O_32
REMARK                            x       y       z     vdW  Elec       q    Type
REMARK                         _______ _______ _______ _____ _____    ______ ____
ROOT
ATOM      1  C   UNL     1      32.240 -22.038 -18.082  0.00  0.00    +0.031 C 
ENDROOT
BRANCH   1   4
ATOM      2  O   UNL     1      33.868 -20.161 -19.864  0.00  0.00    -0.425 OA
ATOM      3  N   UNL     1      36.093 -19.742 -19.775  0.00  0.00    -0.368 NA
ATOM      4  C   UNL     1      33.722 -21.777 -18.000  0.00  0.00    +0.014 C 
ATOM      5  C   UNL     1      34.396 -20.906 -18.849  0.00  0.00    +0.170 C 
ATOM      6  C   UNL     1      34.512 -22.417 -17.040  0.00  0.00    -0.005 C 
ATOM      7  C   UNL     1      35.757 -20.647 -18.797  0.00  0.00    +0.151 C 
ATOM      8  C   UNL     1      35.890 -22.184 -16.953  0.00  0.00    -0.019 C 
ATOM      9  C   UNL     1      36.535 -21.297 -17.828  0.00  0.00    +0.088 C 
ATOM     10  C   UNL     1      34.945 -19.496 -20.366  0.00  0.00    +0.282 C 
BRANCH  10  12
ATOM     11 CL   UNL     1      33.771 -15.874 -24.935  0.00  0.00    -0.082 Cl
ATOM     12  C   UNL     1      34.661 -18.621 -21.470  0.00  0.00    +0.066 C 
ATOM     13  C   UNL     1      34.973 -17.264 -21.383  0.00  0.00    +0.007 C 
ATOM     14  C   UNL     1      34.075 -19.128 -22.629  0.00  0.00    +0.007 C 
ATOM     15  C   UNL     1      34.697 -16.415 -22.454  0.00  0.00    +0.012 C 
ATOM     16  C   UNL     1      33.799 -18.278 -23.701  0.00  0.00    +0.012 C 
ATOM     17  C   UNL     1      34.111 -16.922 -23.613  0.00  0.00    +0.058 C 
ENDBRANCH  10  12
ENDBRANCH   1   4
BRANCH   1  18
ATOM     18  C   UNL     1      31.715 -23.051 -17.050  0.00  0.00    +0.023 C 
BRANCH  18  19
ATOM     19  C   UNL     1      31.090 -22.428 -15.774  0.00  0.00    +0.087 C 
BRANCH  19  20
ATOM     20  N   UNL     1      31.797 -22.864 -14.497  0.00  0.00    -0.246 NA
ATOM     21  N   UNL     1      32.164 -23.203 -12.333  0.00  0.00    -0.251 NA
ATOM     22  C   UNL     1      33.023 -23.461 -14.415  0.00  0.00    +0.125 C 
ATOM     23  C   UNL     1      31.319 -22.730 -13.224  0.00  0.00    +0.201 C 
ATOM     24  C   UNL     1      33.228 -23.661 -13.070  0.00  0.00    +0.124 C 
BRANCH  24  27
ATOM     25  O   UNL     1      34.519 -24.350 -11.225  0.00  0.00    -0.269 OA
ATOM     26  N   UNL     1      35.378 -24.781 -13.306  0.00  0.00    -0.324 N 
ATOM     27  C   UNL     1      34.380 -24.260 -12.470  0.00  0.00    +0.257 C 
ATOM     28  H   UNL     1      36.180 -25.198 -12.916  0.00  0.00    +0.145 HD
ATOM     29  H   UNL     1      35.277 -24.729 -14.284  0.00  0.00    +0.145 HD
ENDBRANCH  24  27
ENDBRANCH  19  20
BRANCH  19  30
ATOM     30  C   UNL     1      29.559 -22.687 -15.736  0.00  0.00    +0.125 C 
ATOM     31  C   UNL     1      29.186 -24.165 -15.695  0.00  0.00    +0.033 C 
BRANCH  30  32
ATOM     32  O   UNL     1      28.914 -22.070 -16.848  0.00  0.00    -0.383 OA
ATOM     33  H   UNL     1      28.455 -22.747 -17.371  0.00  0.00    +0.210 HD
ENDBRANCH  30  32
ENDBRANCH  19  30
ENDBRANCH  18  19
ENDBRANCH   1  18
TORSDOF 8
ENDMDL
MODEL 7
REMARK VINA RESULT:     -11.0      3.934      8.089
REMARK  Name = 46937091
REMARK  8 active torsions:
REMARK  status: ('A' for Active; 'I' for Inactive)
REMARK    1  A    between atoms: C_1  and  C_4
REMARK    2  A    between atoms: C_1  and  C_18
REMARK    3  A    between atoms: C_10  and  C_12
REMARK    4  A    between atoms: C_18  and  C_19
REMARK    5  A    between atoms: C_19  and  N_20
REMARK    6  A    between atoms: C_19  and  C_30
REMARK    7  A    between atoms: C_24  and  C_27
REMARK    8  A    between atoms: C_30  and  O_32
REMARK                            x       y       z     vdW  Elec       q    Type
REMARK                         _______ _______ _______ _____ _____    ______ ____
ROOT
ATOM      1  C   UNL     1      32.951 -22.558 -18.711  0.00  0.00    +0.031 C 
ENDROOT
BRANCH   1   4
ATOM      2  O   UNL     1      34.526 -23.519 -16.272  0.00  0.00    -0.425 OA
ATOM      3  N   UNL     1      33.814 -23.661 -14.125  0.00  0.00    -0.368 NA
ATOM      4  C   UNL     1      32.452 -22.641 -17.291  0.00  0.00    +0.014 C 
ATOM      5  C   UNL     1      33.230 -23.092 -16.230  0.00  0.00    +0.170 C 
ATOM      6  C   UNL     1      31.146 -22.261 -16.964  0.00  0.00    -0.005 C 
ATOM      7  C   UNL     1      32.797 -23.179 -14.914  0.00  0.00    +0.151 C 
ATOM      8  C   UNL     1      30.670 -22.334 -15.650  0.00  0.00    -0.019 C 
ATOM      9  C   UNL     1      31.486 -22.793 -14.605  0.00  0.00    +0.088 C 
ATOM     10  C   UNL     1      34.799 -23.841 -14.977  0.00  0.00    +0.282 C 
BRANCH  10  12
ATOM     11 CL   UNL     1      40.303 -25.864 -13.989  0.00  0.00    -0.082 Cl
ATOM     12  C   UNL     1      36.129 -24.330 -14.738  0.00  0.00    +0.066 C 
ATOM     13  C   UNL     1      37.221 -23.473 -14.868  0.00  0.00    +0.007 C 
ATOM     14  C   UNL     1      36.328 -25.662 -14.376  0.00  0.00    +0.007 C 
ATOM     15  C   UNL     1      38.512 -23.947 -14.637  0.00  0.00    +0.012 C 
ATOM     16  C   UNL     1      37.619 -26.137 -14.144  0.00  0.00    +0.012 C 
ATOM     17  C   UNL     1      38.711 -25.279 -14.274  0.00  0.00    +0.058 C 
ENDBRANCH  10  12
ENDBRANCH   1   4
BRANCH   1  18
ATOM     18  C   UNL     1      32.984 -21.133 -19.290  0.00  0.00    +0.023 C 
BRANCH  18  19
ATOM     19  C   UNL     1      34.351 -20.407 -19.175  0.00  0.00    +0.087 C 
BRANCH  19  20
ATOM     20  N   UNL     1      34.653 -19.526 -20.381  0.00  0.00    -0.246 NA
ATOM     21  N   UNL     1      35.778 -18.188 -21.750  0.00  0.00    -0.251 NA
ATOM     22  C   UNL     1      33.804 -19.249 -21.414  0.00  0.00    +0.125 C 
ATOM     23  C   UNL     1      35.826 -18.868 -20.625  0.00  0.00    +0.201 C 
ATOM     24  C   UNL     1      34.520 -18.422 -22.247  0.00  0.00    +0.124 C 
BRANCH  24  27
ATOM     25  O   UNL     1      33.313 -18.483 -24.268  0.00  0.00    -0.269 OA
ATOM     26  N   UNL     1      34.441 -16.544 -23.796  0.00  0.00    -0.324 N 
ATOM     27  C   UNL     1      34.059 -17.855 -23.476  0.00  0.00    +0.257 C 
ATOM     28  H   UNL     1      34.136 -16.132 -24.637  0.00  0.00    +0.145 HD
ATOM     29  H   UNL     1      35.015 -16.034 -23.179  0.00  0.00    +0.145 HD
ENDBRANCH  24  27
ENDBRANCH  19  20
BRANCH  19  30
ATOM     30  C   UNL     1      35.483 -21.426 -18.871  0.00  0.00    +0.125 C 
ATOM     31  C   UNL     1      36.342 -21.051 -17.669  0.00  0.00    +0.033 C 
BRANCH  30  32
ATOM     32  O   UNL     1      36.321 -21.606 -20.011  0.00  0.00    -0.383 OA
ATOM     33  H   UNL     1      36.829 -22.426 -19.911  0.00  0.00    +0.210 HD
ENDBRANCH  30  32
ENDBRANCH  19  30
ENDBRANCH  18  19
ENDBRANCH   1  18
TORSDOF 8
ENDMDL
MODEL 8
REMARK VINA RESULT:     -10.8      2.755      5.705
REMARK  Name = 46937091
REMARK  8 active torsions:
REMARK  status: ('A' for Active; 'I' for Inactive)
REMARK    1  A    between atoms: C_1  and  C_4
REMARK    2  A    between atoms: C_1  and  C_18
REMARK    3  A    between atoms: C_10  and  C_12
REMARK    4  A    between atoms: C_18  and  C_19
REMARK    5  A    between atoms: C_19  and  N_20
REMARK    6  A    between atoms: C_19  and  C_30
REMARK    7  A    between atoms: C_24  and  C_27
REMARK    8  A    between atoms: C_30  and  O_32
REMARK                            x       y       z     vdW  Elec       q    Type
REMARK                         _______ _______ _______ _____ _____    ______ ____
ROOT
ATOM      1  C   UNL     1      36.719 -21.932 -15.488  0.00  0.00    +0.031 C 
ENDROOT
BRANCH   1   4
ATOM      2  O   UNL     1      33.785 -22.645 -15.971  0.00  0.00    -0.425 OA
ATOM      3  N   UNL     1      32.578 -22.355 -17.867  0.00  0.00    -0.368 NA
ATOM      4  C   UNL     1      35.939 -21.727 -16.761  0.00  0.00    +0.014 C 
ATOM      5  C   UNL     1      34.602 -22.079 -16.907  0.00  0.00    +0.170 C 
ATOM      6  C   UNL     1      36.541 -21.160 -17.889  0.00  0.00    -0.005 C 
ATOM      7  C   UNL     1      33.860 -21.902 -18.066  0.00  0.00    +0.151 C 
ATOM      8  C   UNL     1      35.828 -20.965 -19.078  0.00  0.00    -0.019 C 
ATOM      9  C   UNL     1      34.478 -21.331 -19.187  0.00  0.00    +0.088 C 
ATOM     10  C   UNL     1      32.596 -22.777 -16.622  0.00  0.00    +0.282 C 
BRANCH  10  12
ATOM     11 CL   UNL     1      28.213 -25.194 -13.410  0.00  0.00    -0.082 Cl
ATOM     12  C   UNL     1      31.537 -23.362 -15.846  0.00  0.00    +0.066 C 
ATOM     13  C   UNL     1      30.220 -23.294 -16.301  0.00  0.00    +0.007 C 
ATOM     14  C   UNL     1      31.826 -23.996 -14.638  0.00  0.00    +0.007 C 
ATOM     15  C   UNL     1      29.192 -23.861 -15.547  0.00  0.00    +0.012 C 
ATOM     16  C   UNL     1      30.798 -24.563 -13.885  0.00  0.00    +0.012 C 
ATOM     17  C   UNL     1      29.481 -24.495 -14.340  0.00  0.00    +0.058 C 
ENDBRANCH  10  12
ENDBRANCH   1   4
BRANCH   1  18
ATOM     18  C   UNL     1      37.909 -22.899 -15.620  0.00  0.00    +0.023 C 
BRANCH  18  19
ATOM     19  C   UNL     1      37.676 -24.315 -15.030  0.00  0.00    +0.087 C 
BRANCH  19  20
ATOM     20  N   UNL     1      36.709 -24.311 -13.853  0.00  0.00    -0.246 NA
ATOM     21  N   UNL     1      34.810 -24.509 -12.720  0.00  0.00    -0.251 NA
ATOM     22  C   UNL     1      37.017 -24.019 -12.555  0.00  0.00    +0.125 C 
ATOM     23  C   UNL     1      35.374 -24.599 -13.904  0.00  0.00    +0.201 C 
ATOM     24  C   UNL     1      35.829 -24.149 -11.874  0.00  0.00    +0.124 C 
BRANCH  24  27
ATOM     25  O   UNL     1      34.936 -24.721  -9.771  0.00  0.00    -0.269 OA
ATOM     26  N   UNL     1      36.253 -22.846  -9.859  0.00  0.00    -0.324 N 
ATOM     27  C   UNL     1      35.631 -23.944 -10.472  0.00  0.00    +0.257 C 
ATOM     28  H   UNL     1      36.131 -22.685  -8.895  0.00  0.00    +0.145 HD
ATOM     29  H   UNL     1      36.811 -22.236 -10.393  0.00  0.00    +0.145 HD
ENDBRANCH  24  27
ENDBRANCH  19  20
BRANCH  19  30
ATOM     30  C   UNL     1      39.032 -24.995 -14.698  0.00  0.00    +0.125 C 
ATOM     31  C   UNL     1      40.002 -24.096 -13.939  0.00  0.00    +0.033 C 
BRANCH  30  32
ATOM     32  O   UNL     1      39.663 -25.472 -15.884  0.00  0.00    -0.383 OA
ATOM     33  H   UNL     1      40.056 -24.726 -16.363  0.00  0.00    +0.210 HD
ENDBRANCH  30  32
ENDBRANCH  19  30
ENDBRANCH  18  19
ENDBRANCH   1  18
TORSDOF 8
ENDMDL
MODEL 9
REMARK VINA RESULT:     -10.6      1.479      3.338
REMARK  Name = 46937091
REMARK  8 active torsions:
REMARK  status: ('A' for Active; 'I' for Inactive)
REMARK    1  A    between atoms: C_1  and  C_4
REMARK    2  A    between atoms: C_1  and  C_18
REMARK    3  A    between atoms: C_10  and  C_12
REMARK    4  A    between atoms: C_18  and  C_19
REMARK    5  A    between atoms: C_19  and  N_20
REMARK    6  A    between atoms: C_19  and  C_30
REMARK    7  A    between atoms: C_24  and  C_27
REMARK    8  A    between atoms: C_30  and  O_32
REMARK                            x       y       z     vdW  Elec       q    Type
REMARK                         _______ _______ _______ _____ _____    ______ ____
ROOT
ATOM      1  C   UNL     1      34.893 -23.242 -14.524  0.00  0.00    +0.031 C 
ENDROOT
BRANCH   1   4
ATOM      2  O   UNL     1      33.736 -22.045 -17.088  0.00  0.00    -0.425 OA
ATOM      3  N   UNL     1      31.583 -22.090 -17.795  0.00  0.00    -0.368 NA
ATOM      4  C   UNL     1      33.454 -23.288 -14.971  0.00  0.00    +0.014 C 
ATOM      5  C   UNL     1      33.001 -22.717 -16.155  0.00  0.00    +0.170 C 
ATOM      6  C   UNL     1      32.480 -23.922 -14.193  0.00  0.00    -0.005 C 
ATOM      7  C   UNL     1      31.684 -22.744 -16.591  0.00  0.00    +0.151 C 
ATOM      8  C   UNL     1      31.140 -23.971 -14.597  0.00  0.00    -0.019 C 
ATOM      9  C   UNL     1      30.720 -23.384 -15.800  0.00  0.00    +0.088 C 
ATOM     10  C   UNL     1      32.817 -21.704 -18.034  0.00  0.00    +0.282 C 
BRANCH  10  12
ATOM     11 CL   UNL     1      34.973 -18.665 -22.670  0.00  0.00    -0.082 Cl
ATOM     12  C   UNL     1      33.339 -20.969 -19.154  0.00  0.00    +0.066 C 
ATOM     13  C   UNL     1      32.468 -20.306 -20.019  0.00  0.00    +0.007 C 
ATOM     14  C   UNL     1      34.714 -20.920 -19.376  0.00  0.00    +0.007 C 
ATOM     15  C   UNL     1      32.974 -19.594 -21.106  0.00  0.00    +0.012 C 
ATOM     16  C   UNL     1      35.220 -20.207 -20.464  0.00  0.00    +0.012 C 
ATOM     17  C   UNL     1      34.349 -19.544 -21.328  0.00  0.00    +0.058 C 
ENDBRANCH  10  12
ENDBRANCH   1   4
BRANCH   1  18
ATOM     18  C   UNL     1      35.868 -24.000 -15.441  0.00  0.00    +0.023 C 
BRANCH  18  19
ATOM     19  C   UNL     1      36.897 -24.901 -14.707  0.00  0.00    +0.087 C 
BRANCH  19  20
ATOM     20  N   UNL     1      36.652 -24.973 -13.205  0.00  0.00    -0.246 NA
ATOM     21  N   UNL     1      36.528 -25.818 -11.156  0.00  0.00    -0.251 NA
ATOM     22  C   UNL     1      36.221 -23.953 -12.406  0.00  0.00    +0.125 C 
ATOM     23  C   UNL     1      36.823 -26.073 -12.412  0.00  0.00    +0.201 C 
ATOM     24  C   UNL     1      36.152 -24.498 -11.145  0.00  0.00    +0.124 C 
BRANCH  24  27
ATOM     25  O   UNL     1      35.004 -24.358  -9.093  0.00  0.00    -0.269 OA
ATOM     26  N   UNL     1      36.216 -22.518  -9.728  0.00  0.00    -0.324 N 
ATOM     27  C   UNL     1      35.748 -23.821  -9.952  0.00  0.00    +0.257 C 
ATOM     28  H   UNL     1      35.951 -22.032  -8.913  0.00  0.00    +0.145 HD
ATOM     29  H   UNL     1      36.810 -22.089 -10.385  0.00  0.00    +0.145 HD
ENDBRANCH  24  27
ENDBRANCH  19  20
BRANCH  19  30
ATOM     30  C   UNL     1      38.346 -24.472 -15.063  0.00  0.00    +0.125 C 
ATOM     31  C   UNL     1      39.364 -24.767 -13.966  0.00  0.00    +0.033 C 
BRANCH  30  32
ATOM     32  O   UNL     1      38.398 -23.085 -15.392  0.00  0.00    -0.383 OA
ATOM     33  H   UNL     1      37.496 -22.751 -15.524  0.00  0.00    +0.210 HD
ENDBRANCH  30  32
ENDBRANCH  19  30
ENDBRANCH  18  19
ENDBRANCH   1  18
TORSDOF 8
ENDMDL
