MODEL 1
REMARK VINA RESULT:     -10.4      0.000      0.000
REMARK  Name = 122077
REMARK  5 active torsions:
REMARK  status: ('A' for Active; 'I' for Inactive)
REMARK    1  A    between atoms: C_5  and  C_13
REMARK    2  A    between atoms: C_7  and  C_25
REMARK    3  A    between atoms: N_10  and  C_19
REMARK    4  A    between atoms: C_19  and  C_21
REMARK    5  A    between atoms: C_21  and  O_22
REMARK                            x       y       z     vdW  Elec       q    Type
REMARK                         _______ _______ _______ _____ _____    ______ ____
ROOT
ATOM      1  S   UNL     1      34.869  -8.299 -23.985  0.00  0.00    -0.059 S 
ATOM      2  O   UNL     1      31.568 -11.183 -22.575  0.00  0.00    -0.268 OA
ATOM      3  N   UNL     1      33.619 -10.547 -23.480  0.00  0.00    -0.250 N 
ATOM      4  N   UNL     1      32.516  -8.477 -22.930  0.00  0.00    -0.384 NA
ATOM      5  C   UNL     1      32.667 -11.510 -23.077  0.00  0.00    +0.265 C 
ATOM      6  C   UNL     1      33.518  -9.153 -23.398  0.00  0.00    +0.213 C 
ATOM      7  C   UNL     1      32.826  -7.134 -23.037  0.00  0.00    +0.123 C 
ATOM      8  C   UNL     1      34.058  -6.843 -23.584  0.00  0.00    +0.125 C 
ATOM      9  H   UNL     1      34.455 -10.899 -23.863  0.00  0.00    +0.158 HD
ENDROOT
BRANCH   5  13
ATOM     10  N   UNL     1      33.525 -13.678 -22.232  0.00  0.00    -0.273 N 
ATOM     11  C   UNL     1      33.816 -14.932 -22.719  0.00  0.00    +0.052 C 
ATOM     12  C   UNL     1      33.522 -14.922 -24.084  0.00  0.00    +0.015 C 
ATOM     13  C   UNL     1      33.060 -12.876 -23.240  0.00  0.00    +0.107 C 
ATOM     14  C   UNL     1      33.047 -13.617 -24.398  0.00  0.00    +0.021 C 
ATOM     15  C   UNL     1      34.310 -16.065 -22.061  0.00  0.00    +0.015 C 
ATOM     16  C   UNL     1      33.732 -16.097 -24.832  0.00  0.00    +0.001 C 
ATOM     17  C   UNL     1      34.510 -17.219 -22.824  0.00  0.00    +0.001 C 
ATOM     18  C   UNL     1      34.226 -17.238 -24.188  0.00  0.00    +0.000 C 
BRANCH  10  19
ATOM     19  C   UNL     1      33.689 -13.265 -20.853  0.00  0.00    +0.206 C 
BRANCH  19  21
ATOM     20  O   UNL     1      31.779 -14.261 -19.716  0.00  0.00    -0.248 OA
ATOM     21  C   UNL     1      32.390 -13.274 -20.095  0.00  0.00    +0.335 C 
BRANCH  21  22
ATOM     22  O   UNL     1      31.970 -12.000 -19.883  0.00  0.00    -0.479 OA
ATOM     23  H   UNL     1      32.120 -11.343 -20.534  0.00  0.00    +0.295 HD
ENDBRANCH  21  22
ENDBRANCH  19  21
ENDBRANCH  10  19
ENDBRANCH   5  13
BRANCH   7  25
ATOM     24 CL   UNL     1      32.534  -6.704 -20.001  0.00  0.00    -0.082 Cl
ATOM     25  C   UNL     1      31.915  -6.116 -22.601  0.00  0.00    +0.037 C 
ATOM     26  C   UNL     1      31.706  -5.837 -21.247  0.00  0.00    +0.060 C 
ATOM     27  C   UNL     1      31.222  -5.386 -23.572  0.00  0.00    +0.003 C 
ATOM     28  C   UNL     1      30.810  -4.838 -20.867  0.00  0.00    +0.011 C 
ATOM     29  C   UNL     1      30.326  -4.388 -23.191  0.00  0.00    +0.000 C 
ATOM     30  C   UNL     1      30.120  -4.113 -21.839  0.00  0.00    +0.001 C 
ENDBRANCH   7  25
TORSDOF 5
ENDMDL
MODEL 2
REMARK VINA RESULT:     -10.3      1.837      2.248
REMARK  Name = 122077
REMARK  5 active torsions:
REMARK  status: ('A' for Active; 'I' for Inactive)
REMARK    1  A    between atoms: C_5  and  C_13
REMARK    2  A    between atoms: C_7  and  C_25
REMARK    3  A    between atoms: N_10  and  C_19
REMARK    4  A    between atoms: C_19  and  C_21
REMARK    5  A    between atoms: C_21  and  O_22
REMARK                            x       y       z     vdW  Elec       q    Type
REMARK                         _______ _______ _______ _____ _____    ______ ____
ROOT
ATOM      1  S   UNL     1      30.840 -10.538 -21.120  0.00  0.00    -0.059 S 
ATOM      2  O   UNL     1      33.508 -11.799 -24.654  0.00  0.00    -0.268 OA
ATOM      3  N   UNL     1      32.243 -12.072 -22.717  0.00  0.00    -0.250 N 
ATOM      4  N   UNL     1      32.101  -9.720 -23.223  0.00  0.00    -0.384 NA
ATOM      5  C   UNL     1      33.058 -12.555 -23.765  0.00  0.00    +0.265 C 
ATOM      6  C   UNL     1      31.819 -10.756 -22.496  0.00  0.00    +0.213 C 
ATOM      7  C   UNL     1      31.487  -8.623 -22.651  0.00  0.00    +0.123 C 
ATOM      8  C   UNL     1      30.759  -8.870 -21.506  0.00  0.00    +0.125 C 
ATOM      9  H   UNL     1      31.936 -12.742 -22.064  0.00  0.00    +0.158 HD
ENDROOT
BRANCH   5  13
ATOM     10  N   UNL     1      33.855 -14.661 -22.726  0.00  0.00    -0.273 N 
ATOM     11  C   UNL     1      33.946 -15.997 -23.043  0.00  0.00    +0.052 C 
ATOM     12  C   UNL     1      33.424 -16.152 -24.329  0.00  0.00    +0.015 C 
ATOM     13  C   UNL     1      33.296 -13.966 -23.765  0.00  0.00    +0.107 C 
ATOM     14  C   UNL     1      33.018 -14.861 -24.772  0.00  0.00    +0.021 C 
ATOM     15  C   UNL     1      34.444 -17.072 -22.297  0.00  0.00    +0.015 C 
ATOM     16  C   UNL     1      33.397 -17.439 -24.901  0.00  0.00    +0.001 C 
ATOM     17  C   UNL     1      34.408 -18.340 -22.885  0.00  0.00    +0.001 C 
ATOM     18  C   UNL     1      33.893 -18.523 -24.166  0.00  0.00    +0.000 C 
BRANCH  10  19
ATOM     19  C   UNL     1      34.289 -14.074 -21.475  0.00  0.00    +0.206 C 
BRANCH  19  21
ATOM     20  O   UNL     1      32.239 -13.871 -20.175  0.00  0.00    -0.248 OA
ATOM     21  C   UNL     1      33.341 -14.369 -20.345  0.00  0.00    +0.335 C 
BRANCH  21  22
ATOM     22  O   UNL     1      33.889 -15.289 -19.510  0.00  0.00    -0.479 OA
ATOM     23  H   UNL     1      34.646 -15.069 -19.002  0.00  0.00    +0.295 HD
ENDBRANCH  21  22
ENDBRANCH  19  21
ENDBRANCH  10  19
ENDBRANCH   5  13
BRANCH   7  25
ATOM     24 CL   UNL     1      33.129  -6.541 -21.084  0.00  0.00    -0.082 Cl
ATOM     25  C   UNL     1      31.605  -7.313 -23.223  0.00  0.00    +0.037 C 
ATOM     26  C   UNL     1      32.327  -6.293 -22.596  0.00  0.00    +0.060 C 
ATOM     27  C   UNL     1      30.976  -7.063 -24.445  0.00  0.00    +0.003 C 
ATOM     28  C   UNL     1      32.416  -5.032 -23.186  0.00  0.00    +0.011 C 
ATOM     29  C   UNL     1      31.065  -5.803 -25.035  0.00  0.00    +0.000 C 
ATOM     30  C   UNL     1      31.785  -4.787 -24.406  0.00  0.00    +0.001 C 
ENDBRANCH   7  25
TORSDOF 5
ENDMDL
MODEL 3
REMARK VINA RESULT:     -10.0      9.993     14.737
REMARK  Name = 122077
REMARK  5 active torsions:
REMARK  status: ('A' for Active; 'I' for Inactive)
REMARK    1  A    between atoms: C_5  and  C_13
REMARK    2  A    between atoms: C_7  and  C_25
REMARK    3  A    between atoms: N_10  and  C_19
REMARK    4  A    between atoms: C_19  and  C_21
REMARK    5  A    between atoms: C_21  and  O_22
REMARK                            x       y       z     vdW  Elec       q    Type
REMARK                         _______ _______ _______ _____ _____    ______ ____
ROOT
ATOM      1  S   UNL     1      32.895 -23.067 -15.847  0.00  0.00    -0.059 S 
ATOM      2  O   UNL     1      36.883 -21.487 -17.520  0.00  0.00    -0.268 OA
ATOM      3  N   UNL     1      34.579 -21.819 -17.421  0.00  0.00    -0.250 N 
ATOM      4  N   UNL     1      35.457 -22.994 -15.509  0.00  0.00    -0.384 NA
ATOM      5  C   UNL     1      35.749 -21.290 -18.011  0.00  0.00    +0.265 C 
ATOM      6  C   UNL     1      34.479 -22.602 -16.265  0.00  0.00    +0.213 C 
ATOM      7  C   UNL     1      34.922 -23.745 -14.481  0.00  0.00    +0.123 C 
ATOM      8  C   UNL     1      33.551 -23.895 -14.496  0.00  0.00    +0.125 C 
ATOM      9  H   UNL     1      33.732 -21.611 -17.878  0.00  0.00    +0.158 HD
ENDROOT
BRANCH   5  13
ATOM     10  N   UNL     1      34.466 -20.581 -20.010  0.00  0.00    -0.273 N 
ATOM     11  C   UNL     1      34.572 -19.666 -21.033  0.00  0.00    +0.052 C 
ATOM     12  C   UNL     1      35.763 -18.964 -20.835  0.00  0.00    +0.015 C 
ATOM     13  C   UNL     1      35.545 -20.483 -19.175  0.00  0.00    +0.107 C 
ATOM     14  C   UNL     1      36.367 -19.491 -19.659  0.00  0.00    +0.021 C 
ATOM     15  C   UNL     1      33.713 -19.407 -22.108  0.00  0.00    +0.015 C 
ATOM     16  C   UNL     1      36.117 -17.955 -21.753  0.00  0.00    +0.001 C 
ATOM     17  C   UNL     1      34.085 -18.402 -23.006  0.00  0.00    +0.001 C 
ATOM     18  C   UNL     1      35.268 -17.686 -22.833  0.00  0.00    +0.000 C 
BRANCH  10  19
ATOM     19  C   UNL     1      33.370 -21.513 -19.843  0.00  0.00    +0.206 C 
BRANCH  19  21
ATOM     20  O   UNL     1      31.632 -19.814 -19.676  0.00  0.00    -0.248 OA
ATOM     21  C   UNL     1      32.138 -20.854 -19.284  0.00  0.00    +0.335 C 
BRANCH  21  22
ATOM     22  O   UNL     1      31.649 -21.589 -18.252  0.00  0.00    -0.479 OA
ATOM     23  H   UNL     1      30.782 -21.942 -18.298  0.00  0.00    +0.295 HD
ENDBRANCH  21  22
ENDBRANCH  19  21
ENDBRANCH  10  19
ENDBRANCH   5  13
BRANCH   7  25
ATOM     24 CL   UNL     1      36.297 -26.420 -15.142  0.00  0.00    -0.082 Cl
ATOM     25  C   UNL     1      35.750 -24.327 -13.465  0.00  0.00    +0.037 C 
ATOM     26  C   UNL     1      36.421 -25.538 -13.659  0.00  0.00    +0.060 C 
ATOM     27  C   UNL     1      35.883 -23.650 -12.249  0.00  0.00    +0.003 C 
ATOM     28  C   UNL     1      37.216 -26.069 -12.644  0.00  0.00    +0.011 C 
ATOM     29  C   UNL     1      36.679 -24.182 -11.235  0.00  0.00    +0.000 C 
ATOM     30  C   UNL     1      37.345 -25.391 -11.432  0.00  0.00    +0.001 C 
ENDBRANCH   7  25
TORSDOF 5
ENDMDL
MODEL 4
REMARK VINA RESULT:      -9.9      2.855      8.840
REMARK  Name = 122077
REMARK  5 active torsions:
REMARK  status: ('A' for Active; 'I' for Inactive)
REMARK    1  A    between atoms: C_5  and  C_13
REMARK    2  A    between atoms: C_7  and  C_25
REMARK    3  A    between atoms: N_10  and  C_19
REMARK    4  A    between atoms: C_19  and  C_21
REMARK    5  A    between atoms: C_21  and  O_22
REMARK                            x       y       z     vdW  Elec       q    Type
REMARK                         _______ _______ _______ _____ _____    ______ ____
ROOT
ATOM      1  S   UNL     1      30.881 -11.184 -20.625  0.00  0.00    -0.059 S 
ATOM      2  O   UNL     1      33.132  -9.084 -24.049  0.00  0.00    -0.268 OA
ATOM      3  N   UNL     1      31.651  -9.286 -22.261  0.00  0.00    -0.250 N 
ATOM      4  N   UNL     1      32.623 -11.477 -22.512  0.00  0.00    -0.384 NA
ATOM      5  C   UNL     1      32.291  -8.555 -23.287  0.00  0.00    +0.265 C 
ATOM      6  C   UNL     1      31.828 -10.635 -21.929  0.00  0.00    +0.213 C 
ATOM      7  C   UNL     1      32.487 -12.696 -21.876  0.00  0.00    +0.123 C 
ATOM      8  C   UNL     1      31.589 -12.732 -20.830  0.00  0.00    +0.125 C 
ATOM      9  H   UNL     1      31.004  -8.786 -21.712  0.00  0.00    +0.158 HD
ENDROOT
BRANCH   5  13
ATOM     10  N   UNL     1      32.332  -6.217 -22.464  0.00  0.00    -0.273 N 
ATOM     11  C   UNL     1      31.834  -4.986 -22.829  0.00  0.00    +0.052 C 
ATOM     12  C   UNL     1      31.107  -5.169 -24.006  0.00  0.00    +0.015 C 
ATOM     13  C   UNL     1      31.945  -7.169 -23.368  0.00  0.00    +0.107 C 
ATOM     14  C   UNL     1      31.185  -6.552 -24.334  0.00  0.00    +0.021 C 
ATOM     15  C   UNL     1      31.971  -3.737 -22.212  0.00  0.00    +0.015 C 
ATOM     16  C   UNL     1      30.484  -4.053 -24.600  0.00  0.00    +0.001 C 
ATOM     17  C   UNL     1      31.345  -2.644 -22.819  0.00  0.00    +0.001 C 
ATOM     18  C   UNL     1      30.613  -2.797 -23.994  0.00  0.00    +0.000 C 
BRANCH  10  19
ATOM     19  C   UNL     1      33.147  -6.468 -21.293  0.00  0.00    +0.206 C 
BRANCH  19  21
ATOM     20  O   UNL     1      31.357  -7.461 -19.972  0.00  0.00    -0.248 OA
ATOM     21  C   UNL     1      32.319  -6.713 -20.062  0.00  0.00    +0.335 C 
BRANCH  21  22
ATOM     22  O   UNL     1      32.792  -5.968 -19.030  0.00  0.00    -0.479 OA
ATOM     23  H   UNL     1      32.979  -5.058 -19.156  0.00  0.00    +0.295 HD
ENDBRANCH  21  22
ENDBRANCH  19  21
ENDBRANCH  10  19
ENDBRANCH   5  13
BRANCH   7  25
ATOM     24 CL   UNL     1      32.676 -13.254 -24.900  0.00  0.00    -0.082 Cl
ATOM     25  C   UNL     1      33.239 -13.846 -22.287  0.00  0.00    +0.037 C 
ATOM     26  C   UNL     1      33.389 -14.192 -23.633  0.00  0.00    +0.060 C 
ATOM     27  C   UNL     1      33.836 -14.635 -21.300  0.00  0.00    +0.003 C 
ATOM     28  C   UNL     1      34.128 -15.319 -23.989  0.00  0.00    +0.011 C 
ATOM     29  C   UNL     1      34.576 -15.763 -21.657  0.00  0.00    +0.000 C 
ATOM     30  C   UNL     1      34.722 -16.105 -23.001  0.00  0.00    +0.001 C 
ENDBRANCH   7  25
TORSDOF 5
ENDMDL
MODEL 5
REMARK VINA RESULT:      -9.9      4.166      9.910
REMARK  Name = 122077
REMARK  5 active torsions:
REMARK  status: ('A' for Active; 'I' for Inactive)
REMARK    1  A    between atoms: C_5  and  C_13
REMARK    2  A    between atoms: C_7  and  C_25
REMARK    3  A    between atoms: N_10  and  C_19
REMARK    4  A    between atoms: C_19  and  C_21
REMARK    5  A    between atoms: C_21  and  O_22
REMARK                            x       y       z     vdW  Elec       q    Type
REMARK                         _______ _______ _______ _____ _____    ______ ____
ROOT
ATOM      1  S   UNL     1      34.909 -16.920 -23.307  0.00  0.00    -0.059 S 
ATOM      2  O   UNL     1      32.799 -14.854 -19.774  0.00  0.00    -0.268 OA
ATOM      3  N   UNL     1      33.685 -15.063 -21.919  0.00  0.00    -0.250 N 
ATOM      4  N   UNL     1      34.090 -17.195 -20.870  0.00  0.00    -0.384 NA
ATOM      5  C   UNL     1      33.029 -14.345 -20.894  0.00  0.00    +0.265 C 
ATOM      6  C   UNL     1      34.162 -16.378 -21.875  0.00  0.00    +0.213 C 
ATOM      7  C   UNL     1      34.682 -18.384 -21.249  0.00  0.00    +0.123 C 
ATOM      8  C   UNL     1      35.183 -18.425 -22.533  0.00  0.00    +0.125 C 
ATOM      9  H   UNL     1      33.823 -14.580 -22.765  0.00  0.00    +0.158 HD
ENDROOT
BRANCH   5  13
ATOM     10  N   UNL     1      32.918 -12.386 -22.409  0.00  0.00    -0.273 N 
ATOM     11  C   UNL     1      32.365 -11.125 -22.427  0.00  0.00    +0.052 C 
ATOM     12  C   UNL     1      31.683 -10.958 -21.220  0.00  0.00    +0.015 C 
ATOM     13  C   UNL     1      32.610 -13.020 -21.236  0.00  0.00    +0.107 C 
ATOM     14  C   UNL     1      31.848 -12.162 -20.478  0.00  0.00    +0.021 C 
ATOM     15  C   UNL     1      32.416 -10.129 -23.410  0.00  0.00    +0.015 C 
ATOM     16  C   UNL     1      31.019  -9.740 -20.978  0.00  0.00    +0.001 C 
ATOM     17  C   UNL     1      31.749  -8.929 -23.148  0.00  0.00    +0.001 C 
ATOM     18  C   UNL     1      31.061  -8.735 -21.952  0.00  0.00    +0.000 C 
BRANCH  10  19
ATOM     19  C   UNL     1      33.711 -12.958 -23.478  0.00  0.00    +0.206 C 
BRANCH  19  21
ATOM     20  O   UNL     1      32.530 -12.603 -25.579  0.00  0.00    -0.248 OA
ATOM     21  C   UNL     1      32.875 -13.341 -24.669  0.00  0.00    +0.335 C 
BRANCH  21  22
ATOM     22  O   UNL     1      32.540 -14.655 -24.595  0.00  0.00    -0.479 OA
ATOM     23  H   UNL     1      31.888 -14.939 -23.985  0.00  0.00    +0.295 HD
ENDBRANCH  21  22
ENDBRANCH  19  21
ENDBRANCH  10  19
ENDBRANCH   5  13
BRANCH   7  25
ATOM     24 CL   UNL     1      32.073 -19.911 -20.652  0.00  0.00    -0.082 Cl
ATOM     25  C   UNL     1      34.764 -19.501 -20.353  0.00  0.00    +0.037 C 
ATOM     26  C   UNL     1      33.642 -20.263 -20.013  0.00  0.00    +0.060 C 
ATOM     27  C   UNL     1      36.010 -19.828 -19.811  0.00  0.00    +0.003 C 
ATOM     28  C   UNL     1      33.765 -21.341 -19.137  0.00  0.00    +0.011 C 
ATOM     29  C   UNL     1      36.133 -20.906 -18.935  0.00  0.00    +0.000 C 
ATOM     30  C   UNL     1      35.011 -21.663 -18.598  0.00  0.00    +0.001 C 
ENDBRANCH   7  25
TORSDOF 5
ENDMDL
MODEL 6
REMARK VINA RESULT:      -9.8      8.915     12.554
REMARK  Name = 122077
REMARK  5 active torsions:
REMARK  status: ('A' for Active; 'I' for Inactive)
REMARK    1  A    between atoms: C_5  and  C_13
REMARK    2  A    between atoms: C_7  and  C_25
REMARK    3  A    between atoms: N_10  and  C_19
REMARK    4  A    between atoms: C_19  and  C_21
REMARK    5  A    between atoms: C_21  and  O_22
REMARK                            x       y       z     vdW  Elec       q    Type
REMARK                         _______ _______ _______ _____ _____    ______ ____
ROOT
ATOM      1  S   UNL     1      33.370 -21.650 -19.781  0.00  0.00    -0.059 S 
ATOM      2  O   UNL     1      36.989 -20.055 -17.424  0.00  0.00    -0.268 OA
ATOM      3  N   UNL     1      35.284 -21.537 -17.994  0.00  0.00    -0.250 N 
ATOM      4  N   UNL     1      35.069 -19.715 -19.556  0.00  0.00    -0.384 NA
ATOM      5  C   UNL     1      36.390 -21.133 -17.212  0.00  0.00    +0.265 C 
ATOM      6  C   UNL     1      34.700 -20.860 -19.070  0.00  0.00    +0.213 C 
ATOM      7  C   UNL     1      34.225 -19.410 -20.606  0.00  0.00    +0.123 C 
ATOM      8  C   UNL     1      33.242 -20.339 -20.878  0.00  0.00    +0.125 C 
ATOM      9  H   UNL     1      34.877 -22.401 -17.754  0.00  0.00    +0.158 HD
ENDROOT
BRANCH   5  13
ATOM     10  N   UNL     1      36.001 -22.497 -15.179  0.00  0.00    -0.273 N 
ATOM     11  C   UNL     1      36.696 -23.372 -14.375  0.00  0.00    +0.052 C 
ATOM     12  C   UNL     1      37.982 -23.485 -14.906  0.00  0.00    +0.015 C 
ATOM     13  C   UNL     1      36.801 -22.054 -16.197  0.00  0.00    +0.107 C 
ATOM     14  C   UNL     1      38.034 -22.647 -16.056  0.00  0.00    +0.021 C 
ATOM     15  C   UNL     1      36.288 -24.066 -13.229  0.00  0.00    +0.015 C 
ATOM     16  C   UNL     1      38.909 -24.330 -14.265  0.00  0.00    +0.001 C 
ATOM     17  C   UNL     1      37.226 -24.898 -12.610  0.00  0.00    +0.001 C 
ATOM     18  C   UNL     1      38.516 -25.030 -13.119  0.00  0.00    +0.000 C 
BRANCH  10  19
ATOM     19  C   UNL     1      34.622 -22.103 -14.976  0.00  0.00    +0.206 C 
BRANCH  19  21
ATOM     20  O   UNL     1      33.561 -23.487 -16.677  0.00  0.00    -0.248 OA
ATOM     21  C   UNL     1      33.651 -23.116 -15.516  0.00  0.00    +0.335 C 
BRANCH  21  22
ATOM     22  O   UNL     1      32.859 -23.578 -14.514  0.00  0.00    -0.479 OA
ATOM     23  H   UNL     1      31.992 -23.880 -14.703  0.00  0.00    +0.295 HD
ENDBRANCH  21  22
ENDBRANCH  19  21
ENDBRANCH  10  19
ENDBRANCH   5  13
BRANCH   7  25
ATOM     24 CL   UNL     1      34.448 -19.671 -23.668  0.00  0.00    -0.082 Cl
ATOM     25  C   UNL     1      34.372 -18.199 -21.361  0.00  0.00    +0.037 C 
ATOM     26  C   UNL     1      34.482 -18.202 -22.755  0.00  0.00    +0.060 C 
ATOM     27  C   UNL     1      34.403 -16.986 -20.668  0.00  0.00    +0.003 C 
ATOM     28  C   UNL     1      34.624 -17.001 -23.449  0.00  0.00    +0.011 C 
ATOM     29  C   UNL     1      34.545 -15.785 -21.364  0.00  0.00    +0.000 C 
ATOM     30  C   UNL     1      34.655 -15.793 -22.754  0.00  0.00    +0.001 C 
ENDBRANCH   7  25
TORSDOF 5
ENDMDL
MODEL 7
REMARK VINA RESULT:      -9.6      2.461      8.556
REMARK  Name = 122077
REMARK  5 active torsions:
REMARK  status: ('A' for Active; 'I' for Inactive)
REMARK    1  A    between atoms: C_5  and  C_13
REMARK    2  A    between atoms: C_7  and  C_25
REMARK    3  A    between atoms: N_10  and  C_19
REMARK    4  A    between atoms: C_19  and  C_21
REMARK    5  A    between atoms: C_21  and  O_22
REMARK                            x       y       z     vdW  Elec       q    Type
REMARK                         _______ _______ _______ _____ _____    ______ ____
ROOT
ATOM      1  S   UNL     1      32.702 -13.024 -25.717  0.00  0.00    -0.059 S 
ATOM      2  O   UNL     1      32.748 -10.768 -21.703  0.00  0.00    -0.268 OA
ATOM      3  N   UNL     1      32.422 -11.072 -23.990  0.00  0.00    -0.250 N 
ATOM      4  N   UNL     1      33.214 -13.202 -23.189  0.00  0.00    -0.384 NA
ATOM      5  C   UNL     1      32.402 -10.296 -22.809  0.00  0.00    +0.265 C 
ATOM      6  C   UNL     1      32.802 -12.411 -24.131  0.00  0.00    +0.213 C 
ATOM      7  C   UNL     1      33.486 -14.431 -23.758  0.00  0.00    +0.123 C 
ATOM      8  C   UNL     1      33.268 -14.527 -25.117  0.00  0.00    +0.125 C 
ATOM      9  H   UNL     1      32.132 -10.615 -24.812  0.00  0.00    +0.158 HD
ENDROOT
BRANCH   5  13
ATOM     10  N   UNL     1      31.286  -8.246 -21.973  0.00  0.00    -0.273 N 
ATOM     11  C   UNL     1      30.952  -6.993 -22.434  0.00  0.00    +0.052 C 
ATOM     12  C   UNL     1      31.393  -6.909 -23.756  0.00  0.00    +0.015 C 
ATOM     13  C   UNL     1      31.921  -8.957 -22.956  0.00  0.00    +0.107 C 
ATOM     14  C   UNL     1      32.002  -8.157 -24.072  0.00  0.00    +0.021 C 
ATOM     15  C   UNL     1      30.299  -5.936 -21.787  0.00  0.00    +0.015 C 
ATOM     16  C   UNL     1      31.173  -5.716 -24.471  0.00  0.00    +0.001 C 
ATOM     17  C   UNL     1      30.093  -4.761 -22.517  0.00  0.00    +0.001 C 
ATOM     18  C   UNL     1      30.522  -4.650 -23.838  0.00  0.00    +0.000 C 
BRANCH  10  19
ATOM     19  C   UNL     1      31.006  -8.741 -20.641  0.00  0.00    +0.206 C 
BRANCH  19  21
ATOM     20  O   UNL     1      32.563  -7.124 -19.695  0.00  0.00    -0.248 OA
ATOM     21  C   UNL     1      31.942  -8.172 -19.610  0.00  0.00    +0.335 C 
BRANCH  21  22
ATOM     22  O   UNL     1      32.012  -9.005 -18.540  0.00  0.00    -0.479 OA
ATOM     23  H   UNL     1      31.326  -9.624 -18.381  0.00  0.00    +0.295 HD
ENDBRANCH  21  22
ENDBRANCH  19  21
ENDBRANCH  10  19
ENDBRANCH   5  13
BRANCH   7  25
ATOM     24 CL   UNL     1      33.865 -13.957 -20.738  0.00  0.00    -0.082 Cl
ATOM     25  C   UNL     1      33.964 -15.533 -22.974  0.00  0.00    +0.037 C 
ATOM     26  C   UNL     1      34.171 -15.427 -21.595  0.00  0.00    +0.060 C 
ATOM     27  C   UNL     1      34.224 -16.744 -23.621  0.00  0.00    +0.003 C 
ATOM     28  C   UNL     1      34.637 -16.524 -20.871  0.00  0.00    +0.011 C 
ATOM     29  C   UNL     1      34.691 -17.840 -22.896  0.00  0.00    +0.000 C 
ATOM     30  C   UNL     1      34.897 -17.730 -21.521  0.00  0.00    +0.001 C 
ENDBRANCH   7  25
TORSDOF 5
ENDMDL
MODEL 8
REMARK VINA RESULT:      -9.6      3.085      8.836
REMARK  Name = 122077
REMARK  5 active torsions:
REMARK  status: ('A' for Active; 'I' for Inactive)
REMARK    1  A    between atoms: C_5  and  C_13
REMARK    2  A    between atoms: C_7  and  C_25
REMARK    3  A    between atoms: N_10  and  C_19
REMARK    4  A    between atoms: C_19  and  C_21
REMARK    5  A    between atoms: C_21  and  O_22
REMARK                            x       y       z     vdW  Elec       q    Type
REMARK                         _______ _______ _______ _____ _____    ______ ____
ROOT
ATOM      1  S   UNL     1      33.062 -14.077 -25.671  0.00  0.00    -0.059 S 
ATOM      2  O   UNL     1      33.496 -11.845 -21.667  0.00  0.00    -0.268 OA
ATOM      3  N   UNL     1      33.039 -12.112 -23.937  0.00  0.00    -0.250 N 
ATOM      4  N   UNL     1      33.672 -14.307 -23.169  0.00  0.00    -0.384 NA
ATOM      5  C   UNL     1      33.144 -11.341 -22.757  0.00  0.00    +0.265 C 
ATOM      6  C   UNL     1      33.290 -13.480 -24.093  0.00  0.00    +0.213 C 
ATOM      7  C   UNL     1      33.805 -15.555 -23.748  0.00  0.00    +0.123 C 
ATOM      8  C   UNL     1      33.517 -15.627 -25.095  0.00  0.00    +0.125 C 
ATOM      9  H   UNL     1      32.755 -11.629 -24.746  0.00  0.00    +0.158 HD
ENDROOT
BRANCH   5  13
ATOM     10  N   UNL     1      31.648  -9.405 -22.354  0.00  0.00    -0.273 N 
ATOM     11  C   UNL     1      31.594  -8.063 -22.655  0.00  0.00    +0.052 C 
ATOM     12  C   UNL     1      32.735  -7.763 -23.403  0.00  0.00    +0.015 C 
ATOM     13  C   UNL     1      32.780  -9.963 -22.884  0.00  0.00    +0.107 C 
ATOM     14  C   UNL     1      33.473  -8.972 -23.540  0.00  0.00    +0.021 C 
ATOM     15  C   UNL     1      30.632  -7.100 -22.326  0.00  0.00    +0.015 C 
ATOM     16  C   UNL     1      32.928  -6.439 -23.845  0.00  0.00    +0.001 C 
ATOM     17  C   UNL     1      30.845  -5.794 -22.776  0.00  0.00    +0.001 C 
ATOM     18  C   UNL     1      31.974  -5.466 -23.524  0.00  0.00    +0.000 C 
BRANCH  10  19
ATOM     19  C   UNL     1      30.651 -10.123 -21.587  0.00  0.00    +0.206 C 
BRANCH  19  21
ATOM     20  O   UNL     1      30.537  -9.186 -19.342  0.00  0.00    -0.248 OA
ATOM     21  C   UNL     1      30.912 -10.060 -20.107  0.00  0.00    +0.335 C 
BRANCH  21  22
ATOM     22  O   UNL     1      31.646 -11.135 -19.722  0.00  0.00    -0.479 OA
ATOM     23  H   UNL     1      32.545 -11.205 -19.977  0.00  0.00    +0.295 HD
ENDBRANCH  21  22
ENDBRANCH  19  21
ENDBRANCH  10  19
ENDBRANCH   5  13
BRANCH   7  25
ATOM     24 CL   UNL     1      32.892 -18.323 -24.745  0.00  0.00    -0.082 Cl
ATOM     25  C   UNL     1      34.216 -16.697 -22.985  0.00  0.00    +0.037 C 
ATOM     26  C   UNL     1      33.858 -17.999 -23.347  0.00  0.00    +0.060 C 
ATOM     27  C   UNL     1      35.000 -16.487 -21.847  0.00  0.00    +0.003 C 
ATOM     28  C   UNL     1      34.279 -19.082 -22.576  0.00  0.00    +0.011 C 
ATOM     29  C   UNL     1      35.421 -17.570 -21.076  0.00  0.00    +0.000 C 
ATOM     30  C   UNL     1      35.061 -18.868 -21.440  0.00  0.00    +0.001 C 
ENDBRANCH   7  25
TORSDOF 5
ENDMDL
MODEL 9
REMARK VINA RESULT:      -9.3      2.528      3.579
REMARK  Name = 122077
REMARK  5 active torsions:
REMARK  status: ('A' for Active; 'I' for Inactive)
REMARK    1  A    between atoms: C_5  and  C_13
REMARK    2  A    between atoms: C_7  and  C_25
REMARK    3  A    between atoms: N_10  and  C_19
REMARK    4  A    between atoms: C_19  and  C_21
REMARK    5  A    between atoms: C_21  and  O_22
REMARK                            x       y       z     vdW  Elec       q    Type
REMARK                         _______ _______ _______ _____ _____    ______ ____
ROOT
ATOM      1  S   UNL     1      30.629 -10.641 -20.988  0.00  0.00    -0.059 S 
ATOM      2  O   UNL     1      34.145 -12.126 -23.564  0.00  0.00    -0.268 OA
ATOM      3  N   UNL     1      32.496 -12.227 -21.920  0.00  0.00    -0.250 N 
ATOM      4  N   UNL     1      32.262 -10.037 -22.899  0.00  0.00    -0.384 NA
ATOM      5  C   UNL     1      33.572 -12.771 -22.657  0.00  0.00    +0.265 C 
ATOM      6  C   UNL     1      31.915 -10.961 -22.057  0.00  0.00    +0.213 C 
ATOM      7  C   UNL     1      31.435  -8.949 -22.697  0.00  0.00    +0.123 C 
ATOM      8  C   UNL     1      30.488  -9.089 -21.704  0.00  0.00    +0.125 C 
ATOM      9  H   UNL     1      32.109 -12.809 -21.227  0.00  0.00    +0.158 HD
ENDROOT
BRANCH   5  13
ATOM     10  N   UNL     1      34.254 -15.081 -23.244  0.00  0.00    -0.273 N 
ATOM     11  C   UNL     1      34.548 -16.264 -22.604  0.00  0.00    +0.052 C 
ATOM     12  C   UNL     1      34.404 -16.037 -21.234  0.00  0.00    +0.015 C 
ATOM     13  C   UNL     1      33.930 -14.117 -22.329  0.00  0.00    +0.107 C 
ATOM     14  C   UNL     1      34.014 -14.678 -21.075  0.00  0.00    +0.021 C 
ATOM     15  C   UNL     1      34.926 -17.506 -23.128  0.00  0.00    +0.015 C 
ATOM     16  C   UNL     1      34.649 -17.099 -20.340  0.00  0.00    +0.001 C 
ATOM     17  C   UNL     1      35.164 -18.545 -22.223  0.00  0.00    +0.001 C 
ATOM     18  C   UNL     1      35.029 -18.346 -20.850  0.00  0.00    +0.000 C 
BRANCH  10  19
ATOM     19  C   UNL     1      34.283 -14.886 -24.679  0.00  0.00    +0.206 C 
BRANCH  19  21
ATOM     20  O   UNL     1      32.507 -16.357 -25.464  0.00  0.00    -0.248 OA
ATOM     21  C   UNL     1      32.973 -15.236 -25.330  0.00  0.00    +0.335 C 
BRANCH  21  22
ATOM     22  O   UNL     1      32.358 -14.107 -25.769  0.00  0.00    -0.479 OA
ATOM     23  H   UNL     1      31.570 -14.168 -26.271  0.00  0.00    +0.295 HD
ENDBRANCH  21  22
ENDBRANCH  19  21
ENDBRANCH  10  19
ENDBRANCH   5  13
BRANCH   7  25
ATOM     24 CL   UNL     1      34.287  -8.008 -23.384  0.00  0.00    -0.082 Cl
ATOM     25  C   UNL     1      31.563  -7.753 -23.478  0.00  0.00    +0.037 C 
ATOM     26  C   UNL     1      32.809  -7.237 -23.846  0.00  0.00    +0.060 C 
ATOM     27  C   UNL     1      30.396  -7.094 -23.878  0.00  0.00    +0.003 C 
ATOM     28  C   UNL     1      32.888  -6.071 -24.606  0.00  0.00    +0.011 C 
ATOM     29  C   UNL     1      30.476  -5.928 -24.638  0.00  0.00    +0.000 C 
ATOM     30  C   UNL     1      31.721  -5.416 -25.002  0.00  0.00    +0.001 C 
ENDBRANCH   7  25
TORSDOF 5
ENDMDL
