MODEL 1
REMARK VINA RESULT:     -12.2      0.000      0.000
REMARK  Name = 399618
REMARK  5 active torsions:
REMARK  status: ('A' for Active; 'I' for Inactive)
REMARK    1  A    between atoms: N_2  and  C_8
REMARK    2  A    between atoms: C_4  and  C_20
REMARK    3  A    between atoms: C_11  and  O_14
REMARK    4  A    between atoms: C_20  and  C_21
REMARK    5  A    between atoms: C_24  and  O_27
REMARK                            x       y       z     vdW  Elec       q    Type
REMARK                         _______ _______ _______ _____ _____    ______ ____
ROOT
ATOM      1  S   UNL     1      33.596 -19.834 -20.863  0.00  0.00    -0.051 S 
ATOM      2  N   UNL     1      34.418 -21.183 -18.723  0.00  0.00    -0.283 N 
ATOM      3  N   UNL     1      35.975 -19.806 -19.850  0.00  0.00    -0.370 NA
ATOM      4  C   UNL     1      34.794 -18.885 -21.583  0.00  0.00    +0.183 C 
ATOM      5  C   UNL     1      34.772 -20.316 -19.709  0.00  0.00    +0.213 C 
ATOM      6  C   UNL     1      35.978 -18.969 -20.950  0.00  0.00    +0.174 C 
ATOM      7  H   UNL     1      33.514 -21.563 -18.807  0.00  0.00    +0.155 HD
ATOM      8  N   UNL     1      37.111 -18.317 -21.308  0.00  0.00    -0.335 N 
ATOM      9  H   UNL     1      37.936 -18.439 -20.784  0.00  0.00    +0.144 HD
ATOM     10  H   UNL     1      37.109 -17.721 -22.091  0.00  0.00    +0.144 HD
ENDROOT
BRANCH   2  11
ATOM     11  C   UNL     1      35.151 -21.625 -17.591  0.00  0.00    +0.051 C 
ATOM     12  C   UNL     1      34.530 -22.425 -16.639  0.00  0.00    +0.018 C 
ATOM     13  C   UNL     1      36.483 -21.253 -17.444  0.00  0.00    +0.018 C 
ATOM     14  C   UNL     1      36.586 -22.490 -15.371  0.00  0.00    +0.139 C 
ATOM     15  C   UNL     1      35.250 -22.859 -15.525  0.00  0.00    +0.038 C 
ATOM     16  C   UNL     1      37.202 -21.687 -16.331  0.00  0.00    +0.038 C 
BRANCH  14  17
ATOM     17  O   UNL     1      37.289 -22.913 -14.285  0.00  0.00    -0.471 OA
ATOM     18  C   UNL     1      37.599 -24.304 -14.215  0.00  0.00    +0.252 C 
ENDBRANCH  14  17
ENDBRANCH   2  11
BRANCH   4  20
ATOM     19  O   UNL     1      34.258 -18.641 -23.884  0.00  0.00    -0.290 OA
ATOM     20  C   UNL     1      34.432 -18.097 -22.781  0.00  0.00    +0.191 C 
BRANCH  20  21
ATOM     21  C   UNL     1      34.250 -16.656 -22.707  0.00  0.00    +0.036 C 
ATOM     22  C   UNL     1      34.062 -15.916 -23.875  0.00  0.00    +0.006 C 
ATOM     23  C   UNL     1      34.263 -16.014 -21.469  0.00  0.00    +0.006 C 
ATOM     24  C   UNL     1      33.900 -13.892 -22.565  0.00  0.00    +0.139 C 
ATOM     25  C   UNL     1      33.887 -14.534 -23.803  0.00  0.00    +0.037 C 
ATOM     26  C   UNL     1      34.088 -14.632 -21.398  0.00  0.00    +0.037 C 
BRANCH  24  27
ATOM     27  O   UNL     1      33.727 -12.544 -22.495  0.00  0.00    -0.471 OA
ATOM     28  C   UNL     1      33.163 -11.902 -23.638  0.00  0.00    +0.252 C 
ENDBRANCH  24  27
ENDBRANCH  20  21
ENDBRANCH   4  20
TORSDOF 5
ENDMDL
MODEL 2
REMARK VINA RESULT:     -12.1      1.808      9.224
REMARK  Name = 399618
REMARK  5 active torsions:
REMARK  status: ('A' for Active; 'I' for Inactive)
REMARK    1  A    between atoms: N_2  and  C_8
REMARK    2  A    between atoms: C_4  and  C_20
REMARK    3  A    between atoms: C_11  and  O_14
REMARK    4  A    between atoms: C_20  and  C_21
REMARK    5  A    between atoms: C_24  and  O_27
REMARK                            x       y       z     vdW  Elec       q    Type
REMARK                         _______ _______ _______ _____ _____    ______ ____
ROOT
ATOM      1  S   UNL     1      35.579 -20.143 -20.234  0.00  0.00    -0.051 S 
ATOM      2  N   UNL     1      35.230 -17.983 -21.746  0.00  0.00    -0.283 N 
ATOM      3  N   UNL     1      33.318 -19.063 -20.871  0.00  0.00    -0.370 NA
ATOM      4  C   UNL     1      34.143 -20.827 -19.665  0.00  0.00    +0.183 C 
ATOM      5  C   UNL     1      34.619 -18.957 -21.020  0.00  0.00    +0.213 C 
ATOM      6  C   UNL     1      33.048 -20.161 -20.076  0.00  0.00    +0.174 C 
ATOM      7  H   UNL     1      36.202 -18.093 -21.855  0.00  0.00    +0.155 HD
ATOM      8  N   UNL     1      31.768 -20.486 -19.772  0.00  0.00    -0.335 N 
ATOM      9  H   UNL     1      31.026 -19.939 -20.118  0.00  0.00    +0.144 HD
ATOM     10  H   UNL     1      31.580 -21.268 -19.205  0.00  0.00    +0.144 HD
ENDROOT
BRANCH   2  11
ATOM     11  C   UNL     1      34.683 -16.831 -22.369  0.00  0.00    +0.051 C 
ATOM     12  C   UNL     1      34.489 -15.673 -21.625  0.00  0.00    +0.018 C 
ATOM     13  C   UNL     1      34.347 -16.872 -23.718  0.00  0.00    +0.018 C 
ATOM     14  C   UNL     1      33.611 -14.575 -23.590  0.00  0.00    +0.139 C 
ATOM     15  C   UNL     1      33.951 -14.542 -22.238  0.00  0.00    +0.038 C 
ATOM     16  C   UNL     1      33.810 -15.741 -24.330  0.00  0.00    +0.038 C 
BRANCH  14  17
ATOM     17  O   UNL     1      33.087 -13.470 -24.189  0.00  0.00    -0.471 OA
ATOM     18  C   UNL     1      33.030 -12.276 -23.410  0.00  0.00    +0.252 C 
ENDBRANCH  14  17
ENDBRANCH   2  11
BRANCH   4  20
ATOM     19  O   UNL     1      33.696 -23.102 -19.148  0.00  0.00    -0.290 OA
ATOM     20  C   UNL     1      34.234 -22.034 -18.814  0.00  0.00    +0.191 C 
BRANCH  20  21
ATOM     21  C   UNL     1      34.975 -22.017 -17.563  0.00  0.00    +0.036 C 
ATOM     22  C   UNL     1      36.263 -21.484 -17.523  0.00  0.00    +0.006 C 
ATOM     23  C   UNL     1      34.397 -22.534 -16.403  0.00  0.00    +0.006 C 
ATOM     24  C   UNL     1      36.395 -21.984 -15.162  0.00  0.00    +0.139 C 
ATOM     25  C   UNL     1      36.973 -21.467 -16.322  0.00  0.00    +0.037 C 
ATOM     26  C   UNL     1      35.107 -22.518 -15.203  0.00  0.00    +0.037 C 
BRANCH  24  27
ATOM     27  O   UNL     1      37.087 -21.966 -13.991  0.00  0.00    -0.471 OA
ATOM     28  C   UNL     1      36.737 -22.947 -13.015  0.00  0.00    +0.252 C 
ENDBRANCH  24  27
ENDBRANCH  20  21
ENDBRANCH   4  20
TORSDOF 5
ENDMDL
MODEL 3
REMARK VINA RESULT:     -11.9      1.854      9.261
REMARK  Name = 399618
REMARK  5 active torsions:
REMARK  status: ('A' for Active; 'I' for Inactive)
REMARK    1  A    between atoms: N_2  and  C_8
REMARK    2  A    between atoms: C_4  and  C_20
REMARK    3  A    between atoms: C_11  and  O_14
REMARK    4  A    between atoms: C_20  and  C_21
REMARK    5  A    between atoms: C_24  and  O_27
REMARK                            x       y       z     vdW  Elec       q    Type
REMARK                         _______ _______ _______ _____ _____    ______ ____
ROOT
ATOM      1  S   UNL     1      35.499 -20.518 -19.960  0.00  0.00    -0.051 S 
ATOM      2  N   UNL     1      35.244 -18.462 -21.629  0.00  0.00    -0.283 N 
ATOM      3  N   UNL     1      33.290 -19.366 -20.651  0.00  0.00    -0.370 NA
ATOM      4  C   UNL     1      34.037 -21.076 -19.323  0.00  0.00    +0.183 C 
ATOM      5  C   UNL     1      34.592 -19.344 -20.824  0.00  0.00    +0.213 C 
ATOM      6  C   UNL     1      32.973 -20.383 -19.771  0.00  0.00    +0.174 C 
ATOM      7  H   UNL     1      36.206 -18.635 -21.741  0.00  0.00    +0.155 HD
ATOM      8  N   UNL     1      31.683 -20.613 -19.429  0.00  0.00    -0.335 N 
ATOM      9  H   UNL     1      30.966 -20.054 -19.808  0.00  0.00    +0.144 HD
ATOM     10  H   UNL     1      31.461 -21.338 -18.801  0.00  0.00    +0.144 HD
ENDROOT
BRANCH   2  11
ATOM     11  C   UNL     1      34.751 -17.333 -22.332  0.00  0.00    +0.051 C 
ATOM     12  C   UNL     1      34.341 -17.469 -23.653  0.00  0.00    +0.018 C 
ATOM     13  C   UNL     1      34.683 -16.100 -21.693  0.00  0.00    +0.018 C 
ATOM     14  C   UNL     1      33.786 -15.119 -23.710  0.00  0.00    +0.139 C 
ATOM     15  C   UNL     1      33.858 -16.359 -24.344  0.00  0.00    +0.038 C 
ATOM     16  C   UNL     1      34.199 -14.989 -22.384  0.00  0.00    +0.038 C 
BRANCH  14  17
ATOM     17  O   UNL     1      33.313 -14.035 -24.384  0.00  0.00    -0.471 OA
ATOM     18  C   UNL     1      32.822 -12.948 -23.602  0.00  0.00    +0.252 C 
ENDBRANCH  14  17
ENDBRANCH   2  11
BRANCH   4  20
ATOM     19  O   UNL     1      33.426 -23.255 -18.599  0.00  0.00    -0.290 OA
ATOM     20  C   UNL     1      34.076 -22.218 -18.384  0.00  0.00    +0.191 C 
BRANCH  20  21
ATOM     21  C   UNL     1      34.893 -22.175 -17.182  0.00  0.00    +0.036 C 
ATOM     22  C   UNL     1      34.390 -22.674 -15.980  0.00  0.00    +0.006 C 
ATOM     23  C   UNL     1      36.178 -21.635 -17.230  0.00  0.00    +0.006 C 
ATOM     24  C   UNL     1      36.460 -22.093 -14.875  0.00  0.00    +0.139 C 
ATOM     25  C   UNL     1      35.174 -22.634 -14.827  0.00  0.00    +0.037 C 
ATOM     26  C   UNL     1      36.961 -21.594 -16.077  0.00  0.00    +0.037 C 
BRANCH  24  27
ATOM     27  O   UNL     1      37.225 -22.055 -13.751  0.00  0.00    -0.471 OA
ATOM     28  C   UNL     1      36.796 -22.853 -12.647  0.00  0.00    +0.252 C 
ENDBRANCH  24  27
ENDBRANCH  20  21
ENDBRANCH   4  20
TORSDOF 5
ENDMDL
MODEL 4
REMARK VINA RESULT:     -11.0      3.355      9.557
REMARK  Name = 399618
REMARK  5 active torsions:
REMARK  status: ('A' for Active; 'I' for Inactive)
REMARK    1  A    between atoms: N_2  and  C_8
REMARK    2  A    between atoms: C_4  and  C_20
REMARK    3  A    between atoms: C_11  and  O_14
REMARK    4  A    between atoms: C_20  and  C_21
REMARK    5  A    between atoms: C_24  and  O_27
REMARK                            x       y       z     vdW  Elec       q    Type
REMARK                         _______ _______ _______ _____ _____    ______ ____
ROOT
ATOM      1  S   UNL     1      34.538 -16.315 -20.943  0.00  0.00    -0.051 S 
ATOM      2  N   UNL     1      33.619 -13.828 -21.161  0.00  0.00    -0.283 N 
ATOM      3  N   UNL     1      33.599 -15.207 -23.081  0.00  0.00    -0.370 NA
ATOM      4  C   UNL     1      34.472 -17.204 -22.378  0.00  0.00    +0.183 C 
ATOM      5  C   UNL     1      33.857 -14.999 -21.810  0.00  0.00    +0.213 C 
ATOM      6  C   UNL     1      33.962 -16.500 -23.405  0.00  0.00    +0.174 C 
ATOM      7  H   UNL     1      33.962 -13.786 -20.240  0.00  0.00    +0.155 HD
ATOM      8  N   UNL     1      33.793 -16.961 -24.668  0.00  0.00    -0.335 N 
ATOM      9  H   UNL     1      33.410 -16.373 -25.360  0.00  0.00    +0.144 HD
ATOM     10  H   UNL     1      34.052 -17.883 -24.895  0.00  0.00    +0.144 HD
ENDROOT
BRANCH   2  11
ATOM     11  C   UNL     1      32.954 -12.657 -21.607  0.00  0.00    +0.051 C 
ATOM     12  C   UNL     1      31.886 -12.151 -20.874  0.00  0.00    +0.018 C 
ATOM     13  C   UNL     1      33.374 -12.027 -22.773  0.00  0.00    +0.018 C 
ATOM     14  C   UNL     1      31.648 -10.363 -22.481  0.00  0.00    +0.139 C 
ATOM     15  C   UNL     1      31.232 -11.000 -21.313  0.00  0.00    +0.038 C 
ATOM     16  C   UNL     1      32.720 -10.877 -23.211  0.00  0.00    +0.038 C 
BRANCH  14  17
ATOM     17  O   UNL     1      31.009  -9.239 -22.909  0.00  0.00    -0.471 OA
ATOM     18  C   UNL     1      31.244  -8.040 -22.174  0.00  0.00    +0.252 C 
ENDBRANCH  14  17
ENDBRANCH   2  11
BRANCH   4  20
ATOM     19  O   UNL     1      35.600 -19.075 -23.310  0.00  0.00    -0.290 OA
ATOM     20  C   UNL     1      34.961 -18.599 -22.356  0.00  0.00    +0.191 C 
BRANCH  20  21
ATOM     21  C   UNL     1      34.727 -19.461 -21.208  0.00  0.00    +0.036 C 
ATOM     22  C   UNL     1      33.424 -19.803 -20.848  0.00  0.00    +0.006 C 
ATOM     23  C   UNL     1      35.806 -19.944 -20.467  0.00  0.00    +0.006 C 
ATOM     24  C   UNL     1      34.278 -21.113 -19.006  0.00  0.00    +0.139 C 
ATOM     25  C   UNL     1      33.199 -20.630 -19.748  0.00  0.00    +0.037 C 
ATOM     26  C   UNL     1      35.581 -20.770 -19.366  0.00  0.00    +0.037 C 
BRANCH  24  27
ATOM     27  O   UNL     1      34.059 -21.922 -17.933  0.00  0.00    -0.471 OA
ATOM     28  C   UNL     1      32.730 -22.410 -17.750  0.00  0.00    +0.252 C 
ENDBRANCH  24  27
ENDBRANCH  20  21
ENDBRANCH   4  20
TORSDOF 5
ENDMDL
MODEL 5
REMARK VINA RESULT:     -11.0      2.052      2.752
REMARK  Name = 399618
REMARK  5 active torsions:
REMARK  status: ('A' for Active; 'I' for Inactive)
REMARK    1  A    between atoms: N_2  and  C_8
REMARK    2  A    between atoms: C_4  and  C_20
REMARK    3  A    between atoms: C_11  and  O_14
REMARK    4  A    between atoms: C_20  and  C_21
REMARK    5  A    between atoms: C_24  and  O_27
REMARK                            x       y       z     vdW  Elec       q    Type
REMARK                         _______ _______ _______ _____ _____    ______ ____
ROOT
ATOM      1  S   UNL     1      32.577 -19.946 -20.932  0.00  0.00    -0.051 S 
ATOM      2  N   UNL     1      32.122 -21.442 -18.781  0.00  0.00    -0.283 N 
ATOM      3  N   UNL     1      34.323 -20.671 -19.170  0.00  0.00    -0.370 NA
ATOM      4  C   UNL     1      34.183 -19.453 -21.104  0.00  0.00    +0.183 C 
ATOM      5  C   UNL     1      33.054 -20.759 -19.499  0.00  0.00    +0.213 C 
ATOM      6  C   UNL     1      34.977 -19.905 -20.116  0.00  0.00    +0.174 C 
ATOM      7  H   UNL     1      31.237 -21.509 -19.206  0.00  0.00    +0.155 HD
ATOM      8  N   UNL     1      36.305 -19.665 -20.001  0.00  0.00    -0.335 N 
ATOM      9  H   UNL     1      36.809 -20.037 -19.241  0.00  0.00    +0.144 HD
ATOM     10  H   UNL     1      36.767 -19.117 -20.676  0.00  0.00    +0.144 HD
ENDROOT
BRANCH   2  11
ATOM     11  C   UNL     1      32.229 -22.074 -17.515  0.00  0.00    +0.051 C 
ATOM     12  C   UNL     1      33.465 -22.538 -17.079  0.00  0.00    +0.018 C 
ATOM     13  C   UNL     1      31.096 -22.224 -16.723  0.00  0.00    +0.018 C 
ATOM     14  C   UNL     1      32.437 -23.313 -15.034  0.00  0.00    +0.139 C 
ATOM     15  C   UNL     1      33.569 -23.159 -15.835  0.00  0.00    +0.038 C 
ATOM     16  C   UNL     1      31.200 -22.845 -15.479  0.00  0.00    +0.038 C 
BRANCH  14  17
ATOM     17  O   UNL     1      32.539 -23.919 -13.820  0.00  0.00    -0.471 OA
ATOM     18  C   UNL     1      31.402 -24.650 -13.363  0.00  0.00    +0.252 C 
ENDBRANCH  14  17
ENDBRANCH   2  11
BRANCH   4  20
ATOM     19  O   UNL     1      34.959 -19.121 -23.325  0.00  0.00    -0.290 OA
ATOM     20  C   UNL     1      34.535 -18.616 -22.272  0.00  0.00    +0.191 C 
BRANCH  20  21
ATOM     21  C   UNL     1      34.379 -17.171 -22.235  0.00  0.00    +0.036 C 
ATOM     22  C   UNL     1      34.328 -16.445 -23.426  0.00  0.00    +0.006 C 
ATOM     23  C   UNL     1      34.282 -16.510 -21.011  0.00  0.00    +0.006 C 
ATOM     24  C   UNL     1      34.080 -14.398 -22.165  0.00  0.00    +0.139 C 
ATOM     25  C   UNL     1      34.178 -15.059 -23.391  0.00  0.00    +0.037 C 
ATOM     26  C   UNL     1      34.133 -15.124 -20.976  0.00  0.00    +0.037 C 
BRANCH  24  27
ATOM     27  O   UNL     1      33.932 -13.046 -22.131  0.00  0.00    -0.471 OA
ATOM     28  C   UNL     1      33.107 -12.457 -23.136  0.00  0.00    +0.252 C 
ENDBRANCH  24  27
ENDBRANCH  20  21
ENDBRANCH   4  20
TORSDOF 5
ENDMDL
MODEL 6
REMARK VINA RESULT:     -11.0      2.658      9.211
REMARK  Name = 399618
REMARK  5 active torsions:
REMARK  status: ('A' for Active; 'I' for Inactive)
REMARK    1  A    between atoms: N_2  and  C_8
REMARK    2  A    between atoms: C_4  and  C_20
REMARK    3  A    between atoms: C_11  and  O_14
REMARK    4  A    between atoms: C_20  and  C_21
REMARK    5  A    between atoms: C_24  and  O_27
REMARK                            x       y       z     vdW  Elec       q    Type
REMARK                         _______ _______ _______ _____ _____    ______ ____
ROOT
ATOM      1  S   UNL     1      35.163 -20.632 -19.682  0.00  0.00    -0.051 S 
ATOM      2  N   UNL     1      35.208 -18.322 -21.000  0.00  0.00    -0.283 N 
ATOM      3  N   UNL     1      33.125 -19.394 -20.681  0.00  0.00    -0.370 NA
ATOM      4  C   UNL     1      33.621 -21.301 -19.515  0.00  0.00    +0.183 C 
ATOM      5  C   UNL     1      34.429 -19.333 -20.531  0.00  0.00    +0.213 C 
ATOM      6  C   UNL     1      32.660 -20.549 -20.083  0.00  0.00    +0.174 C 
ATOM      7  H   UNL     1      36.177 -18.466 -20.907  0.00  0.00    +0.155 HD
ATOM      8  N   UNL     1      31.338 -20.843 -20.101  0.00  0.00    -0.335 N 
ATOM      9  H   UNL     1      30.704 -20.232 -20.542  0.00  0.00    +0.144 HD
ATOM     10  H   UNL     1      31.010 -21.667 -19.673  0.00  0.00    +0.144 HD
ENDROOT
BRANCH   2  11
ATOM     11  C   UNL     1      34.840 -17.092 -21.604  0.00  0.00    +0.051 C 
ATOM     12  C   UNL     1      34.897 -16.960 -22.987  0.00  0.00    +0.018 C 
ATOM     13  C   UNL     1      34.427 -16.030 -20.808  0.00  0.00    +0.018 C 
ATOM     14  C   UNL     1      34.121 -14.681 -22.788  0.00  0.00    +0.139 C 
ATOM     15  C   UNL     1      34.536 -15.750 -23.580  0.00  0.00    +0.038 C 
ATOM     16  C   UNL     1      34.066 -14.821 -21.401  0.00  0.00    +0.038 C 
BRANCH  14  17
ATOM     17  O   UNL     1      33.768 -13.500 -23.367  0.00  0.00    -0.471 OA
ATOM     18  C   UNL     1      33.284 -12.473 -22.503  0.00  0.00    +0.252 C 
ENDBRANCH  14  17
ENDBRANCH   2  11
BRANCH   4  20
ATOM     19  O   UNL     1      33.730 -23.669 -19.358  0.00  0.00    -0.290 OA
ATOM     20  C   UNL     1      33.493 -22.587 -18.795  0.00  0.00    +0.191 C 
BRANCH  20  21
ATOM     21  C   UNL     1      33.102 -22.630 -17.395  0.00  0.00    +0.036 C 
ATOM     22  C   UNL     1      34.079 -22.695 -16.401  0.00  0.00    +0.006 C 
ATOM     23  C   UNL     1      31.752 -22.606 -17.046  0.00  0.00    +0.006 C 
ATOM     24  C   UNL     1      32.354 -22.711 -14.709  0.00  0.00    +0.139 C 
ATOM     25  C   UNL     1      33.705 -22.735 -15.058  0.00  0.00    +0.037 C 
ATOM     26  C   UNL     1      31.378 -22.647 -15.704  0.00  0.00    +0.037 C 
BRANCH  24  27
ATOM     27  O   UNL     1      31.989 -22.748 -13.399  0.00  0.00    -0.471 OA
ATOM     28  C   UNL     1      30.670 -23.209 -13.105  0.00  0.00    +0.252 C 
ENDBRANCH  24  27
ENDBRANCH  20  21
ENDBRANCH   4  20
TORSDOF 5
ENDMDL
MODEL 7
REMARK VINA RESULT:     -11.0      3.135      5.608
REMARK  Name = 399618
REMARK  5 active torsions:
REMARK  status: ('A' for Active; 'I' for Inactive)
REMARK    1  A    between atoms: N_2  and  C_8
REMARK    2  A    between atoms: C_4  and  C_20
REMARK    3  A    between atoms: C_11  and  O_14
REMARK    4  A    between atoms: C_20  and  C_21
REMARK    5  A    between atoms: C_24  and  O_27
REMARK                            x       y       z     vdW  Elec       q    Type
REMARK                         _______ _______ _______ _____ _____    ______ ____
ROOT
ATOM      1  S   UNL     1      33.527 -15.232 -24.249  0.00  0.00    -0.051 S 
ATOM      2  N   UNL     1      34.464 -17.362 -22.960  0.00  0.00    -0.283 N 
ATOM      3  N   UNL     1      34.242 -15.333 -21.767  0.00  0.00    -0.370 NA
ATOM      4  C   UNL     1      33.411 -13.843 -23.295  0.00  0.00    +0.183 C 
ATOM      5  C   UNL     1      34.133 -16.046 -22.865  0.00  0.00    +0.213 C 
ATOM      6  C   UNL     1      33.818 -14.044 -22.027  0.00  0.00    +0.174 C 
ATOM      7  H   UNL     1      34.430 -17.734 -23.871  0.00  0.00    +0.155 HD
ATOM      8  N   UNL     1      33.834 -13.109 -21.048  0.00  0.00    -0.335 N 
ATOM      9  H   UNL     1      34.149 -13.346 -20.146  0.00  0.00    +0.144 HD
ATOM     10  H   UNL     1      33.530 -12.192 -21.237  0.00  0.00    +0.144 HD
ENDROOT
BRANCH   2  11
ATOM     11  C   UNL     1      34.852 -18.280 -21.951  0.00  0.00    +0.051 C 
ATOM     12  C   UNL     1      36.146 -18.240 -21.443  0.00  0.00    +0.018 C 
ATOM     13  C   UNL     1      33.935 -19.214 -21.480  0.00  0.00    +0.018 C 
ATOM     14  C   UNL     1      35.613 -20.082 -19.974  0.00  0.00    +0.139 C 
ATOM     15  C   UNL     1      36.527 -19.144 -20.452  0.00  0.00    +0.038 C 
ATOM     16  C   UNL     1      34.316 -20.117 -20.488  0.00  0.00    +0.038 C 
BRANCH  14  17
ATOM     17  O   UNL     1      35.984 -20.964 -19.006  0.00  0.00    -0.471 OA
ATOM     18  C   UNL     1      34.939 -21.629 -18.299  0.00  0.00    +0.252 C 
ENDBRANCH  14  17
ENDBRANCH   2  11
BRANCH   4  20
ATOM     19  O   UNL     1      32.877 -12.470 -25.158  0.00  0.00    -0.290 OA
ATOM     20  C   UNL     1      32.900 -12.606 -23.923  0.00  0.00    +0.191 C 
BRANCH  20  21
ATOM     21  C   UNL     1      32.390 -11.508 -23.117  0.00  0.00    +0.036 C 
ATOM     22  C   UNL     1      32.878 -10.216 -23.311  0.00  0.00    +0.006 C 
ATOM     23  C   UNL     1      31.413 -11.748 -22.151  0.00  0.00    +0.006 C 
ATOM     24  C   UNL     1      31.410  -9.403 -21.572  0.00  0.00    +0.139 C 
ATOM     25  C   UNL     1      32.388  -9.163 -22.538  0.00  0.00    +0.037 C 
ATOM     26  C   UNL     1      30.923 -10.695 -21.378  0.00  0.00    +0.037 C 
BRANCH  24  27
ATOM     27  O   UNL     1      30.931  -8.375 -20.819  0.00  0.00    -0.471 OA
ATOM     28  C   UNL     1      31.882  -7.430 -20.329  0.00  0.00    +0.252 C 
ENDBRANCH  24  27
ENDBRANCH  20  21
ENDBRANCH   4  20
TORSDOF 5
ENDMDL
MODEL 8
REMARK VINA RESULT:     -10.9      2.763     10.107
REMARK  Name = 399618
REMARK  5 active torsions:
REMARK  status: ('A' for Active; 'I' for Inactive)
REMARK    1  A    between atoms: N_2  and  C_8
REMARK    2  A    between atoms: C_4  and  C_20
REMARK    3  A    between atoms: C_11  and  O_14
REMARK    4  A    between atoms: C_20  and  C_21
REMARK    5  A    between atoms: C_24  and  O_27
REMARK                            x       y       z     vdW  Elec       q    Type
REMARK                         _______ _______ _______ _____ _____    ______ ____
ROOT
ATOM      1  S   UNL     1      36.146 -21.589 -17.032  0.00  0.00    -0.051 S 
ATOM      2  N   UNL     1      36.006 -20.208 -19.301  0.00  0.00    -0.283 N 
ATOM      3  N   UNL     1      34.105 -21.433 -18.611  0.00  0.00    -0.370 NA
ATOM      4  C   UNL     1      34.729 -22.421 -16.642  0.00  0.00    +0.183 C 
ATOM      5  C   UNL     1      35.344 -21.028 -18.442  0.00  0.00    +0.213 C 
ATOM      6  C   UNL     1      33.753 -22.249 -17.553  0.00  0.00    +0.174 C 
ATOM      7  H   UNL     1      36.960 -20.078 -19.099  0.00  0.00    +0.155 HD
ATOM      8  N   UNL     1      32.516 -22.797 -17.495  0.00  0.00    -0.335 N 
ATOM      9  H   UNL     1      31.863 -22.615 -18.210  0.00  0.00    +0.144 HD
ATOM     10  H   UNL     1      32.269 -23.377 -16.739  0.00  0.00    +0.144 HD
ENDROOT
BRANCH   2  11
ATOM     11  C   UNL     1      35.535 -19.513 -20.444  0.00  0.00    +0.051 C 
ATOM     12  C   UNL     1      36.349 -18.570 -21.061  0.00  0.00    +0.018 C 
ATOM     13  C   UNL     1      34.262 -19.780 -20.937  0.00  0.00    +0.018 C 
ATOM     14  C   UNL     1      34.611 -18.148 -22.684  0.00  0.00    +0.139 C 
ATOM     15  C   UNL     1      35.885 -17.885 -22.184  0.00  0.00    +0.038 C 
ATOM     16  C   UNL     1      33.799 -19.096 -22.061  0.00  0.00    +0.038 C 
BRANCH  14  17
ATOM     17  O   UNL     1      34.158 -17.481 -23.781  0.00  0.00    -0.471 OA
ATOM     18  C   UNL     1      33.166 -18.132 -24.573  0.00  0.00    +0.252 C 
ENDBRANCH  14  17
ENDBRANCH   2  11
BRANCH   4  20
ATOM     19  O   UNL     1      33.733 -23.196 -14.629  0.00  0.00    -0.290 OA
ATOM     20  C   UNL     1      34.709 -23.219 -15.397  0.00  0.00    +0.191 C 
BRANCH  20  21
ATOM     21  C   UNL     1      35.828 -24.075 -15.035  0.00  0.00    +0.036 C 
ATOM     22  C   UNL     1      35.669 -25.461 -15.021  0.00  0.00    +0.006 C 
ATOM     23  C   UNL     1      37.060 -23.511 -14.702  0.00  0.00    +0.006 C 
ATOM     24  C   UNL     1      37.974 -25.718 -14.342  0.00  0.00    +0.139 C 
ATOM     25  C   UNL     1      36.742 -26.283 -14.675  0.00  0.00    +0.037 C 
ATOM     26  C   UNL     1      38.132 -24.332 -14.356  0.00  0.00    +0.037 C 
BRANCH  24  27
ATOM     27  O   UNL     1      39.021 -26.519 -14.006  0.00  0.00    -0.471 OA
ATOM     28  C   UNL     1      40.327 -25.950 -14.091  0.00  0.00    +0.252 C 
ENDBRANCH  24  27
ENDBRANCH  20  21
ENDBRANCH   4  20
TORSDOF 5
ENDMDL
MODEL 9
REMARK VINA RESULT:     -10.9      1.389      1.705
REMARK  Name = 399618
REMARK  5 active torsions:
REMARK  status: ('A' for Active; 'I' for Inactive)
REMARK    1  A    between atoms: N_2  and  C_8
REMARK    2  A    between atoms: C_4  and  C_20
REMARK    3  A    between atoms: C_11  and  O_14
REMARK    4  A    between atoms: C_20  and  C_21
REMARK    5  A    between atoms: C_24  and  O_27
REMARK                            x       y       z     vdW  Elec       q    Type
REMARK                         _______ _______ _______ _____ _____    ______ ____
ROOT
ATOM      1  S   UNL     1      36.210 -19.523 -20.470  0.00  0.00    -0.051 S 
ATOM      2  N   UNL     1      36.350 -20.809 -18.145  0.00  0.00    -0.283 N 
ATOM      3  N   UNL     1      34.240 -20.607 -19.193  0.00  0.00    -0.370 NA
ATOM      4  C   UNL     1      34.654 -19.444 -21.122  0.00  0.00    +0.183 C 
ATOM      5  C   UNL     1      35.536 -20.391 -19.151  0.00  0.00    +0.213 C 
ATOM      6  C   UNL     1      33.732 -20.049 -20.351  0.00  0.00    +0.174 C 
ATOM      7  H   UNL     1      37.277 -20.482 -18.198  0.00  0.00    +0.155 HD
ATOM      8  N   UNL     1      32.409 -20.138 -20.627  0.00  0.00    -0.335 N 
ATOM      9  H   UNL     1      31.805 -20.601 -20.002  0.00  0.00    +0.144 HD
ATOM     10  H   UNL     1      32.051 -19.740 -21.453  0.00  0.00    +0.144 HD
ENDROOT
BRANCH   2  11
ATOM     11  C   UNL     1      36.070 -21.642 -17.032  0.00  0.00    +0.051 C 
ATOM     12  C   UNL     1      34.780 -22.121 -16.837  0.00  0.00    +0.018 C 
ATOM     13  C   UNL     1      37.090 -21.972 -16.145  0.00  0.00    +0.018 C 
ATOM     14  C   UNL     1      35.522 -23.275 -14.849  0.00  0.00    +0.139 C 
ATOM     15  C   UNL     1      34.506 -22.940 -15.742  0.00  0.00    +0.038 C 
ATOM     16  C   UNL     1      36.815 -22.791 -15.051  0.00  0.00    +0.038 C 
BRANCH  14  17
ATOM     17  O   UNL     1      35.255 -24.075 -13.780  0.00  0.00    -0.471 OA
ATOM     18  C   UNL     1      36.317 -24.900 -13.306  0.00  0.00    +0.252 C 
ENDBRANCH  14  17
ENDBRANCH   2  11
BRANCH   4  20
ATOM     19  O   UNL     1      34.410 -19.376 -23.485  0.00  0.00    -0.290 OA
ATOM     20  C   UNL     1      34.474 -18.748 -22.415  0.00  0.00    +0.191 C 
BRANCH  20  21
ATOM     21  C   UNL     1      34.349 -17.300 -22.478  0.00  0.00    +0.036 C 
ATOM     22  C   UNL     1      34.231 -16.665 -23.714  0.00  0.00    +0.006 C 
ATOM     23  C   UNL     1      34.347 -16.548 -21.304  0.00  0.00    +0.006 C 
ATOM     24  C   UNL     1      34.108 -14.524 -22.600  0.00  0.00    +0.139 C 
ATOM     25  C   UNL     1      34.110 -15.276 -23.775  0.00  0.00    +0.037 C 
ATOM     26  C   UNL     1      34.227 -15.160 -21.364  0.00  0.00    +0.037 C 
BRANCH  24  27
ATOM     27  O   UNL     1      33.989 -13.169 -22.659  0.00  0.00    -0.471 OA
ATOM     28  C   UNL     1      32.829 -12.648 -23.307  0.00  0.00    +0.252 C 
ENDBRANCH  24  27
ENDBRANCH  20  21
ENDBRANCH   4  20
TORSDOF 5
ENDMDL
