MODEL 1
REMARK VINA RESULT:     -13.4      0.000      0.000
REMARK  Name = 11710963
REMARK  3 active torsions:
REMARK  status: ('A' for Active; 'I' for Inactive)
REMARK    1  A    between atoms: C_3  and  C_17
REMARK    2  A    between atoms: C_4  and  N_27
REMARK    3  A    between atoms: C_12  and  S_23
REMARK                            x       y       z     vdW  Elec       q    Type
REMARK                         _______ _______ _______ _____ _____    ______ ____
ROOT
ATOM      1  N   UNL     1      34.683 -22.142 -17.195  0.00  0.00    -0.266 N 
ATOM      2  N   UNL     1      36.803 -21.774 -16.661  0.00  0.00    -0.394 NA
ATOM      3  C   UNL     1      34.798 -20.803 -19.710  0.00  0.00    +0.015 C 
ATOM      4  C   UNL     1      33.438 -20.908 -18.964  0.00  0.00    -0.041 C 
ATOM      5  C   UNL     1      35.942 -20.582 -18.697  0.00  0.00    +0.077 C 
ATOM      6  C   UNL     1      33.463 -22.088 -17.979  0.00  0.00    +0.076 C 
ATOM      7  C   UNL     1      35.850 -21.499 -17.526  0.00  0.00    +0.164 C 
ATOM      8  C   UNL     1      34.901 -22.883 -16.063  0.00  0.00    +0.079 C 
ATOM      9  C   UNL     1      36.235 -22.633 -15.748  0.00  0.00    +0.129 C 
ATOM     10  C   UNL     1      34.090 -23.732 -15.304  0.00  0.00    +0.018 C 
ATOM     11  C   UNL     1      36.802 -23.245 -14.618  0.00  0.00    +0.105 C 
ATOM     12  C   UNL     1      36.003 -24.095 -13.844  0.00  0.00    +0.091 C 
ATOM     13  C   UNL     1      34.670 -24.334 -14.184  0.00  0.00    +0.016 C 
ENDROOT
BRANCH   3  17
ATOM     14  F   UNL     1      36.844 -18.842 -19.862  0.00  0.00    -0.204 F 
ATOM     15  F   UNL     1      32.920 -18.634 -23.665  0.00  0.00    -0.202 F 
ATOM     16  F   UNL     1      34.954 -16.807 -23.692  0.00  0.00    -0.202 F 
ATOM     17  C   UNL     1      34.842 -19.726 -20.782  0.00  0.00    +0.006 C 
ATOM     18  C   UNL     1      35.880 -18.798 -20.792  0.00  0.00    +0.138 C 
ATOM     19  C   UNL     1      33.842 -19.675 -21.749  0.00  0.00    +0.030 C 
ATOM     20  C   UNL     1      33.881 -18.688 -22.734  0.00  0.00    +0.167 C 
ATOM     21  C   UNL     1      35.918 -17.811 -21.776  0.00  0.00    +0.061 C 
ATOM     22  C   UNL     1      34.919 -17.756 -22.747  0.00  0.00    +0.170 C 
ENDBRANCH   3  17
BRANCH  12  23
ATOM     23  S   UNL     1      36.687 -24.869 -12.434  0.00  0.00    +0.007 S 
ATOM     24  O   UNL     1      35.639 -24.974 -11.430  0.00  0.00    -0.169 OA
ATOM     25  O   UNL     1      37.407 -26.062 -12.856  0.00  0.00    -0.169 OA
ATOM     26  C   UNL     1      37.900 -23.712 -11.842  0.00  0.00    +0.181 C 
ENDBRANCH  12  23
BRANCH   4  27
ATOM     27  N   UNL     1      32.307 -21.102 -19.874  0.00  0.00    +0.383 N 
ATOM     28  H   UNL     1      31.868 -22.004 -19.684  0.00  0.00    -0.089 HD
ATOM     29  H   UNL     1      32.639 -21.082 -20.838  0.00  0.00    -0.089 HD
ATOM     30  H   UNL     1      31.626 -20.356 -19.734  0.00  0.00    -0.089 HD
ENDBRANCH   4  27
TORSDOF 3
ENDMDL
MODEL 2
REMARK VINA RESULT:     -13.0      1.595      2.083
REMARK  Name = 11710963
REMARK  3 active torsions:
REMARK  status: ('A' for Active; 'I' for Inactive)
REMARK    1  A    between atoms: C_3  and  C_17
REMARK    2  A    between atoms: C_4  and  N_27
REMARK    3  A    between atoms: C_12  and  S_23
REMARK                            x       y       z     vdW  Elec       q    Type
REMARK                         _______ _______ _______ _____ _____    ______ ____
ROOT
ATOM      1  N   UNL     1      34.508 -21.456 -18.088  0.00  0.00    -0.266 N 
ATOM      2  N   UNL     1      36.641 -21.089 -17.607  0.00  0.00    -0.394 NA
ATOM      3  C   UNL     1      34.511 -19.958 -20.514  0.00  0.00    +0.015 C 
ATOM      4  C   UNL     1      33.182 -20.132 -19.727  0.00  0.00    -0.041 C 
ATOM      5  C   UNL     1      35.689 -19.784 -19.529  0.00  0.00    +0.077 C 
ATOM      6  C   UNL     1      33.259 -21.373 -18.822  0.00  0.00    +0.076 C 
ATOM      7  C   UNL     1      35.652 -20.775 -18.418  0.00  0.00    +0.164 C 
ATOM      8  C   UNL     1      34.777 -22.265 -17.014  0.00  0.00    +0.079 C 
ATOM      9  C   UNL     1      36.118 -22.013 -16.731  0.00  0.00    +0.129 C 
ATOM     10  C   UNL     1      34.006 -23.174 -16.283  0.00  0.00    +0.018 C 
ATOM     11  C   UNL     1      36.735 -22.688 -15.664  0.00  0.00    +0.105 C 
ATOM     12  C   UNL     1      35.977 -23.599 -14.918  0.00  0.00    +0.091 C 
ATOM     13  C   UNL     1      34.636 -23.836 -15.225  0.00  0.00    +0.016 C 
ENDROOT
BRANCH   3  17
ATOM     14  F   UNL     1      34.366 -20.347 -23.321  0.00  0.00    -0.204 F 
ATOM     15  F   UNL     1      34.623 -15.183 -21.540  0.00  0.00    -0.202 F 
ATOM     16  F   UNL     1      34.477 -15.703 -24.220  0.00  0.00    -0.202 F 
ATOM     17  C   UNL     1      34.502 -18.814 -21.514  0.00  0.00    +0.006 C 
ATOM     18  C   UNL     1      34.427 -19.083 -22.877  0.00  0.00    +0.138 C 
ATOM     19  C   UNL     1      34.568 -17.500 -21.058  0.00  0.00    +0.030 C 
ATOM     20  C   UNL     1      34.558 -16.447 -21.974  0.00  0.00    +0.167 C 
ATOM     21  C   UNL     1      34.419 -18.031 -23.793  0.00  0.00    +0.061 C 
ATOM     22  C   UNL     1      34.484 -16.713 -23.341  0.00  0.00    +0.170 C 
ENDBRANCH   3  17
BRANCH  12  23
ATOM     23  S   UNL     1      36.723 -24.450 -13.587  0.00  0.00    +0.007 S 
ATOM     24  O   UNL     1      38.014 -23.831 -13.329  0.00  0.00    -0.169 OA
ATOM     25  O   UNL     1      35.753 -24.577 -12.509  0.00  0.00    -0.169 OA
ATOM     26  C   UNL     1      37.015 -26.086 -14.219  0.00  0.00    +0.181 C 
ENDBRANCH  12  23
BRANCH   4  27
ATOM     27  N   UNL     1      32.021 -20.286 -20.607  0.00  0.00    +0.383 N 
ATOM     28  H   UNL     1      31.356 -19.534 -20.429  0.00  0.00    -0.089 HD
ATOM     29  H   UNL     1      31.573 -21.185 -20.424  0.00  0.00    -0.089 HD
ATOM     30  H   UNL     1      32.324 -20.250 -21.580  0.00  0.00    -0.089 HD
ENDBRANCH   4  27
TORSDOF 3
ENDMDL
MODEL 3
REMARK VINA RESULT:     -12.4      5.569      9.077
REMARK  Name = 11710963
REMARK  3 active torsions:
REMARK  status: ('A' for Active; 'I' for Inactive)
REMARK    1  A    between atoms: C_3  and  C_17
REMARK    2  A    between atoms: C_4  and  N_27
REMARK    3  A    between atoms: C_12  and  S_23
REMARK                            x       y       z     vdW  Elec       q    Type
REMARK                         _______ _______ _______ _____ _____    ______ ____
ROOT
ATOM      1  N   UNL     1      34.413 -21.842 -17.575  0.00  0.00    -0.266 N 
ATOM      2  N   UNL     1      36.424 -21.052 -18.069  0.00  0.00    -0.394 NA
ATOM      3  C   UNL     1      35.151 -22.902 -15.033  0.00  0.00    +0.015 C 
ATOM      4  C   UNL     1      33.955 -23.530 -15.803  0.00  0.00    -0.041 C 
ATOM      5  C   UNL     1      36.266 -22.500 -16.024  0.00  0.00    +0.077 C 
ATOM      6  C   UNL     1      33.382 -22.519 -16.809  0.00  0.00    +0.076 C 
ATOM      7  C   UNL     1      35.735 -21.777 -17.214  0.00  0.00    +0.164 C 
ATOM      8  C   UNL     1      34.237 -21.105 -18.718  0.00  0.00    +0.079 C 
ATOM      9  C   UNL     1      35.513 -20.625 -19.007  0.00  0.00    +0.129 C 
ATOM     10  C   UNL     1      33.120 -20.812 -19.505  0.00  0.00    +0.018 C 
ATOM     11  C   UNL     1      35.702 -19.815 -20.140  0.00  0.00    +0.105 C 
ATOM     12  C   UNL     1      34.596 -19.515 -20.943  0.00  0.00    +0.091 C 
ATOM     13  C   UNL     1      33.327 -20.005 -20.628  0.00  0.00    +0.016 C 
ENDROOT
BRANCH   3  17
ATOM     14  F   UNL     1      36.080 -25.543 -15.499  0.00  0.00    -0.204 F 
ATOM     15  F   UNL     1      36.427 -23.656 -10.378  0.00  0.00    -0.202 F 
ATOM     16  F   UNL     1      37.287 -26.184 -10.969  0.00  0.00    -0.202 F 
ATOM     17  C   UNL     1      35.727 -23.788 -13.940  0.00  0.00    +0.006 C 
ATOM     18  C   UNL     1      36.164 -25.074 -14.246  0.00  0.00    +0.138 C 
ATOM     19  C   UNL     1      35.814 -23.305 -12.638  0.00  0.00    +0.030 C 
ATOM     20  C   UNL     1      36.343 -24.116 -11.632  0.00  0.00    +0.167 C 
ATOM     21  C   UNL     1      36.692 -25.884 -13.241  0.00  0.00    +0.061 C 
ATOM     22  C   UNL     1      36.782 -25.405 -11.934  0.00  0.00    +0.170 C 
ENDBRANCH   3  17
BRANCH  12  23
ATOM     23  S   UNL     1      34.807 -18.509 -22.357  0.00  0.00    +0.007 S 
ATOM     24  O   UNL     1      36.178 -18.671 -22.818  0.00  0.00    -0.169 OA
ATOM     25  O   UNL     1      33.702 -18.749 -23.273  0.00  0.00    -0.169 OA
ATOM     26  C   UNL     1      34.626 -16.849 -21.746  0.00  0.00    +0.181 C 
ENDBRANCH  12  23
BRANCH   4  27
ATOM     27  N   UNL     1      32.868 -23.948 -14.914  0.00  0.00    +0.383 N 
ATOM     28  H   UNL     1      32.678 -23.210 -14.236  0.00  0.00    -0.089 HD
ATOM     29  H   UNL     1      33.139 -24.799 -14.423  0.00  0.00    -0.089 HD
ATOM     30  H   UNL     1      32.029 -24.127 -15.465  0.00  0.00    -0.089 HD
ENDBRANCH   4  27
TORSDOF 3
ENDMDL
MODEL 4
REMARK VINA RESULT:     -12.3     10.824     14.008
REMARK  Name = 11710963
REMARK  3 active torsions:
REMARK  status: ('A' for Active; 'I' for Inactive)
REMARK    1  A    between atoms: C_3  and  C_17
REMARK    2  A    between atoms: C_4  and  N_27
REMARK    3  A    between atoms: C_12  and  S_23
REMARK                            x       y       z     vdW  Elec       q    Type
REMARK                         _______ _______ _______ _____ _____    ______ ____
ROOT
ATOM      1  N   UNL     1      32.134 -10.418 -21.953  0.00  0.00    -0.266 N 
ATOM      2  N   UNL     1      33.288  -9.638 -23.678  0.00  0.00    -0.394 NA
ATOM      3  C   UNL     1      33.392 -12.977 -21.915  0.00  0.00    +0.015 C 
ATOM      4  C   UNL     1      31.952 -12.827 -21.349  0.00  0.00    -0.041 C 
ATOM      5  C   UNL     1      33.567 -12.079 -23.161  0.00  0.00    +0.077 C 
ATOM      6  C   UNL     1      31.688 -11.367 -20.948  0.00  0.00    +0.076 C 
ATOM      7  C   UNL     1      33.031 -10.705 -22.951  0.00  0.00    +0.164 C 
ATOM      8  C   UNL     1      31.805  -9.090 -22.032  0.00  0.00    +0.079 C 
ATOM      9  C   UNL     1      32.538  -8.626 -23.122  0.00  0.00    +0.129 C 
ATOM     10  C   UNL     1      30.967  -8.265 -21.276  0.00  0.00    +0.018 C 
ATOM     11  C   UNL     1      32.437  -7.275 -23.495  0.00  0.00    +0.105 C 
ATOM     12  C   UNL     1      31.599  -6.435 -22.753  0.00  0.00    +0.091 C 
ATOM     13  C   UNL     1      30.878  -6.924 -21.662  0.00  0.00    +0.016 C 
ENDROOT
BRANCH   3  17
ATOM     14  F   UNL     1      34.263 -14.847 -19.966  0.00  0.00    -0.204 F 
ATOM     15  F   UNL     1      34.042 -16.583 -25.147  0.00  0.00    -0.202 F 
ATOM     16  F   UNL     1      34.862 -18.280 -23.167  0.00  0.00    -0.202 F 
ATOM     17  C   UNL     1      33.789 -14.406 -22.250  0.00  0.00    +0.006 C 
ATOM     18  C   UNL     1      34.205 -15.266 -21.238  0.00  0.00    +0.138 C 
ATOM     19  C   UNL     1      33.731 -14.845 -23.569  0.00  0.00    +0.030 C 
ATOM     20  C   UNL     1      34.093 -16.156 -23.879  0.00  0.00    +0.167 C 
ATOM     21  C   UNL     1      34.568 -16.577 -21.548  0.00  0.00    +0.061 C 
ATOM     22  C   UNL     1      34.512 -17.022 -22.868  0.00  0.00    +0.170 C 
ENDBRANCH   3  17
BRANCH  12  23
ATOM     23  S   UNL     1      31.457  -4.751 -23.198  0.00  0.00    +0.007 S 
ATOM     24  O   UNL     1      30.188  -4.578 -23.889  0.00  0.00    -0.169 OA
ATOM     25  O   UNL     1      31.767  -3.931 -22.037  0.00  0.00    -0.169 OA
ATOM     26  C   UNL     1      32.763  -4.497 -24.378  0.00  0.00    +0.181 C 
ENDBRANCH  12  23
BRANCH   4  27
ATOM     27  N   UNL     1      31.717 -13.668 -20.172  0.00  0.00    +0.383 N 
ATOM     28  H   UNL     1      31.717 -14.650 -20.449  0.00  0.00    -0.089 HD
ATOM     29  H   UNL     1      30.815 -13.431 -19.760  0.00  0.00    -0.089 HD
ATOM     30  H   UNL     1      32.456 -13.507 -19.488  0.00  0.00    -0.089 HD
ENDBRANCH   4  27
TORSDOF 3
ENDMDL
MODEL 5
REMARK VINA RESULT:     -12.3      2.054      3.076
REMARK  Name = 11710963
REMARK  3 active torsions:
REMARK  status: ('A' for Active; 'I' for Inactive)
REMARK    1  A    between atoms: C_3  and  C_17
REMARK    2  A    between atoms: C_4  and  N_27
REMARK    3  A    between atoms: C_12  and  S_23
REMARK                            x       y       z     vdW  Elec       q    Type
REMARK                         _______ _______ _______ _____ _____    ______ ____
ROOT
ATOM      1  N   UNL     1      35.391 -20.629 -18.880  0.00  0.00    -0.266 N 
ATOM      2  N   UNL     1      33.347 -21.434 -18.585  0.00  0.00    -0.394 NA
ATOM      3  C   UNL     1      34.647 -18.706 -20.850  0.00  0.00    +0.015 C 
ATOM      4  C   UNL     1      36.100 -19.258 -20.834  0.00  0.00    -0.041 C 
ATOM      5  C   UNL     1      33.649 -19.831 -20.493  0.00  0.00    +0.077 C 
ATOM      6  C   UNL     1      36.446 -19.803 -19.439  0.00  0.00    +0.076 C 
ATOM      7  C   UNL     1      34.089 -20.627 -19.313  0.00  0.00    +0.164 C 
ATOM      8  C   UNL     1      35.491 -21.472 -17.804  0.00  0.00    +0.079 C 
ATOM      9  C   UNL     1      34.198 -21.966 -17.643  0.00  0.00    +0.129 C 
ATOM     10  C   UNL     1      36.552 -21.841 -16.972  0.00  0.00    +0.018 C 
ATOM     11  C   UNL     1      33.934 -22.879 -16.608  0.00  0.00    +0.105 C 
ATOM     12  C   UNL     1      34.985 -23.263 -15.767  0.00  0.00    +0.091 C 
ATOM     13  C   UNL     1      36.272 -22.750 -15.948  0.00  0.00    +0.016 C 
ENDROOT
BRANCH   3  17
ATOM     14  F   UNL     1      34.938 -15.929 -21.359  0.00  0.00    -0.204 F 
ATOM     15  F   UNL     1      32.791 -18.975 -25.361  0.00  0.00    -0.202 F 
ATOM     16  F   UNL     1      33.130 -16.285 -25.717  0.00  0.00    -0.202 F 
ATOM     17  C   UNL     1      34.239 -18.051 -22.160  0.00  0.00    +0.006 C 
ATOM     18  C   UNL     1      34.414 -16.682 -22.337  0.00  0.00    +0.138 C 
ATOM     19  C   UNL     1      33.693 -18.829 -23.177  0.00  0.00    +0.030 C 
ATOM     20  C   UNL     1      33.319 -18.231 -24.381  0.00  0.00    +0.167 C 
ATOM     21  C   UNL     1      34.039 -16.084 -23.540  0.00  0.00    +0.061 C 
ATOM     22  C   UNL     1      33.492 -16.859 -24.562  0.00  0.00    +0.170 C 
ENDBRANCH   3  17
BRANCH  12  23
ATOM     23  S   UNL     1      34.681 -24.398 -14.474  0.00  0.00    +0.007 S 
ATOM     24  O   UNL     1      33.297 -24.236 -14.055  0.00  0.00    -0.169 OA
ATOM     25  O   UNL     1      35.167 -25.709 -14.876  0.00  0.00    -0.169 OA
ATOM     26  C   UNL     1      35.725 -23.841 -13.146  0.00  0.00    +0.181 C 
ENDBRANCH  12  23
BRANCH   4  27
ATOM     27  N   UNL     1      37.095 -18.240 -21.181  0.00  0.00    +0.383 N 
ATOM     28  H   UNL     1      36.757 -17.687 -21.969  0.00  0.00    -0.089 HD
ATOM     29  H   UNL     1      37.971 -18.695 -21.436  0.00  0.00    -0.089 HD
ATOM     30  H   UNL     1      37.250 -17.630 -20.378  0.00  0.00    -0.089 HD
ENDBRANCH   4  27
TORSDOF 3
ENDMDL
MODEL 6
REMARK VINA RESULT:     -12.2     10.480     13.652
REMARK  Name = 11710963
REMARK  3 active torsions:
REMARK  status: ('A' for Active; 'I' for Inactive)
REMARK    1  A    between atoms: C_3  and  C_17
REMARK    2  A    between atoms: C_4  and  N_27
REMARK    3  A    between atoms: C_12  and  S_23
REMARK                            x       y       z     vdW  Elec       q    Type
REMARK                         _______ _______ _______ _____ _____    ______ ____
ROOT
ATOM      1  N   UNL     1      32.171 -10.978 -21.810  0.00  0.00    -0.266 N 
ATOM      2  N   UNL     1      33.113 -10.197 -23.658  0.00  0.00    -0.394 NA
ATOM      3  C   UNL     1      33.500 -13.500 -21.869  0.00  0.00    +0.015 C 
ATOM      4  C   UNL     1      32.124 -13.380 -21.155  0.00  0.00    -0.041 C 
ATOM      5  C   UNL     1      33.516 -12.620 -23.139  0.00  0.00    +0.077 C 
ATOM      6  C   UNL     1      31.862 -11.920 -20.750  0.00  0.00    +0.076 C 
ATOM      7  C   UNL     1      32.965 -11.257 -22.893  0.00  0.00    +0.164 C 
ATOM      8  C   UNL     1      31.797  -9.661 -21.873  0.00  0.00    +0.079 C 
ATOM      9  C   UNL     1      32.398  -9.196 -23.041  0.00  0.00    +0.129 C 
ATOM     10  C   UNL     1      31.020  -8.845 -21.044  0.00  0.00    +0.018 C 
ATOM     11  C   UNL     1      32.218  -7.855 -23.421  0.00  0.00    +0.105 C 
ATOM     12  C   UNL     1      31.439  -7.025 -22.606  0.00  0.00    +0.091 C 
ATOM     13  C   UNL     1      30.852  -7.514 -21.438  0.00  0.00    +0.016 C 
ENDROOT
BRANCH   3  17
ATOM     14  F   UNL     1      33.080 -14.644 -24.432  0.00  0.00    -0.204 F 
ATOM     15  F   UNL     1      35.453 -17.812 -20.659  0.00  0.00    -0.202 F 
ATOM     16  F   UNL     1      34.989 -18.785 -23.171  0.00  0.00    -0.202 F 
ATOM     17  C   UNL     1      33.900 -14.923 -22.222  0.00  0.00    +0.006 C 
ATOM     18  C   UNL     1      33.663 -15.414 -23.503  0.00  0.00    +0.138 C 
ATOM     19  C   UNL     1      34.504 -15.727 -21.260  0.00  0.00    +0.030 C 
ATOM     20  C   UNL     1      34.874 -17.034 -21.582  0.00  0.00    +0.167 C 
ATOM     21  C   UNL     1      34.031 -16.721 -23.824  0.00  0.00    +0.061 C 
ATOM     22  C   UNL     1      34.637 -17.530 -22.864  0.00  0.00    +0.170 C 
ENDBRANCH   3  17
BRANCH  12  23
ATOM     23  S   UNL     1      31.202  -5.354 -23.058  0.00  0.00    +0.007 S 
ATOM     24  O   UNL     1      32.455  -4.649 -22.835  0.00  0.00    -0.169 OA
ATOM     25  O   UNL     1      30.569  -5.307 -24.368  0.00  0.00    -0.169 OA
ATOM     26  C   UNL     1      30.013  -4.745 -21.884  0.00  0.00    +0.181 C 
ENDBRANCH  12  23
BRANCH   4  27
ATOM     27  N   UNL     1      32.039 -14.206 -19.949  0.00  0.00    +0.383 N 
ATOM     28  H   UNL     1      31.893 -15.181 -20.212  0.00  0.00    -0.089 HD
ATOM     29  H   UNL     1      31.258 -13.889 -19.374  0.00  0.00    -0.089 HD
ATOM     30  H   UNL     1      32.906 -14.123 -19.418  0.00  0.00    -0.089 HD
ENDBRANCH   4  27
TORSDOF 3
ENDMDL
MODEL 7
REMARK VINA RESULT:     -11.6      8.161     11.305
REMARK  Name = 11710963
REMARK  3 active torsions:
REMARK  status: ('A' for Active; 'I' for Inactive)
REMARK    1  A    between atoms: C_3  and  C_17
REMARK    2  A    between atoms: C_4  and  N_27
REMARK    3  A    between atoms: C_12  and  S_23
REMARK                            x       y       z     vdW  Elec       q    Type
REMARK                         _______ _______ _______ _____ _____    ______ ____
ROOT
ATOM      1  N   UNL     1      33.650 -14.586 -22.848  0.00  0.00    -0.266 N 
ATOM      2  N   UNL     1      33.619 -13.507 -20.911  0.00  0.00    -0.394 NA
ATOM      3  C   UNL     1      33.982 -17.179 -21.712  0.00  0.00    +0.015 C 
ATOM      4  C   UNL     1      34.489 -16.910 -23.156  0.00  0.00    -0.041 C 
ATOM      5  C   UNL     1      34.231 -15.940 -20.823  0.00  0.00    +0.077 C 
ATOM      6  C   UNL     1      33.746 -15.708 -23.763  0.00  0.00    +0.076 C 
ATOM      7  C   UNL     1      33.820 -14.672 -21.489  0.00  0.00    +0.164 C 
ATOM      8  C   UNL     1      33.305 -13.297 -23.162  0.00  0.00    +0.079 C 
ATOM      9  C   UNL     1      33.296 -12.641 -21.932  0.00  0.00    +0.129 C 
ATOM     10  C   UNL     1      33.001 -12.653 -24.365  0.00  0.00    +0.018 C 
ATOM     11  C   UNL     1      32.978 -11.274 -21.883  0.00  0.00    +0.105 C 
ATOM     12  C   UNL     1      32.675 -10.612 -23.079  0.00  0.00    +0.091 C 
ATOM     13  C   UNL     1      32.686 -11.292 -24.298  0.00  0.00    +0.016 C 
ENDROOT
BRANCH   3  17
ATOM     14  F   UNL     1      36.778 -17.599 -21.458  0.00  0.00    -0.204 F 
ATOM     15  F   UNL     1      33.492 -21.486 -19.458  0.00  0.00    -0.202 F 
ATOM     16  F   UNL     1      36.207 -21.761 -19.279  0.00  0.00    -0.202 F 
ATOM     17  C   UNL     1      34.584 -18.412 -21.057  0.00  0.00    +0.006 C 
ATOM     18  C   UNL     1      35.966 -18.547 -20.968  0.00  0.00    +0.138 C 
ATOM     19  C   UNL     1      33.745 -19.400 -20.549  0.00  0.00    +0.030 C 
ATOM     20  C   UNL     1      34.295 -20.533 -19.946  0.00  0.00    +0.167 C 
ATOM     21  C   UNL     1      36.516 -19.680 -20.367  0.00  0.00    +0.061 C 
ATOM     22  C   UNL     1      35.680 -20.672 -19.856  0.00  0.00    +0.170 C 
ENDBRANCH   3  17
BRANCH  12  23
ATOM     23  S   UNL     1      32.275  -8.911 -23.043  0.00  0.00    +0.007 S 
ATOM     24  O   UNL     1      33.516  -8.159 -23.156  0.00  0.00    -0.169 OA
ATOM     25  O   UNL     1      31.190  -8.664 -23.981  0.00  0.00    -0.169 OA
ATOM     26  C   UNL     1      31.621  -8.648 -21.410  0.00  0.00    +0.181 C 
ENDBRANCH  12  23
BRANCH   4  27
ATOM     27  N   UNL     1      34.295 -18.056 -24.047  0.00  0.00    +0.383 N 
ATOM     28  H   UNL     1      33.728 -17.775 -24.847  0.00  0.00    -0.089 HD
ATOM     29  H   UNL     1      33.821 -18.803 -23.540  0.00  0.00    -0.089 HD
ATOM     30  H   UNL     1      35.202 -18.390 -24.372  0.00  0.00    -0.089 HD
ENDBRANCH   4  27
TORSDOF 3
ENDMDL
MODEL 8
REMARK VINA RESULT:     -11.6     12.001     15.291
REMARK  Name = 11710963
REMARK  3 active torsions:
REMARK  status: ('A' for Active; 'I' for Inactive)
REMARK    1  A    between atoms: C_3  and  C_17
REMARK    2  A    between atoms: C_4  and  N_27
REMARK    3  A    between atoms: C_12  and  S_23
REMARK                            x       y       z     vdW  Elec       q    Type
REMARK                         _______ _______ _______ _____ _____    ______ ____
ROOT
ATOM      1  N   UNL     1      31.672  -8.993 -22.475  0.00  0.00    -0.266 N 
ATOM      2  N   UNL     1      33.080  -8.198 -23.992  0.00  0.00    -0.394 NA
ATOM      3  C   UNL     1      32.873 -11.574 -22.312  0.00  0.00    +0.015 C 
ATOM      4  C   UNL     1      31.368 -11.410 -21.961  0.00  0.00    -0.041 C 
ATOM      5  C   UNL     1      33.244 -10.654 -23.497  0.00  0.00    +0.077 C 
ATOM      6  C   UNL     1      31.069  -9.953 -21.570  0.00  0.00    +0.076 C 
ATOM      7  C   UNL     1      32.703  -9.275 -23.336  0.00  0.00    +0.164 C 
ATOM      8  C   UNL     1      31.379  -7.657 -22.570  0.00  0.00    +0.079 C 
ATOM      9  C   UNL     1      32.272  -7.184 -23.529  0.00  0.00    +0.129 C 
ATOM     10  C   UNL     1      30.451  -6.833 -21.927  0.00  0.00    +0.018 C 
ATOM     11  C   UNL     1      32.247  -5.824 -23.882  0.00  0.00    +0.105 C 
ATOM     12  C   UNL     1      31.321  -4.984 -23.251  0.00  0.00    +0.091 C 
ATOM     13  C   UNL     1      30.440  -5.483 -22.290  0.00  0.00    +0.016 C 
ENDROOT
BRANCH   3  17
ATOM     14  F   UNL     1      34.136 -13.264 -20.414  0.00  0.00    -0.204 F 
ATOM     15  F   UNL     1      33.221 -15.358 -25.383  0.00  0.00    -0.202 F 
ATOM     16  F   UNL     1      34.429 -16.876 -23.457  0.00  0.00    -0.202 F 
ATOM     17  C   UNL     1      33.293 -13.002 -22.618  0.00  0.00    +0.006 C 
ATOM     18  C   UNL     1      33.907 -13.772 -21.634  0.00  0.00    +0.138 C 
ATOM     19  C   UNL     1      33.059 -13.533 -23.883  0.00  0.00    +0.030 C 
ATOM     20  C   UNL     1      33.442 -14.844 -24.167  0.00  0.00    +0.167 C 
ATOM     21  C   UNL     1      34.291 -15.082 -21.917  0.00  0.00    +0.061 C 
ATOM     22  C   UNL     1      34.059 -15.619 -23.184  0.00  0.00    +0.170 C 
ENDBRANCH   3  17
BRANCH  12  23
ATOM     23  S   UNL     1      31.272  -3.289 -23.673  0.00  0.00    +0.007 S 
ATOM     24  O   UNL     1      30.004  -3.032 -24.339  0.00  0.00    -0.169 OA
ATOM     25  O   UNL     1      31.649  -2.504 -22.507  0.00  0.00    -0.169 OA
ATOM     26  C   UNL     1      32.570  -3.097 -24.873  0.00  0.00    +0.181 C 
ENDBRANCH  12  23
BRANCH   4  27
ATOM     27  N   UNL     1      30.949 -12.270 -20.852  0.00  0.00    +0.383 N 
ATOM     28  H   UNL     1      30.127 -11.869 -20.400  0.00  0.00    -0.089 HD
ATOM     29  H   UNL     1      31.707 -12.344 -20.174  0.00  0.00    -0.089 HD
ATOM     30  H   UNL     1      30.722 -13.198 -21.209  0.00  0.00    -0.089 HD
ENDBRANCH   4  27
TORSDOF 3
ENDMDL
MODEL 9
REMARK VINA RESULT:     -11.3      9.150     11.879
REMARK  Name = 11710963
REMARK  3 active torsions:
REMARK  status: ('A' for Active; 'I' for Inactive)
REMARK    1  A    between atoms: C_3  and  C_17
REMARK    2  A    between atoms: C_4  and  N_27
REMARK    3  A    between atoms: C_12  and  S_23
REMARK                            x       y       z     vdW  Elec       q    Type
REMARK                         _______ _______ _______ _____ _____    ______ ____
ROOT
ATOM      1  N   UNL     1      32.833 -12.287 -21.549  0.00  0.00    -0.266 N 
ATOM      2  N   UNL     1      33.821 -12.885 -23.442  0.00  0.00    -0.394 NA
ATOM      3  C   UNL     1      31.808  -9.819 -22.542  0.00  0.00    +0.015 C 
ATOM      4  C   UNL     1      32.078  -9.974 -21.019  0.00  0.00    -0.041 C 
ATOM      5  C   UNL     1      32.902 -10.550 -23.352  0.00  0.00    +0.077 C 
ATOM      6  C   UNL     1      32.074 -11.461 -20.628  0.00  0.00    +0.076 C 
ATOM      7  C   UNL     1      33.186 -11.913 -22.821  0.00  0.00    +0.164 C 
ATOM      8  C   UNL     1      33.251 -13.576 -21.343  0.00  0.00    +0.079 C 
ATOM      9  C   UNL     1      33.869 -13.925 -22.542  0.00  0.00    +0.129 C 
ATOM     10  C   UNL     1      33.148 -14.454 -20.260  0.00  0.00    +0.018 C 
ATOM     11  C   UNL     1      34.425 -15.208 -22.682  0.00  0.00    +0.105 C 
ATOM     12  C   UNL     1      34.336 -16.099 -21.605  0.00  0.00    +0.091 C 
ATOM     13  C   UNL     1      33.707 -15.726 -20.416  0.00  0.00    +0.016 C 
ENDROOT
BRANCH   3  17
ATOM     14  F   UNL     1      29.328  -8.563 -23.118  0.00  0.00    -0.204 F 
ATOM     15  F   UNL     1      33.848  -5.555 -23.778  0.00  0.00    -0.202 F 
ATOM     16  F   UNL     1      31.391  -4.471 -24.295  0.00  0.00    -0.202 F 
ATOM     17  C   UNL     1      31.692  -8.379 -23.015  0.00  0.00    +0.006 C 
ATOM     18  C   UNL     1      30.440  -7.831 -23.276  0.00  0.00    +0.138 C 
ATOM     19  C   UNL     1      32.844  -7.615 -23.182  0.00  0.00    +0.030 C 
ATOM     20  C   UNL     1      32.742  -6.292 -23.614  0.00  0.00    +0.167 C 
ATOM     21  C   UNL     1      30.338  -6.509 -23.709  0.00  0.00    +0.061 C 
ATOM     22  C   UNL     1      31.489  -5.740 -23.878  0.00  0.00    +0.170 C 
ENDBRANCH   3  17
BRANCH  12  23
ATOM     23  S   UNL     1      35.020 -17.700 -21.756  0.00  0.00    +0.007 S 
ATOM     24  O   UNL     1      36.427 -17.554 -22.098  0.00  0.00    -0.169 OA
ATOM     25  O   UNL     1      34.635 -18.486 -20.593  0.00  0.00    -0.169 OA
ATOM     26  C   UNL     1      34.184 -18.405 -23.159  0.00  0.00    +0.181 C 
ENDBRANCH  12  23
BRANCH   4  27
ATOM     27  N   UNL     1      31.081  -9.287 -20.195  0.00  0.00    +0.383 N 
ATOM     28  H   UNL     1      31.534  -8.891 -19.371  0.00  0.00    -0.089 HD
ATOM     29  H   UNL     1      30.366  -9.953 -19.902  0.00  0.00    -0.089 HD
ATOM     30  H   UNL     1      30.648  -8.540 -20.738  0.00  0.00    -0.089 HD
ENDBRANCH   4  27
TORSDOF 3
ENDMDL
