MODEL 1
REMARK VINA RESULT:     -11.3      0.000      0.000
REMARK  Name = 16122581
REMARK  13 active torsions:
REMARK  status: ('A' for Active; 'I' for Inactive)
REMARK    1  A    between atoms: S_1  and  C_4
REMARK    2  A    between atoms: S_1  and  N_19
REMARK    3  A    between atoms: C_12  and  O_14
REMARK    4  A    between atoms: O_14  and  C_15
REMARK    5  A    between atoms: C_15  and  C_16
REMARK    6  A    between atoms: C_16  and  C_17
REMARK    7  A    between atoms: N_19  and  C_21
REMARK    8  A    between atoms: C_21  and  C_23
REMARK    9  A    between atoms: C_21  and  C_26
REMARK   10  A    between atoms: C_23  and  O_24
REMARK   11  A    between atoms: C_26  and  C_27
REMARK   12  A    between atoms: C_27  and  C_29
REMARK   13  A    between atoms: C_29  and  O_30
REMARK                            x       y       z     vdW  Elec       q    Type
REMARK                         _______ _______ _______ _____ _____    ______ ____
ROOT
ATOM      1  S   UNL     1      34.933 -23.566 -12.767  0.00  0.00    +0.061 S 
ATOM      2  O   UNL     1      35.679 -22.750 -11.828  0.00  0.00    -0.153 OA
ATOM      3  O   UNL     1      33.511 -23.778 -12.580  0.00  0.00    -0.153 OA
ENDROOT
BRANCH   1   4
ATOM      4  C   UNL     1      35.143 -22.871 -14.380  0.00  0.00    +0.122 C 
ATOM      5  C   UNL     1      34.253 -22.391 -16.592  0.00  0.00    +0.002 C 
ATOM      6  C   UNL     1      35.475 -21.768 -16.940  0.00  0.00    +0.003 C 
ATOM      7  C   UNL     1      34.103 -22.938 -15.307  0.00  0.00    +0.020 C 
ATOM      8  C   UNL     1      36.345 -22.258 -14.722  0.00  0.00    +0.020 C 
ATOM      9  C   UNL     1      36.511 -21.710 -15.994  0.00  0.00    +0.001 C 
ATOM     10  C   UNL     1      35.625 -21.221 -18.225  0.00  0.00    +0.037 C 
ATOM     11  C   UNL     1      33.217 -22.449 -17.539  0.00  0.00    +0.003 C 
ATOM     12  C   UNL     1      34.585 -21.288 -19.153  0.00  0.00    +0.139 C 
ATOM     13  C   UNL     1      33.384 -21.901 -18.810  0.00  0.00    +0.037 C 
BRANCH  12  14
ATOM     14  O   UNL     1      34.746 -20.751 -20.394  0.00  0.00    -0.475 OA
BRANCH  14  15
ATOM     15  C   UNL     1      33.899 -19.657 -20.742  0.00  0.00    +0.205 C 
BRANCH  15  16
ATOM     16  C   UNL     1      34.416 -19.025 -22.027  0.00  0.00    +0.047 C 
BRANCH  16  17
ATOM     17  C   UNL     1      35.282 -17.801 -21.743  0.00  0.00    +0.004 C 
ATOM     18  C   UNL     1      36.761 -18.154 -21.737  0.00  0.00    +0.000 C 
ENDBRANCH  16  17
ENDBRANCH  15  16
ENDBRANCH  14  15
ENDBRANCH  12  14
ENDBRANCH   1   4
BRANCH   1  19
ATOM     19  N   UNL     1      35.698 -25.074 -12.935  0.00  0.00    -0.170 NA
ATOM     20  H   UNL     1      35.007 -25.714 -13.328  0.00  0.00    +0.149 HD
BRANCH  19  21
ATOM     21  C   UNL     1      36.915 -25.195 -13.769  0.00  0.00    +0.174 C 
BRANCH  21  23
ATOM     22  O   UNL     1      37.512 -27.387 -14.638  0.00  0.00    -0.249 OA
ATOM     23  C   UNL     1      36.764 -26.418 -14.641  0.00  0.00    +0.330 C 
BRANCH  23  24
ATOM     24  O   UNL     1      35.668 -26.343 -15.443  0.00  0.00    -0.479 OA
ATOM     25  H   UNL     1      34.980 -25.739 -15.239  0.00  0.00    +0.295 HD
ENDBRANCH  23  24
ENDBRANCH  21  23
BRANCH  21  26
ATOM     26  C   UNL     1      38.173 -25.192 -12.892  0.00  0.00    +0.040 C 
BRANCH  26  27
ATOM     27  C   UNL     1      39.454 -24.657 -13.539  0.00  0.00    +0.111 C 
BRANCH  27  29
ATOM     28  O   UNL     1      40.976 -26.520 -13.757  0.00  0.00    -0.250 OA
ATOM     29  C   UNL     1      40.239 -25.702 -14.292  0.00  0.00    +0.314 C 
BRANCH  29  30
ATOM     30  O   UNL     1      40.060 -25.628 -15.634  0.00  0.00    -0.480 OA
ATOM     31  H   UNL     1      39.360 -26.102 -16.040  0.00  0.00    +0.295 HD
ENDBRANCH  29  30
ENDBRANCH  27  29
ENDBRANCH  26  27
ENDBRANCH  21  26
ENDBRANCH  19  21
ENDBRANCH   1  19
TORSDOF 13
ENDMDL
MODEL 2
REMARK VINA RESULT:     -11.3      1.474      2.588
REMARK  Name = 16122581
REMARK  13 active torsions:
REMARK  status: ('A' for Active; 'I' for Inactive)
REMARK    1  A    between atoms: S_1  and  C_4
REMARK    2  A    between atoms: S_1  and  N_19
REMARK    3  A    between atoms: C_12  and  O_14
REMARK    4  A    between atoms: O_14  and  C_15
REMARK    5  A    between atoms: C_15  and  C_16
REMARK    6  A    between atoms: C_16  and  C_17
REMARK    7  A    between atoms: N_19  and  C_21
REMARK    8  A    between atoms: C_21  and  C_23
REMARK    9  A    between atoms: C_21  and  C_26
REMARK   10  A    between atoms: C_23  and  O_24
REMARK   11  A    between atoms: C_26  and  C_27
REMARK   12  A    between atoms: C_27  and  C_29
REMARK   13  A    between atoms: C_29  and  O_30
REMARK                            x       y       z     vdW  Elec       q    Type
REMARK                         _______ _______ _______ _____ _____    ______ ____
ROOT
ATOM      1  S   UNL     1      34.873 -23.691 -14.606  0.00  0.00    +0.061 S 
ATOM      2  O   UNL     1      33.573 -23.376 -14.043  0.00  0.00    -0.153 OA
ATOM      3  O   UNL     1      35.197 -25.055 -14.975  0.00  0.00    -0.153 OA
ENDROOT
BRANCH   1   4
ATOM      4  C   UNL     1      35.094 -22.699 -16.053  0.00  0.00    +0.122 C 
ATOM      5  C   UNL     1      34.176 -21.679 -18.062  0.00  0.00    +0.002 C 
ATOM      6  C   UNL     1      35.445 -21.123 -18.350  0.00  0.00    +0.003 C 
ATOM      7  C   UNL     1      34.017 -22.465 -16.908  0.00  0.00    +0.020 C 
ATOM      8  C   UNL     1      36.342 -22.152 -16.337  0.00  0.00    +0.020 C 
ATOM      9  C   UNL     1      36.518 -21.369 -17.478  0.00  0.00    +0.001 C 
ATOM     10  C   UNL     1      35.604 -20.337 -19.504  0.00  0.00    +0.037 C 
ATOM     11  C   UNL     1      33.103 -21.433 -18.934  0.00  0.00    +0.003 C 
ATOM     12  C   UNL     1      34.527 -20.104 -20.360  0.00  0.00    +0.139 C 
ATOM     13  C   UNL     1      33.280 -20.650 -20.075  0.00  0.00    +0.037 C 
BRANCH  12  14
ATOM     14  O   UNL     1      34.697 -19.338 -21.473  0.00  0.00    -0.475 OA
BRANCH  14  15
ATOM     15  C   UNL     1      35.603 -18.241 -21.372  0.00  0.00    +0.205 C 
BRANCH  15  16
ATOM     16  C   UNL     1      34.802 -16.952 -21.246  0.00  0.00    +0.047 C 
BRANCH  16  17
ATOM     17  C   UNL     1      34.513 -16.333 -22.610  0.00  0.00    +0.004 C 
ATOM     18  C   UNL     1      34.212 -14.848 -22.496  0.00  0.00    +0.000 C 
ENDBRANCH  16  17
ENDBRANCH  15  16
ENDBRANCH  14  15
ENDBRANCH  12  14
ENDBRANCH   1   4
BRANCH   1  19
ATOM     19  N   UNL     1      36.090 -23.092 -13.583  0.00  0.00    -0.170 NA
ATOM     20  H   UNL     1      35.681 -22.318 -13.058  0.00  0.00    +0.149 HD
BRANCH  19  21
ATOM     21  C   UNL     1      36.728 -23.989 -12.592  0.00  0.00    +0.174 C 
BRANCH  21  23
ATOM     22  O   UNL     1      36.447 -23.944 -10.177  0.00  0.00    -0.249 OA
ATOM     23  C   UNL     1      36.606 -23.344 -11.232  0.00  0.00    +0.330 C 
BRANCH  23  24
ATOM     24  O   UNL     1      36.713 -21.991 -11.295  0.00  0.00    -0.479 OA
ATOM     25  H   UNL     1      35.964 -21.454 -11.125  0.00  0.00    +0.295 HD
ENDBRANCH  23  24
ENDBRANCH  21  23
BRANCH  21  26
ATOM     26  C   UNL     1      38.165 -24.321 -13.012  0.00  0.00    +0.040 C 
BRANCH  26  27
ATOM     27  C   UNL     1      38.350 -25.571 -13.877  0.00  0.00    +0.111 C 
BRANCH  27  29
ATOM     28  O   UNL     1      40.688 -26.150 -13.700  0.00  0.00    -0.250 OA
ATOM     29  C   UNL     1      39.756 -25.757 -14.389  0.00  0.00    +0.314 C 
BRANCH  29  30
ATOM     30  O   UNL     1      39.888 -25.421 -15.697  0.00  0.00    -0.480 OA
ATOM     31  H   UNL     1      40.566 -24.832 -15.963  0.00  0.00    +0.295 HD
ENDBRANCH  29  30
ENDBRANCH  27  29
ENDBRANCH  26  27
ENDBRANCH  21  26
ENDBRANCH  19  21
ENDBRANCH   1  19
TORSDOF 13
ENDMDL
MODEL 3
REMARK VINA RESULT:     -11.0      1.718      3.098
REMARK  Name = 16122581
REMARK  13 active torsions:
REMARK  status: ('A' for Active; 'I' for Inactive)
REMARK    1  A    between atoms: S_1  and  C_4
REMARK    2  A    between atoms: S_1  and  N_19
REMARK    3  A    between atoms: C_12  and  O_14
REMARK    4  A    between atoms: O_14  and  C_15
REMARK    5  A    between atoms: C_15  and  C_16
REMARK    6  A    between atoms: C_16  and  C_17
REMARK    7  A    between atoms: N_19  and  C_21
REMARK    8  A    between atoms: C_21  and  C_23
REMARK    9  A    between atoms: C_21  and  C_26
REMARK   10  A    between atoms: C_23  and  O_24
REMARK   11  A    between atoms: C_26  and  C_27
REMARK   12  A    between atoms: C_27  and  C_29
REMARK   13  A    between atoms: C_29  and  O_30
REMARK                            x       y       z     vdW  Elec       q    Type
REMARK                         _______ _______ _______ _____ _____    ______ ____
ROOT
ATOM      1  S   UNL     1      35.659 -23.389 -15.010  0.00  0.00    +0.061 S 
ATOM      2  O   UNL     1      35.693 -22.472 -13.886  0.00  0.00    -0.153 OA
ATOM      3  O   UNL     1      34.684 -24.462 -15.045  0.00  0.00    -0.153 OA
ENDROOT
BRANCH   1   4
ATOM      4  C   UNL     1      35.433 -22.438 -16.483  0.00  0.00    +0.122 C 
ATOM      5  C   UNL     1      33.969 -21.583 -18.227  0.00  0.00    +0.002 C 
ATOM      6  C   UNL     1      35.073 -20.928 -18.822  0.00  0.00    +0.003 C 
ATOM      7  C   UNL     1      34.166 -22.334 -17.057  0.00  0.00    +0.020 C 
ATOM      8  C   UNL     1      36.519 -21.794 -17.069  0.00  0.00    +0.020 C 
ATOM      9  C   UNL     1      36.342 -21.044 -18.231  0.00  0.00    +0.001 C 
ATOM     10  C   UNL     1      34.877 -20.177 -19.993  0.00  0.00    +0.037 C 
ATOM     11  C   UNL     1      32.701 -21.466 -18.818  0.00  0.00    +0.003 C 
ATOM     12  C   UNL     1      33.609 -20.073 -20.567  0.00  0.00    +0.139 C 
ATOM     13  C   UNL     1      32.524 -20.716 -19.981  0.00  0.00    +0.037 C 
BRANCH  12  14
ATOM     14  O   UNL     1      33.435 -19.339 -21.701  0.00  0.00    -0.475 OA
BRANCH  14  15
ATOM     15  C   UNL     1      34.611 -18.841 -22.337  0.00  0.00    +0.205 C 
BRANCH  15  16
ATOM     16  C   UNL     1      34.258 -17.571 -23.098  0.00  0.00    +0.047 C 
BRANCH  16  17
ATOM     17  C   UNL     1      34.700 -16.320 -22.344  0.00  0.00    +0.004 C 
ATOM     18  C   UNL     1      34.366 -15.056 -23.118  0.00  0.00    +0.000 C 
ENDBRANCH  16  17
ENDBRANCH  15  16
ENDBRANCH  14  15
ENDBRANCH  12  14
ENDBRANCH   1   4
BRANCH   1  19
ATOM     19  N   UNL     1      37.209 -24.043 -15.250  0.00  0.00    -0.170 NA
ATOM     20  H   UNL     1      37.692 -23.426 -15.903  0.00  0.00    +0.149 HD
BRANCH  19  21
ATOM     21  C   UNL     1      38.115 -24.237 -14.095  0.00  0.00    +0.174 C 
BRANCH  21  23
ATOM     22  O   UNL     1      40.546 -24.185 -14.153  0.00  0.00    -0.249 OA
ATOM     23  C   UNL     1      39.486 -24.573 -14.629  0.00  0.00    +0.330 C 
BRANCH  23  24
ATOM     24  O   UNL     1      39.428 -25.392 -15.712  0.00  0.00    -0.479 OA
ATOM     25  H   UNL     1      38.655 -25.897 -15.876  0.00  0.00    +0.295 HD
ENDBRANCH  23  24
ENDBRANCH  21  23
BRANCH  21  26
ATOM     26  C   UNL     1      37.538 -25.276 -13.125  0.00  0.00    +0.040 C 
BRANCH  26  27
ATOM     27  C   UNL     1      37.555 -24.904 -11.640  0.00  0.00    +0.111 C 
BRANCH  27  29
ATOM     28  O   UNL     1      36.049 -23.926 -10.025  0.00  0.00    -0.250 OA
ATOM     29  C   UNL     1      36.208 -24.494 -11.097  0.00  0.00    +0.314 C 
BRANCH  29  30
ATOM     30  O   UNL     1      35.184 -24.842 -11.915  0.00  0.00    -0.480 OA
ATOM     31  H   UNL     1      34.331 -24.991 -11.559  0.00  0.00    +0.295 HD
ENDBRANCH  29  30
ENDBRANCH  27  29
ENDBRANCH  26  27
ENDBRANCH  21  26
ENDBRANCH  19  21
ENDBRANCH   1  19
TORSDOF 13
ENDMDL
MODEL 4
REMARK VINA RESULT:     -10.6      3.844      5.879
REMARK  Name = 16122581
REMARK  13 active torsions:
REMARK  status: ('A' for Active; 'I' for Inactive)
REMARK    1  A    between atoms: S_1  and  C_4
REMARK    2  A    between atoms: S_1  and  N_19
REMARK    3  A    between atoms: C_12  and  O_14
REMARK    4  A    between atoms: O_14  and  C_15
REMARK    5  A    between atoms: C_15  and  C_16
REMARK    6  A    between atoms: C_16  and  C_17
REMARK    7  A    between atoms: N_19  and  C_21
REMARK    8  A    between atoms: C_21  and  C_23
REMARK    9  A    between atoms: C_21  and  C_26
REMARK   10  A    between atoms: C_23  and  O_24
REMARK   11  A    between atoms: C_26  and  C_27
REMARK   12  A    between atoms: C_27  and  C_29
REMARK   13  A    between atoms: C_29  and  O_30
REMARK                            x       y       z     vdW  Elec       q    Type
REMARK                         _______ _______ _______ _____ _____    ______ ____
ROOT
ATOM      1  S   UNL     1      33.276 -22.808 -17.458  0.00  0.00    +0.061 S 
ATOM      2  O   UNL     1      32.976 -24.053 -18.140  0.00  0.00    -0.153 OA
ATOM      3  O   UNL     1      34.415 -22.721 -16.565  0.00  0.00    -0.153 OA
ENDROOT
BRANCH   1   4
ATOM      4  C   UNL     1      33.486 -21.551 -18.685  0.00  0.00    +0.122 C 
ATOM      5  C   UNL     1      34.948 -20.087 -19.963  0.00  0.00    +0.002 C 
ATOM      6  C   UNL     1      33.819 -19.557 -20.633  0.00  0.00    +0.003 C 
ATOM      7  C   UNL     1      34.764 -21.084 -18.991  0.00  0.00    +0.020 C 
ATOM      8  C   UNL     1      32.376 -21.030 -19.343  0.00  0.00    +0.020 C 
ATOM      9  C   UNL     1      32.540 -20.039 -20.311  0.00  0.00    +0.001 C 
ATOM     10  C   UNL     1      34.003 -18.560 -21.604  0.00  0.00    +0.037 C 
ATOM     11  C   UNL     1      36.227 -19.605 -20.285  0.00  0.00    +0.003 C 
ATOM     12  C   UNL     1      35.282 -18.092 -21.911  0.00  0.00    +0.139 C 
ATOM     13  C   UNL     1      36.390 -18.613 -21.252  0.00  0.00    +0.037 C 
BRANCH  12  14
ATOM     14  O   UNL     1      35.443 -17.126 -22.857  0.00  0.00    -0.475 OA
BRANCH  14  15
ATOM     15  C   UNL     1      34.265 -16.659 -23.513  0.00  0.00    +0.205 C 
BRANCH  15  16
ATOM     16  C   UNL     1      34.131 -15.161 -23.275  0.00  0.00    +0.047 C 
BRANCH  16  17
ATOM     17  C   UNL     1      34.122 -14.826 -21.787  0.00  0.00    +0.004 C 
ATOM     18  C   UNL     1      33.658 -13.400 -21.540  0.00  0.00    +0.000 C 
ENDBRANCH  16  17
ENDBRANCH  15  16
ENDBRANCH  14  15
ENDBRANCH  12  14
ENDBRANCH   1   4
BRANCH   1  19
ATOM     19  N   UNL     1      31.890 -22.267 -16.637  0.00  0.00    -0.170 NA
ATOM     20  H   UNL     1      31.220 -21.975 -17.350  0.00  0.00    +0.149 HD
BRANCH  19  21
ATOM     21  C   UNL     1      31.170 -23.182 -15.723  0.00  0.00    +0.174 C 
BRANCH  21  23
ATOM     22  O   UNL     1      28.816 -23.368 -15.141  0.00  0.00    -0.249 OA
ATOM     23  C   UNL     1      29.690 -22.923 -15.874  0.00  0.00    +0.330 C 
BRANCH  23  24
ATOM     24  O   UNL     1      29.417 -22.105 -16.924  0.00  0.00    -0.479 OA
ATOM     25  H   UNL     1      28.735 -22.329 -17.527  0.00  0.00    +0.295 HD
ENDBRANCH  23  24
ENDBRANCH  21  23
BRANCH  21  26
ATOM     26  C   UNL     1      31.698 -23.040 -14.291  0.00  0.00    +0.040 C 
BRANCH  26  27
ATOM     27  C   UNL     1      32.626 -24.152 -13.793  0.00  0.00    +0.111 C 
BRANCH  27  29
ATOM     28  O   UNL     1      34.042 -24.025 -11.841  0.00  0.00    -0.250 OA
ATOM     29  C   UNL     1      33.795 -23.655 -12.981  0.00  0.00    +0.314 C 
BRANCH  29  30
ATOM     30  O   UNL     1      34.539 -22.733 -13.642  0.00  0.00    -0.480 OA
ATOM     31  H   UNL     1      34.124 -22.123 -14.218  0.00  0.00    +0.295 HD
ENDBRANCH  29  30
ENDBRANCH  27  29
ENDBRANCH  26  27
ENDBRANCH  21  26
ENDBRANCH  19  21
ENDBRANCH   1  19
TORSDOF 13
ENDMDL
MODEL 5
REMARK VINA RESULT:     -10.5      5.728      9.445
REMARK  Name = 16122581
REMARK  13 active torsions:
REMARK  status: ('A' for Active; 'I' for Inactive)
REMARK    1  A    between atoms: S_1  and  C_4
REMARK    2  A    between atoms: S_1  and  N_19
REMARK    3  A    between atoms: C_12  and  O_14
REMARK    4  A    between atoms: O_14  and  C_15
REMARK    5  A    between atoms: C_15  and  C_16
REMARK    6  A    between atoms: C_16  and  C_17
REMARK    7  A    between atoms: N_19  and  C_21
REMARK    8  A    between atoms: C_21  and  C_23
REMARK    9  A    between atoms: C_21  and  C_26
REMARK   10  A    between atoms: C_23  and  O_24
REMARK   11  A    between atoms: C_26  and  C_27
REMARK   12  A    between atoms: C_27  and  C_29
REMARK   13  A    between atoms: C_29  and  O_30
REMARK                            x       y       z     vdW  Elec       q    Type
REMARK                         _______ _______ _______ _____ _____    ______ ____
ROOT
ATOM      1  S   UNL     1      35.503 -18.315 -21.645  0.00  0.00    +0.061 S 
ATOM      2  O   UNL     1      35.480 -19.163 -22.822  0.00  0.00    -0.153 OA
ATOM      3  O   UNL     1      36.763 -17.993 -21.003  0.00  0.00    -0.153 OA
ENDROOT
BRANCH   1   4
ATOM      4  C   UNL     1      34.730 -16.781 -22.063  0.00  0.00    +0.122 C 
ATOM      5  C   UNL     1      33.607 -14.738 -21.370  0.00  0.00    +0.002 C 
ATOM      6  C   UNL     1      33.502 -14.345 -22.726  0.00  0.00    +0.003 C 
ATOM      7  C   UNL     1      34.224 -15.959 -21.056  0.00  0.00    +0.020 C 
ATOM      8  C   UNL     1      34.626 -16.394 -23.396  0.00  0.00    +0.020 C 
ATOM      9  C   UNL     1      34.016 -15.185 -23.727  0.00  0.00    +0.001 C 
ATOM     10  C   UNL     1      32.885 -13.123 -23.040  0.00  0.00    +0.037 C 
ATOM     11  C   UNL     1      33.092 -13.898 -20.369  0.00  0.00    +0.003 C 
ATOM     12  C   UNL     1      32.378 -12.301 -22.033  0.00  0.00    +0.139 C 
ATOM     13  C   UNL     1      32.482 -12.688 -20.701  0.00  0.00    +0.037 C 
BRANCH  12  14
ATOM     14  O   UNL     1      31.784 -11.119 -22.355  0.00  0.00    -0.475 OA
BRANCH  14  15
ATOM     15  C   UNL     1      30.937 -10.530 -21.370  0.00  0.00    +0.205 C 
BRANCH  15  16
ATOM     16  C   UNL     1      31.221  -9.035 -21.308  0.00  0.00    +0.047 C 
BRANCH  16  17
ATOM     17  C   UNL     1      31.471  -8.568 -19.877  0.00  0.00    +0.004 C 
ATOM     18  C   UNL     1      31.265  -9.696 -18.879  0.00  0.00    +0.000 C 
ENDBRANCH  16  17
ENDBRANCH  15  16
ENDBRANCH  14  15
ENDBRANCH  12  14
ENDBRANCH   1   4
BRANCH   1  19
ATOM     19  N   UNL     1      34.435 -18.940 -20.481  0.00  0.00    -0.170 NA
ATOM     20  H   UNL     1      33.569 -18.405 -20.557  0.00  0.00    +0.149 HD
BRANCH  19  21
ATOM     21  C   UNL     1      34.057 -20.371 -20.519  0.00  0.00    +0.174 C 
BRANCH  21  23
ATOM     22  O   UNL     1      32.552 -20.968 -18.704  0.00  0.00    -0.249 OA
ATOM     23  C   UNL     1      32.721 -20.519 -19.830  0.00  0.00    +0.330 C 
BRANCH  23  24
ATOM     24  O   UNL     1      31.695 -20.073 -20.602  0.00  0.00    -0.479 OA
ATOM     25  H   UNL     1      30.815 -20.325 -20.401  0.00  0.00    +0.295 HD
ENDBRANCH  23  24
ENDBRANCH  21  23
BRANCH  21  26
ATOM     26  C   UNL     1      35.175 -21.240 -19.931  0.00  0.00    +0.040 C 
BRANCH  26  27
ATOM     27  C   UNL     1      35.996 -20.620 -18.797  0.00  0.00    +0.111 C 
BRANCH  27  29
ATOM     28  O   UNL     1      36.801 -21.315 -16.628  0.00  0.00    -0.250 OA
ATOM     29  C   UNL     1      35.961 -21.412 -17.514  0.00  0.00    +0.314 C 
BRANCH  29  30
ATOM     30  O   UNL     1      34.907 -22.262 -17.450  0.00  0.00    -0.480 OA
ATOM     31  H   UNL     1      34.033 -21.925 -17.457  0.00  0.00    +0.295 HD
ENDBRANCH  29  30
ENDBRANCH  27  29
ENDBRANCH  26  27
ENDBRANCH  21  26
ENDBRANCH  19  21
ENDBRANCH   1  19
TORSDOF 13
ENDMDL
MODEL 6
REMARK VINA RESULT:     -10.5      3.306      6.066
REMARK  Name = 16122581
REMARK  13 active torsions:
REMARK  status: ('A' for Active; 'I' for Inactive)
REMARK    1  A    between atoms: S_1  and  C_4
REMARK    2  A    between atoms: S_1  and  N_19
REMARK    3  A    between atoms: C_12  and  O_14
REMARK    4  A    between atoms: O_14  and  C_15
REMARK    5  A    between atoms: C_15  and  C_16
REMARK    6  A    between atoms: C_16  and  C_17
REMARK    7  A    between atoms: N_19  and  C_21
REMARK    8  A    between atoms: C_21  and  C_23
REMARK    9  A    between atoms: C_21  and  C_26
REMARK   10  A    between atoms: C_23  and  O_24
REMARK   11  A    between atoms: C_26  and  C_27
REMARK   12  A    between atoms: C_27  and  C_29
REMARK   13  A    between atoms: C_29  and  O_30
REMARK                            x       y       z     vdW  Elec       q    Type
REMARK                         _______ _______ _______ _____ _____    ______ ____
ROOT
ATOM      1  S   UNL     1      34.106 -23.400 -15.312  0.00  0.00    +0.061 S 
ATOM      2  O   UNL     1      34.774 -24.682 -15.441  0.00  0.00    -0.153 OA
ATOM      3  O   UNL     1      34.316 -22.584 -14.132  0.00  0.00    -0.153 OA
ENDROOT
BRANCH   1   4
ATOM      4  C   UNL     1      34.549 -22.412 -16.709  0.00  0.00    +0.122 C 
ATOM      5  C   UNL     1      33.905 -21.229 -18.735  0.00  0.00    +0.002 C 
ATOM      6  C   UNL     1      35.252 -20.841 -18.928  0.00  0.00    +0.003 C 
ATOM      7  C   UNL     1      33.570 -22.015 -17.620  0.00  0.00    +0.020 C 
ATOM      8  C   UNL     1      35.874 -22.029 -16.899  0.00  0.00    +0.020 C 
ATOM      9  C   UNL     1      36.224 -21.249 -18.001  0.00  0.00    +0.001 C 
ATOM     10  C   UNL     1      35.587 -20.055 -20.043  0.00  0.00    +0.037 C 
ATOM     11  C   UNL     1      32.932 -20.821 -19.662  0.00  0.00    +0.003 C 
ATOM     12  C   UNL     1      34.607 -19.659 -20.955  0.00  0.00    +0.139 C 
ATOM     13  C   UNL     1      33.283 -20.041 -20.764  0.00  0.00    +0.037 C 
BRANCH  12  14
ATOM     14  O   UNL     1      34.949 -18.896 -22.029  0.00  0.00    -0.475 OA
BRANCH  14  15
ATOM     15  C   UNL     1      35.623 -17.667 -21.764  0.00  0.00    +0.205 C 
BRANCH  15  16
ATOM     16  C   UNL     1      34.614 -16.658 -21.232  0.00  0.00    +0.047 C 
BRANCH  16  17
ATOM     17  C   UNL     1      34.440 -15.480 -22.186  0.00  0.00    +0.004 C 
ATOM     18  C   UNL     1      34.176 -15.949 -23.608  0.00  0.00    +0.000 C 
ENDBRANCH  16  17
ENDBRANCH  15  16
ENDBRANCH  14  15
ENDBRANCH  12  14
ENDBRANCH   1   4
BRANCH   1  19
ATOM     19  N   UNL     1      32.436 -23.610 -15.548  0.00  0.00    -0.170 NA
ATOM     20  H   UNL     1      32.253 -24.612 -15.492  0.00  0.00    +0.149 HD
BRANCH  19  21
ATOM     21  C   UNL     1      31.474 -22.949 -14.637  0.00  0.00    +0.174 C 
BRANCH  21  23
ATOM     22  O   UNL     1      31.430 -25.100 -13.502  0.00  0.00    -0.249 OA
ATOM     23  C   UNL     1      31.168 -23.904 -13.508  0.00  0.00    +0.330 C 
BRANCH  23  24
ATOM     24  O   UNL     1      30.571 -23.281 -12.458  0.00  0.00    -0.479 OA
ATOM     25  H   UNL     1      30.616 -22.347 -12.381  0.00  0.00    +0.295 HD
ENDBRANCH  23  24
ENDBRANCH  21  23
BRANCH  21  26
ATOM     26  C   UNL     1      30.243 -22.464 -15.412  0.00  0.00    +0.040 C 
BRANCH  26  27
ATOM     27  C   UNL     1      29.101 -23.471 -15.576  0.00  0.00    +0.111 C 
BRANCH  27  29
ATOM     28  O   UNL     1      27.263 -23.788 -17.111  0.00  0.00    -0.250 OA
ATOM     29  C   UNL     1      28.024 -23.023 -16.533  0.00  0.00    +0.314 C 
BRANCH  29  30
ATOM     30  O   UNL     1      28.000 -21.678 -16.704  0.00  0.00    -0.480 OA
ATOM     31  H   UNL     1      28.800 -21.209 -16.842  0.00  0.00    +0.295 HD
ENDBRANCH  29  30
ENDBRANCH  27  29
ENDBRANCH  26  27
ENDBRANCH  21  26
ENDBRANCH  19  21
ENDBRANCH   1  19
TORSDOF 13
ENDMDL
MODEL 7
REMARK VINA RESULT:     -10.4      2.428      3.749
REMARK  Name = 16122581
REMARK  13 active torsions:
REMARK  status: ('A' for Active; 'I' for Inactive)
REMARK    1  A    between atoms: S_1  and  C_4
REMARK    2  A    between atoms: S_1  and  N_19
REMARK    3  A    between atoms: C_12  and  O_14
REMARK    4  A    between atoms: O_14  and  C_15
REMARK    5  A    between atoms: C_15  and  C_16
REMARK    6  A    between atoms: C_16  and  C_17
REMARK    7  A    between atoms: N_19  and  C_21
REMARK    8  A    between atoms: C_21  and  C_23
REMARK    9  A    between atoms: C_21  and  C_26
REMARK   10  A    between atoms: C_23  and  O_24
REMARK   11  A    between atoms: C_26  and  C_27
REMARK   12  A    between atoms: C_27  and  C_29
REMARK   13  A    between atoms: C_29  and  O_30
REMARK                            x       y       z     vdW  Elec       q    Type
REMARK                         _______ _______ _______ _____ _____    ______ ____
ROOT
ATOM      1  S   UNL     1      35.929 -23.069 -15.143  0.00  0.00    +0.061 S 
ATOM      2  O   UNL     1      35.995 -24.504 -15.341  0.00  0.00    -0.153 OA
ATOM      3  O   UNL     1      37.138 -22.313 -14.878  0.00  0.00    -0.153 OA
ENDROOT
BRANCH   1   4
ATOM      4  C   UNL     1      35.179 -22.355 -16.576  0.00  0.00    +0.122 C 
ATOM      5  C   UNL     1      35.357 -20.988 -18.580  0.00  0.00    +0.002 C 
ATOM      6  C   UNL     1      33.988 -21.221 -18.852  0.00  0.00    +0.003 C 
ATOM      7  C   UNL     1      35.937 -21.562 -17.438  0.00  0.00    +0.020 C 
ATOM      8  C   UNL     1      33.832 -22.584 -16.844  0.00  0.00    +0.020 C 
ATOM      9  C   UNL     1      33.239 -22.021 -17.974  0.00  0.00    +0.001 C 
ATOM     10  C   UNL     1      33.407 -20.647 -19.995  0.00  0.00    +0.037 C 
ATOM     11  C   UNL     1      36.105 -20.188 -19.459  0.00  0.00    +0.003 C 
ATOM     12  C   UNL     1      34.166 -19.853 -20.856  0.00  0.00    +0.139 C 
ATOM     13  C   UNL     1      35.512 -19.625 -20.589  0.00  0.00    +0.037 C 
BRANCH  12  14
ATOM     14  O   UNL     1      33.588 -19.305 -21.961  0.00  0.00    -0.475 OA
BRANCH  14  15
ATOM     15  C   UNL     1      34.459 -18.701 -22.915  0.00  0.00    +0.205 C 
BRANCH  15  16
ATOM     16  C   UNL     1      33.623 -17.908 -23.911  0.00  0.00    +0.047 C 
BRANCH  16  17
ATOM     17  C   UNL     1      34.133 -16.478 -24.062  0.00  0.00    +0.004 C 
ATOM     18  C   UNL     1      34.469 -15.861 -22.715  0.00  0.00    +0.000 C 
ENDBRANCH  16  17
ENDBRANCH  15  16
ENDBRANCH  14  15
ENDBRANCH  12  14
ENDBRANCH   1   4
BRANCH   1  19
ATOM     19  N   UNL     1      34.784 -22.718 -13.938  0.00  0.00    -0.170 NA
ATOM     20  H   UNL     1      34.020 -22.217 -14.392  0.00  0.00    +0.149 HD
BRANCH  19  21
ATOM     21  C   UNL     1      34.169 -23.820 -13.162  0.00  0.00    +0.174 C 
BRANCH  21  23
ATOM     22  O   UNL     1      32.078 -22.808 -13.885  0.00  0.00    -0.249 OA
ATOM     23  C   UNL     1      32.669 -23.702 -13.292  0.00  0.00    +0.330 C 
BRANCH  23  24
ATOM     24  O   UNL     1      32.020 -24.730 -12.685  0.00  0.00    -0.479 OA
ATOM     25  H   UNL     1      31.083 -24.743 -12.662  0.00  0.00    +0.295 HD
ENDBRANCH  23  24
ENDBRANCH  21  23
BRANCH  21  26
ATOM     26  C   UNL     1      34.684 -23.816 -11.718  0.00  0.00    +0.040 C 
BRANCH  26  27
ATOM     27  C   UNL     1      35.961 -23.013 -11.452  0.00  0.00    +0.111 C 
BRANCH  27  29
ATOM     28  O   UNL     1      37.351 -24.970 -11.191  0.00  0.00    -0.250 OA
ATOM     29  C   UNL     1      37.229 -23.818 -11.586  0.00  0.00    +0.314 C 
BRANCH  29  30
ATOM     30  O   UNL     1      38.233 -23.123 -12.175  0.00  0.00    -0.480 OA
ATOM     31  H   UNL     1      38.109 -22.221 -12.400  0.00  0.00    +0.295 HD
ENDBRANCH  29  30
ENDBRANCH  27  29
ENDBRANCH  26  27
ENDBRANCH  21  26
ENDBRANCH  19  21
ENDBRANCH   1  19
TORSDOF 13
ENDMDL
MODEL 8
REMARK VINA RESULT:     -10.2      4.749     10.719
REMARK  Name = 16122581
REMARK  13 active torsions:
REMARK  status: ('A' for Active; 'I' for Inactive)
REMARK    1  A    between atoms: S_1  and  C_4
REMARK    2  A    between atoms: S_1  and  N_19
REMARK    3  A    between atoms: C_12  and  O_14
REMARK    4  A    between atoms: O_14  and  C_15
REMARK    5  A    between atoms: C_15  and  C_16
REMARK    6  A    between atoms: C_16  and  C_17
REMARK    7  A    between atoms: N_19  and  C_21
REMARK    8  A    between atoms: C_21  and  C_23
REMARK    9  A    between atoms: C_21  and  C_26
REMARK   10  A    between atoms: C_23  and  O_24
REMARK   11  A    between atoms: C_26  and  C_27
REMARK   12  A    between atoms: C_27  and  C_29
REMARK   13  A    between atoms: C_29  and  O_30
REMARK                            x       y       z     vdW  Elec       q    Type
REMARK                         _______ _______ _______ _____ _____    ______ ____
ROOT
ATOM      1  S   UNL     1      34.973 -18.662 -22.251  0.00  0.00    +0.061 S 
ATOM      2  O   UNL     1      36.387 -18.375 -22.103  0.00  0.00    -0.153 OA
ATOM      3  O   UNL     1      34.480 -19.301 -23.456  0.00  0.00    -0.153 OA
ENDROOT
BRANCH   1   4
ATOM      4  C   UNL     1      34.478 -19.678 -20.891  0.00  0.00    +0.122 C 
ATOM      5  C   UNL     1      35.052 -20.927 -18.884  0.00  0.00    +0.002 C 
ATOM      6  C   UNL     1      33.693 -21.290 -18.730  0.00  0.00    +0.003 C 
ATOM      7  C   UNL     1      35.428 -20.120 -19.970  0.00  0.00    +0.020 C 
ATOM      8  C   UNL     1      33.141 -20.035 -20.739  0.00  0.00    +0.020 C 
ATOM      9  C   UNL     1      32.750 -20.836 -19.667  0.00  0.00    +0.001 C 
ATOM     10  C   UNL     1      33.317 -22.097 -17.644  0.00  0.00    +0.037 C 
ATOM     11  C   UNL     1      35.995 -21.380 -17.947  0.00  0.00    +0.003 C 
ATOM     12  C   UNL     1      34.268 -22.539 -16.723  0.00  0.00    +0.139 C 
ATOM     13  C   UNL     1      35.603 -22.182 -16.875  0.00  0.00    +0.037 C 
BRANCH  12  14
ATOM     14  O   UNL     1      33.886 -23.320 -15.675  0.00  0.00    -0.475 OA
BRANCH  14  15
ATOM     15  C   UNL     1      33.016 -22.729 -14.710  0.00  0.00    +0.205 C 
BRANCH  15  16
ATOM     16  C   UNL     1      31.784 -23.610 -14.554  0.00  0.00    +0.047 C 
BRANCH  16  17
ATOM     17  C   UNL     1      30.624 -23.112 -15.411  0.00  0.00    +0.004 C 
ATOM     18  C   UNL     1      29.560 -22.432 -14.566  0.00  0.00    +0.000 C 
ENDBRANCH  16  17
ENDBRANCH  15  16
ENDBRANCH  14  15
ENDBRANCH  12  14
ENDBRANCH   1   4
BRANCH   1  19
ATOM     19  N   UNL     1      34.078 -17.245 -21.972  0.00  0.00    -0.170 NA
ATOM     20  H   UNL     1      33.693 -17.319 -21.030  0.00  0.00    +0.149 HD
BRANCH  19  21
ATOM     21  C   UNL     1      34.742 -15.924 -22.059  0.00  0.00    +0.174 C 
BRANCH  21  23
ATOM     22  O   UNL     1      33.446 -13.948 -21.485  0.00  0.00    -0.249 OA
ATOM     23  C   UNL     1      34.016 -14.975 -21.138  0.00  0.00    +0.330 C 
BRANCH  23  24
ATOM     24  O   UNL     1      34.040 -15.396 -19.846  0.00  0.00    -0.479 OA
ATOM     25  H   UNL     1      34.565 -14.943 -19.215  0.00  0.00    +0.295 HD
ENDBRANCH  23  24
ENDBRANCH  21  23
BRANCH  21  26
ATOM     26  C   UNL     1      34.824 -15.457 -23.518  0.00  0.00    +0.040 C 
BRANCH  26  27
ATOM     27  C   UNL     1      33.604 -15.746 -24.396  0.00  0.00    +0.111 C 
BRANCH  27  29
ATOM     28  O   UNL     1      33.055 -14.284 -26.238  0.00  0.00    -0.250 OA
ATOM     29  C   UNL     1      33.009 -14.517 -25.038  0.00  0.00    +0.314 C 
BRANCH  29  30
ATOM     30  O   UNL     1      32.430 -13.683 -24.139  0.00  0.00    -0.480 OA
ATOM     31  H   UNL     1      31.587 -13.314 -24.318  0.00  0.00    +0.295 HD
ENDBRANCH  29  30
ENDBRANCH  27  29
ENDBRANCH  26  27
ENDBRANCH  21  26
ENDBRANCH  19  21
ENDBRANCH   1  19
TORSDOF 13
ENDMDL
MODEL 9
REMARK VINA RESULT:     -10.1      1.602      2.780
REMARK  Name = 16122581
REMARK  13 active torsions:
REMARK  status: ('A' for Active; 'I' for Inactive)
REMARK    1  A    between atoms: S_1  and  C_4
REMARK    2  A    between atoms: S_1  and  N_19
REMARK    3  A    between atoms: C_12  and  O_14
REMARK    4  A    between atoms: O_14  and  C_15
REMARK    5  A    between atoms: C_15  and  C_16
REMARK    6  A    between atoms: C_16  and  C_17
REMARK    7  A    between atoms: N_19  and  C_21
REMARK    8  A    between atoms: C_21  and  C_23
REMARK    9  A    between atoms: C_21  and  C_26
REMARK   10  A    between atoms: C_23  and  O_24
REMARK   11  A    between atoms: C_26  and  C_27
REMARK   12  A    between atoms: C_27  and  C_29
REMARK   13  A    between atoms: C_29  and  O_30
REMARK                            x       y       z     vdW  Elec       q    Type
REMARK                         _______ _______ _______ _____ _____    ______ ____
ROOT
ATOM      1  S   UNL     1      34.000 -23.778 -14.694  0.00  0.00    +0.061 S 
ATOM      2  O   UNL     1      34.173 -22.833 -13.607  0.00  0.00    -0.153 OA
ATOM      3  O   UNL     1      32.922 -24.748 -14.653  0.00  0.00    -0.153 OA
ENDROOT
BRANCH   1   4
ATOM      4  C   UNL     1      33.809 -22.858 -16.192  0.00  0.00    +0.122 C 
ATOM      5  C   UNL     1      34.793 -21.567 -18.003  0.00  0.00    +0.002 C 
ATOM      6  C   UNL     1      33.507 -21.397 -18.570  0.00  0.00    +0.003 C 
ATOM      7  C   UNL     1      34.927 -22.301 -16.813  0.00  0.00    +0.020 C 
ATOM      8  C   UNL     1      32.545 -22.690 -16.749  0.00  0.00    +0.020 C 
ATOM      9  C   UNL     1      32.394 -21.964 -17.930  0.00  0.00    +0.001 C 
ATOM     10  C   UNL     1      33.374 -20.663 -19.760  0.00  0.00    +0.037 C 
ATOM     11  C   UNL     1      35.907 -20.999 -18.643  0.00  0.00    +0.003 C 
ATOM     12  C   UNL     1      34.491 -20.105 -20.382  0.00  0.00    +0.139 C 
ATOM     13  C   UNL     1      35.755 -20.273 -19.824  0.00  0.00    +0.037 C 
BRANCH  12  14
ATOM     14  O   UNL     1      34.344 -19.398 -21.536  0.00  0.00    -0.475 OA
BRANCH  14  15
ATOM     15  C   UNL     1      35.385 -18.482 -21.872  0.00  0.00    +0.205 C 
BRANCH  15  16
ATOM     16  C   UNL     1      34.759 -17.203 -22.411  0.00  0.00    +0.047 C 
BRANCH  16  17
ATOM     17  C   UNL     1      34.037 -17.443 -23.733  0.00  0.00    +0.004 C 
ATOM     18  C   UNL     1      33.675 -16.134 -24.416  0.00  0.00    +0.000 C 
ENDBRANCH  16  17
ENDBRANCH  15  16
ENDBRANCH  14  15
ENDBRANCH  12  14
ENDBRANCH   1   4
BRANCH   1  19
ATOM     19  N   UNL     1      35.465 -24.594 -14.969  0.00  0.00    -0.170 NA
ATOM     20  H   UNL     1      35.839 -24.241 -15.851  0.00  0.00    +0.149 HD
BRANCH  19  21
ATOM     21  C   UNL     1      36.559 -24.501 -13.975  0.00  0.00    +0.174 C 
BRANCH  21  23
ATOM     22  O   UNL     1      37.827 -22.839 -15.218  0.00  0.00    -0.249 OA
ATOM     23  C   UNL     1      37.270 -23.186 -14.184  0.00  0.00    +0.330 C 
BRANCH  23  24
ATOM     24  O   UNL     1      37.210 -22.391 -13.083  0.00  0.00    -0.479 OA
ATOM     25  H   UNL     1      37.946 -21.859 -12.849  0.00  0.00    +0.295 HD
ENDBRANCH  23  24
ENDBRANCH  21  23
BRANCH  21  26
ATOM     26  C   UNL     1      37.467 -25.735 -14.055  0.00  0.00    +0.040 C 
BRANCH  26  27
ATOM     27  C   UNL     1      38.860 -25.597 -13.435  0.00  0.00    +0.111 C 
BRANCH  27  29
ATOM     28  O   UNL     1      39.972 -25.494 -15.576  0.00  0.00    -0.250 OA
ATOM     29  C   UNL     1      39.988 -25.847 -14.404  0.00  0.00    +0.314 C 
BRANCH  29  30
ATOM     30  O   UNL     1      41.021 -26.524 -13.845  0.00  0.00    -0.480 OA
ATOM     31  H   UNL     1      41.320 -27.324 -14.231  0.00  0.00    +0.295 HD
ENDBRANCH  29  30
ENDBRANCH  27  29
ENDBRANCH  26  27
ENDBRANCH  21  26
ENDBRANCH  19  21
ENDBRANCH   1  19
TORSDOF 13
ENDMDL
