MODEL 1
REMARK VINA RESULT:     -10.9      0.000      0.000
REMARK  Name = 3245
REMARK  9 active torsions:
REMARK  status: ('A' for Active; 'I' for Inactive)
REMARK    1  A    between atoms: N_1  and  C_9
REMARK    2  A    between atoms: N_2  and  C_20
REMARK    3  A    between atoms: C_9  and  C_10
REMARK    4  A    between atoms: C_10  and  C_13
REMARK    5  A    between atoms: C_13  and  C_14
REMARK    6  A    between atoms: C_20  and  C_21
REMARK    7  A    between atoms: C_21  and  C_22
REMARK    8  A    between atoms: C_21  and  O_28
REMARK    9  A    between atoms: O_28  and  C_29
REMARK                            x       y       z     vdW  Elec       q    Type
REMARK                         _______ _______ _______ _____ _____    ______ ____
ROOT
ATOM      1  N   UNL     1      33.895 -15.374 -22.338  0.00  0.00    +0.384 N 
ATOM      2  N   UNL     1      32.918 -12.672 -22.663  0.00  0.00    +0.386 N 
ATOM      3  C   UNL     1      34.116 -14.628 -23.583  0.00  0.00    -0.101 C 
ATOM      4  C   UNL     1      33.808 -14.453 -21.198  0.00  0.00    -0.101 C 
ATOM      5  C   UNL     1      33.007 -13.593 -23.803  0.00  0.00    -0.101 C 
ATOM      6  C   UNL     1      32.700 -13.417 -21.417  0.00  0.00    -0.101 C 
ATOM      7  H   UNL     1      33.009 -15.874 -22.416  0.00  0.00    -0.080 HD
ATOM      8  H   UNL     1      33.804 -12.171 -22.585  0.00  0.00    -0.080 HD
ENDROOT
BRANCH   1   9
ATOM      9  C   UNL     1      34.953 -16.360 -22.129  0.00  0.00    -0.070 C 
BRANCH   9  10
ATOM     10  C   UNL     1      34.389 -17.782 -21.999  0.00  0.00    +0.041 C 
ATOM     11  C   UNL     1      34.380 -18.523 -23.341  0.00  0.00    +0.006 C 
BRANCH  10  13
ATOM     12  O   UNL     1      36.404 -18.259 -20.764  0.00  0.00    -0.291 OA
ATOM     13  C   UNL     1      35.235 -18.565 -20.993  0.00  0.00    +0.171 C 
BRANCH  13  14
ATOM     14  C   UNL     1      34.635 -19.718 -20.259  0.00  0.00    +0.035 C 
ATOM     15  C   UNL     1      35.453 -20.582 -19.531  0.00  0.00    +0.003 C 
ATOM     16  C   UNL     1      33.257 -19.930 -20.300  0.00  0.00    +0.003 C 
ATOM     17  C   UNL     1      34.894 -21.660 -18.845  0.00  0.00    +0.000 C 
ATOM     18  C   UNL     1      32.697 -21.008 -19.613  0.00  0.00    +0.000 C 
ATOM     19  C   UNL     1      33.516 -21.873 -18.886  0.00  0.00    +0.000 C 
ENDBRANCH  13  14
ENDBRANCH  10  13
ENDBRANCH   9  10
ENDBRANCH   1   9
BRANCH   2  20
ATOM     20  C   UNL     1      31.859 -11.687 -22.872  0.00  0.00    -0.043 C 
BRANCH  20  21
ATOM     21  C   UNL     1      31.988 -10.528 -21.878  0.00  0.00    +0.117 C 
BRANCH  21  22
ATOM     22  C   UNL     1      31.880  -9.188 -22.572  0.00  0.00    +0.002 C 
ATOM     23  C   UNL     1      33.033  -8.515 -22.975  0.00  0.00    -0.002 C 
ATOM     24  C   UNL     1      30.626  -8.625 -22.810  0.00  0.00    -0.002 C 
ATOM     25  C   UNL     1      32.934  -7.279 -23.614  0.00  0.00    -0.000 C 
ATOM     26  C   UNL     1      30.526  -7.388 -23.448  0.00  0.00    -0.000 C 
ATOM     27  C   UNL     1      31.679  -6.716 -23.851  0.00  0.00    -0.000 C 
ENDBRANCH  21  22
BRANCH  21  28
ATOM     28  O   UNL     1      30.958 -10.604 -20.892  0.00  0.00    -0.354 OA
BRANCH  28  29
ATOM     29  C   UNL     1      31.480 -10.411 -19.586  0.00  0.00    +0.142 C 
ATOM     30  C   UNL     1      31.112  -9.022 -19.110  0.00  0.00    +0.035 C 
ENDBRANCH  28  29
ENDBRANCH  21  28
ENDBRANCH  20  21
ENDBRANCH   2  20
TORSDOF 9
ENDMDL
MODEL 2
REMARK VINA RESULT:     -10.7      5.121     12.603
REMARK  Name = 3245
REMARK  9 active torsions:
REMARK  status: ('A' for Active; 'I' for Inactive)
REMARK    1  A    between atoms: N_1  and  C_9
REMARK    2  A    between atoms: N_2  and  C_20
REMARK    3  A    between atoms: C_9  and  C_10
REMARK    4  A    between atoms: C_10  and  C_13
REMARK    5  A    between atoms: C_13  and  C_14
REMARK    6  A    between atoms: C_20  and  C_21
REMARK    7  A    between atoms: C_21  and  C_22
REMARK    8  A    between atoms: C_21  and  O_28
REMARK    9  A    between atoms: O_28  and  C_29
REMARK                            x       y       z     vdW  Elec       q    Type
REMARK                         _______ _______ _______ _____ _____    ______ ____
ROOT
ATOM      1  N   UNL     1      34.913 -21.111 -18.833  0.00  0.00    +0.384 N 
ATOM      2  N   UNL     1      34.804 -22.498 -16.299  0.00  0.00    +0.386 N 
ATOM      3  C   UNL     1      36.099 -21.224 -17.974  0.00  0.00    -0.101 C 
ATOM      4  C   UNL     1      34.023 -22.261 -18.632  0.00  0.00    -0.101 C 
ATOM      5  C   UNL     1      35.695 -21.348 -16.501  0.00  0.00    -0.101 C 
ATOM      6  C   UNL     1      33.620 -22.388 -17.158  0.00  0.00    -0.101 C 
ATOM      7  H   UNL     1      34.407 -20.264 -18.573  0.00  0.00    -0.080 HD
ATOM      8  H   UNL     1      35.310 -23.345 -16.557  0.00  0.00    -0.080 HD
ENDROOT
BRANCH   1   9
ATOM      9  C   UNL     1      35.299 -20.993 -20.238  0.00  0.00    -0.070 C 
BRANCH   9  10
ATOM     10  C   UNL     1      34.494 -19.903 -20.960  0.00  0.00    +0.041 C 
ATOM     11  C   UNL     1      33.104 -19.709 -20.342  0.00  0.00    +0.006 C 
BRANCH  10  13
ATOM     12  O   UNL     1      36.266 -18.462 -20.183  0.00  0.00    -0.291 OA
ATOM     13  C   UNL     1      35.267 -18.584 -20.892  0.00  0.00    +0.171 C 
BRANCH  13  14
ATOM     14  C   UNL     1      34.816 -17.417 -21.707  0.00  0.00    +0.035 C 
ATOM     15  C   UNL     1      34.624 -17.559 -23.081  0.00  0.00    +0.003 C 
ATOM     16  C   UNL     1      34.586 -16.186 -21.093  0.00  0.00    +0.003 C 
ATOM     17  C   UNL     1      34.203 -16.469 -23.842  0.00  0.00    +0.000 C 
ATOM     18  C   UNL     1      34.165 -15.096 -21.854  0.00  0.00    +0.000 C 
ATOM     19  C   UNL     1      33.974 -15.237 -23.229  0.00  0.00    +0.000 C 
ENDBRANCH  13  14
ENDBRANCH  10  13
ENDBRANCH   9  10
ENDBRANCH   1   9
BRANCH   2  20
ATOM     20  C   UNL     1      34.418 -22.614 -14.894  0.00  0.00    -0.043 C 
BRANCH  20  21
ATOM     21  C   UNL     1      34.437 -24.079 -14.442  0.00  0.00    +0.117 C 
BRANCH  21  22
ATOM     22  C   UNL     1      35.823 -24.510 -14.015  0.00  0.00    +0.002 C 
ATOM     23  C   UNL     1      36.529 -23.757 -13.076  0.00  0.00    -0.002 C 
ATOM     24  C   UNL     1      36.394 -25.659 -14.560  0.00  0.00    -0.002 C 
ATOM     25  C   UNL     1      37.807 -24.153 -12.682  0.00  0.00    -0.000 C 
ATOM     26  C   UNL     1      37.673 -26.056 -14.166  0.00  0.00    -0.000 C 
ATOM     27  C   UNL     1      38.379 -25.303 -13.228  0.00  0.00    -0.000 C 
ENDBRANCH  21  22
BRANCH  21  28
ATOM     28  O   UNL     1      33.551 -24.268 -13.339  0.00  0.00    -0.354 OA
BRANCH  28  29
ATOM     29  C   UNL     1      32.308 -23.619 -13.559  0.00  0.00    +0.142 C 
ATOM     30  C   UNL     1      31.195 -24.640 -13.460  0.00  0.00    +0.035 C 
ENDBRANCH  28  29
ENDBRANCH  21  28
ENDBRANCH  20  21
ENDBRANCH   2  20
TORSDOF 9
ENDMDL
MODEL 3
REMARK VINA RESULT:     -10.7      4.341     11.342
REMARK  Name = 3245
REMARK  9 active torsions:
REMARK  status: ('A' for Active; 'I' for Inactive)
REMARK    1  A    between atoms: N_1  and  C_9
REMARK    2  A    between atoms: N_2  and  C_20
REMARK    3  A    between atoms: C_9  and  C_10
REMARK    4  A    between atoms: C_10  and  C_13
REMARK    5  A    between atoms: C_13  and  C_14
REMARK    6  A    between atoms: C_20  and  C_21
REMARK    7  A    between atoms: C_21  and  C_22
REMARK    8  A    between atoms: C_21  and  O_28
REMARK    9  A    between atoms: O_28  and  C_29
REMARK                            x       y       z     vdW  Elec       q    Type
REMARK                         _______ _______ _______ _____ _____    ______ ____
ROOT
ATOM      1  N   UNL     1      33.409 -20.288 -20.541  0.00  0.00    +0.384 N 
ATOM      2  N   UNL     1      33.621 -21.795 -18.083  0.00  0.00    +0.386 N 
ATOM      3  C   UNL     1      32.316 -20.306 -19.561  0.00  0.00    -0.101 C 
ATOM      4  C   UNL     1      34.702 -20.473 -19.870  0.00  0.00    -0.101 C 
ATOM      5  C   UNL     1      32.328 -21.608 -18.755  0.00  0.00    -0.101 C 
ATOM      6  C   UNL     1      34.715 -21.775 -19.061  0.00  0.00    -0.101 C 
ATOM      7  H   UNL     1      33.271 -21.061 -21.192  0.00  0.00    -0.080 HD
ATOM      8  H   UNL     1      33.759 -21.022 -17.432  0.00  0.00    -0.080 HD
ENDROOT
BRANCH   1   9
ATOM      9  C   UNL     1      33.398 -19.045 -21.309  0.00  0.00    -0.070 C 
BRANCH   9  10
ATOM     10  C   UNL     1      34.525 -19.009 -22.351  0.00  0.00    +0.041 C 
ATOM     11  C   UNL     1      33.983 -18.950 -23.785  0.00  0.00    +0.006 C 
BRANCH  10  13
ATOM     12  O   UNL     1      36.621 -17.894 -21.930  0.00  0.00    -0.291 OA
ATOM     13  C   UNL     1      35.406 -17.786 -22.092  0.00  0.00    +0.171 C 
BRANCH  13  14
ATOM     14  C   UNL     1      34.792 -16.426 -22.043  0.00  0.00    +0.035 C 
ATOM     15  C   UNL     1      34.367 -15.896 -20.825  0.00  0.00    +0.003 C 
ATOM     16  C   UNL     1      34.644 -15.686 -23.215  0.00  0.00    +0.003 C 
ATOM     17  C   UNL     1      33.793 -14.626 -20.778  0.00  0.00    +0.000 C 
ATOM     18  C   UNL     1      34.071 -14.415 -23.170  0.00  0.00    +0.000 C 
ATOM     19  C   UNL     1      33.644 -13.885 -21.951  0.00  0.00    +0.000 C 
ENDBRANCH  13  14
ENDBRANCH  10  13
ENDBRANCH   9  10
ENDBRANCH   1   9
BRANCH   2  20
ATOM     20  C   UNL     1      33.632 -23.039 -17.316  0.00  0.00    -0.043 C 
BRANCH  20  21
ATOM     21  C   UNL     1      33.933 -22.766 -15.838  0.00  0.00    +0.117 C 
BRANCH  21  22
ATOM     22  C   UNL     1      32.754 -23.117 -14.958  0.00  0.00    +0.002 C 
ATOM     23  C   UNL     1      31.539 -22.453 -15.121  0.00  0.00    -0.002 C 
ATOM     24  C   UNL     1      32.883 -24.106 -13.982  0.00  0.00    -0.002 C 
ATOM     25  C   UNL     1      30.451 -22.776 -14.309  0.00  0.00    -0.000 C 
ATOM     26  C   UNL     1      31.796 -24.429 -13.169  0.00  0.00    -0.000 C 
ATOM     27  C   UNL     1      30.580 -23.765 -13.333  0.00  0.00    -0.000 C 
ENDBRANCH  21  22
BRANCH  21  28
ATOM     28  O   UNL     1      35.055 -23.538 -15.410  0.00  0.00    -0.354 OA
BRANCH  28  29
ATOM     29  C   UNL     1      36.073 -22.712 -14.868  0.00  0.00    +0.142 C 
ATOM     30  C   UNL     1      36.834 -22.058 -16.002  0.00  0.00    +0.035 C 
ENDBRANCH  28  29
ENDBRANCH  21  28
ENDBRANCH  20  21
ENDBRANCH   2  20
TORSDOF 9
ENDMDL
MODEL 4
REMARK VINA RESULT:     -10.7      4.006     11.250
REMARK  Name = 3245
REMARK  9 active torsions:
REMARK  status: ('A' for Active; 'I' for Inactive)
REMARK    1  A    between atoms: N_1  and  C_9
REMARK    2  A    between atoms: N_2  and  C_20
REMARK    3  A    between atoms: C_9  and  C_10
REMARK    4  A    between atoms: C_10  and  C_13
REMARK    5  A    between atoms: C_13  and  C_14
REMARK    6  A    between atoms: C_20  and  C_21
REMARK    7  A    between atoms: C_21  and  C_22
REMARK    8  A    between atoms: C_21  and  O_28
REMARK    9  A    between atoms: O_28  and  C_29
REMARK                            x       y       z     vdW  Elec       q    Type
REMARK                         _______ _______ _______ _____ _____    ______ ____
ROOT
ATOM      1  N   UNL     1      33.868 -20.104 -20.066  0.00  0.00    +0.384 N 
ATOM      2  N   UNL     1      33.116 -22.448 -18.549  0.00  0.00    +0.386 N 
ATOM      3  C   UNL     1      34.754 -21.272 -19.979  0.00  0.00    -0.101 C 
ATOM      4  C   UNL     1      32.464 -20.516 -19.946  0.00  0.00    -0.101 C 
ATOM      5  C   UNL     1      34.521 -22.036 -18.671  0.00  0.00    -0.101 C 
ATOM      6  C   UNL     1      32.230 -21.282 -18.639  0.00  0.00    -0.101 C 
ATOM      7  H   UNL     1      34.087 -19.476 -19.293  0.00  0.00    -0.080 HD
ATOM      8  H   UNL     1      32.898 -23.077 -19.322  0.00  0.00    -0.080 HD
ENDROOT
BRANCH   1   9
ATOM      9  C   UNL     1      34.091 -19.377 -21.314  0.00  0.00    -0.070 C 
BRANCH   9  10
ATOM     10  C   UNL     1      34.909 -18.097 -21.089  0.00  0.00    +0.041 C 
ATOM     11  C   UNL     1      36.405 -18.392 -20.926  0.00  0.00    +0.006 C 
BRANCH  10  13
ATOM     12  O   UNL     1      34.836 -17.553 -23.437  0.00  0.00    -0.291 OA
ATOM     13  C   UNL     1      34.705 -17.158 -22.279  0.00  0.00    +0.171 C 
BRANCH  13  14
ATOM     14  C   UNL     1      34.326 -15.734 -22.043  0.00  0.00    +0.035 C 
ATOM     15  C   UNL     1      34.245 -14.846 -23.116  0.00  0.00    +0.003 C 
ATOM     16  C   UNL     1      34.052 -15.291 -20.749  0.00  0.00    +0.003 C 
ATOM     17  C   UNL     1      33.891 -13.515 -22.895  0.00  0.00    +0.000 C 
ATOM     18  C   UNL     1      33.697 -13.960 -20.528  0.00  0.00    +0.000 C 
ATOM     19  C   UNL     1      33.617 -13.072 -21.601  0.00  0.00    +0.000 C 
ENDBRANCH  13  14
ENDBRANCH  10  13
ENDBRANCH   9  10
ENDBRANCH   1   9
BRANCH   2  20
ATOM     20  C   UNL     1      32.895 -23.175 -17.301  0.00  0.00    -0.043 C 
BRANCH  20  21
ATOM     21  C   UNL     1      32.193 -22.285 -16.269  0.00  0.00    +0.117 C 
BRANCH  21  22
ATOM     22  C   UNL     1      30.858 -22.863 -15.855  0.00  0.00    +0.002 C 
ATOM     23  C   UNL     1      29.678 -22.357 -16.400  0.00  0.00    -0.002 C 
ATOM     24  C   UNL     1      30.806 -23.903 -14.927  0.00  0.00    -0.002 C 
ATOM     25  C   UNL     1      28.447 -22.889 -16.018  0.00  0.00    -0.000 C 
ATOM     26  C   UNL     1      29.575 -24.436 -14.544  0.00  0.00    -0.000 C 
ATOM     27  C   UNL     1      28.395 -23.929 -15.090  0.00  0.00    -0.000 C 
ENDBRANCH  21  22
BRANCH  21  28
ATOM     28  O   UNL     1      33.002 -22.149 -15.101  0.00  0.00    -0.354 OA
BRANCH  28  29
ATOM     29  C   UNL     1      34.157 -22.971 -15.175  0.00  0.00    +0.142 C 
ATOM     30  C   UNL     1      34.386 -23.619 -13.826  0.00  0.00    +0.035 C 
ENDBRANCH  28  29
ENDBRANCH  21  28
ENDBRANCH  20  21
ENDBRANCH   2  20
TORSDOF 9
ENDMDL
MODEL 5
REMARK VINA RESULT:     -10.5      4.229     11.109
REMARK  Name = 3245
REMARK  9 active torsions:
REMARK  status: ('A' for Active; 'I' for Inactive)
REMARK    1  A    between atoms: N_1  and  C_9
REMARK    2  A    between atoms: N_2  and  C_20
REMARK    3  A    between atoms: C_9  and  C_10
REMARK    4  A    between atoms: C_10  and  C_13
REMARK    5  A    between atoms: C_13  and  C_14
REMARK    6  A    between atoms: C_20  and  C_21
REMARK    7  A    between atoms: C_21  and  C_22
REMARK    8  A    between atoms: C_21  and  O_28
REMARK    9  A    between atoms: O_28  and  C_29
REMARK                            x       y       z     vdW  Elec       q    Type
REMARK                         _______ _______ _______ _____ _____    ______ ____
ROOT
ATOM      1  N   UNL     1      34.018 -20.165 -21.008  0.00  0.00    +0.384 N 
ATOM      2  N   UNL     1      33.709 -21.587 -18.509  0.00  0.00    +0.386 N 
ATOM      3  C   UNL     1      32.750 -20.141 -20.268  0.00  0.00    -0.101 C 
ATOM      4  C   UNL     1      35.147 -20.337 -20.084  0.00  0.00    -0.101 C 
ATOM      5  C   UNL     1      32.581 -21.414 -19.433  0.00  0.00    -0.101 C 
ATOM      6  C   UNL     1      34.978 -21.610 -19.247  0.00  0.00    -0.101 C 
ATOM      7  H   UNL     1      34.003 -20.960 -21.647  0.00  0.00    -0.080 HD
ATOM      8  H   UNL     1      33.725 -20.793 -17.869  0.00  0.00    -0.080 HD
ENDROOT
BRANCH   1   9
ATOM      9  C   UNL     1      34.179 -18.949 -21.803  0.00  0.00    -0.070 C 
BRANCH   9  10
ATOM     10  C   UNL     1      35.213 -17.997 -21.183  0.00  0.00    +0.041 C 
ATOM     11  C   UNL     1      36.527 -17.981 -21.972  0.00  0.00    +0.006 C 
BRANCH  10  13
ATOM     12  O   UNL     1      34.482 -15.980 -20.082  0.00  0.00    -0.291 OA
ATOM     13  C   UNL     1      34.628 -16.584 -21.144  0.00  0.00    +0.171 C 
BRANCH  13  14
ATOM     14  C   UNL     1      34.234 -15.909 -22.416  0.00  0.00    +0.035 C 
ATOM     15  C   UNL     1      34.235 -16.623 -23.614  0.00  0.00    +0.003 C 
ATOM     16  C   UNL     1      33.865 -14.564 -22.405  0.00  0.00    +0.003 C 
ATOM     17  C   UNL     1      33.867 -15.992 -24.802  0.00  0.00    +0.000 C 
ATOM     18  C   UNL     1      33.497 -13.932 -23.593  0.00  0.00    +0.000 C 
ATOM     19  C   UNL     1      33.498 -14.647 -24.792  0.00  0.00    +0.000 C 
ENDBRANCH  13  14
ENDBRANCH  10  13
ENDBRANCH   9  10
ENDBRANCH   1   9
BRANCH   2  20
ATOM     20  C   UNL     1      33.548 -22.804 -17.715  0.00  0.00    -0.043 C 
BRANCH  20  21
ATOM     21  C   UNL     1      33.747 -22.512 -16.224  0.00  0.00    +0.117 C 
BRANCH  21  22
ATOM     22  C   UNL     1      32.477 -22.755 -15.437  0.00  0.00    +0.002 C 
ATOM     23  C   UNL     1      31.236 -22.634 -16.062  0.00  0.00    -0.002 C 
ATOM     24  C   UNL     1      32.548 -23.101 -14.088  0.00  0.00    -0.002 C 
ATOM     25  C   UNL     1      30.065 -22.858 -15.337  0.00  0.00    -0.000 C 
ATOM     26  C   UNL     1      31.378 -23.324 -13.363  0.00  0.00    -0.000 C 
ATOM     27  C   UNL     1      30.136 -23.203 -13.987  0.00  0.00    -0.000 C 
ENDBRANCH  21  22
BRANCH  21  28
ATOM     28  O   UNL     1      34.771 -23.349 -15.687  0.00  0.00    -0.354 OA
BRANCH  28  29
ATOM     29  C   UNL     1      35.788 -22.582 -15.061  0.00  0.00    +0.142 C 
ATOM     30  C   UNL     1      36.751 -22.085 -16.118  0.00  0.00    +0.035 C 
ENDBRANCH  28  29
ENDBRANCH  21  28
ENDBRANCH  20  21
ENDBRANCH   2  20
TORSDOF 9
ENDMDL
MODEL 6
REMARK VINA RESULT:     -10.5      1.186      2.047
REMARK  Name = 3245
REMARK  9 active torsions:
REMARK  status: ('A' for Active; 'I' for Inactive)
REMARK    1  A    between atoms: N_1  and  C_9
REMARK    2  A    between atoms: N_2  and  C_20
REMARK    3  A    between atoms: C_9  and  C_10
REMARK    4  A    between atoms: C_10  and  C_13
REMARK    5  A    between atoms: C_13  and  C_14
REMARK    6  A    between atoms: C_20  and  C_21
REMARK    7  A    between atoms: C_21  and  C_22
REMARK    8  A    between atoms: C_21  and  O_28
REMARK    9  A    between atoms: O_28  and  C_29
REMARK                            x       y       z     vdW  Elec       q    Type
REMARK                         _______ _______ _______ _____ _____    ______ ____
ROOT
ATOM      1  N   UNL     1      34.413 -15.190 -21.926  0.00  0.00    +0.384 N 
ATOM      2  N   UNL     1      32.883 -12.959 -22.948  0.00  0.00    +0.386 N 
ATOM      3  C   UNL     1      33.797 -14.210 -21.023  0.00  0.00    -0.101 C 
ATOM      4  C   UNL     1      33.634 -15.304 -23.166  0.00  0.00    -0.101 C 
ATOM      5  C   UNL     1      33.661 -12.846 -21.708  0.00  0.00    -0.101 C 
ATOM      6  C   UNL     1      33.497 -13.940 -23.851  0.00  0.00    -0.101 C 
ATOM      7  H   UNL     1      35.350 -14.863 -22.164  0.00  0.00    -0.080 HD
ATOM      8  H   UNL     1      31.946 -13.285 -22.711  0.00  0.00    -0.080 HD
ENDROOT
BRANCH   1   9
ATOM      9  C   UNL     1      34.541 -16.491 -21.273  0.00  0.00    -0.070 C 
BRANCH   9  10
ATOM     10  C   UNL     1      35.184 -17.533 -22.200  0.00  0.00    +0.041 C 
ATOM     11  C   UNL     1      36.562 -17.978 -21.698  0.00  0.00    +0.006 C 
BRANCH  10  13
ATOM     12  O   UNL     1      33.695 -19.042 -23.349  0.00  0.00    -0.291 OA
ATOM     13  C   UNL     1      34.262 -18.750 -22.297  0.00  0.00    +0.171 C 
BRANCH  13  14
ATOM     14  C   UNL     1      34.049 -19.616 -21.099  0.00  0.00    +0.035 C 
ATOM     15  C   UNL     1      32.760 -19.821 -20.608  0.00  0.00    +0.003 C 
ATOM     16  C   UNL     1      35.139 -20.220 -20.474  0.00  0.00    +0.003 C 
ATOM     17  C   UNL     1      32.560 -20.630 -19.489  0.00  0.00    +0.000 C 
ATOM     18  C   UNL     1      34.940 -21.030 -19.355  0.00  0.00    +0.000 C 
ATOM     19  C   UNL     1      33.650 -21.235 -18.863  0.00  0.00    +0.000 C 
ENDBRANCH  13  14
ENDBRANCH  10  13
ENDBRANCH   9  10
ENDBRANCH   1   9
BRANCH   2  20
ATOM     20  C   UNL     1      32.756 -11.659 -23.602  0.00  0.00    -0.043 C 
BRANCH  20  21
ATOM     21  C   UNL     1      32.368 -10.575 -22.590  0.00  0.00    +0.117 C 
BRANCH  21  22
ATOM     22  C   UNL     1      32.652  -9.189 -23.126  0.00  0.00    +0.002 C 
ATOM     23  C   UNL     1      31.597  -8.324 -23.417  0.00  0.00    -0.002 C 
ATOM     24  C   UNL     1      33.968  -8.776 -23.329  0.00  0.00    -0.002 C 
ATOM     25  C   UNL     1      31.858  -7.046 -23.912  0.00  0.00    -0.000 C 
ATOM     26  C   UNL     1      34.230  -7.498 -23.825  0.00  0.00    -0.000 C 
ATOM     27  C   UNL     1      33.175  -6.633 -24.116  0.00  0.00    -0.000 C 
ENDBRANCH  21  22
BRANCH  21  28
ATOM     28  O   UNL     1      30.976 -10.659 -22.285  0.00  0.00    -0.354 OA
BRANCH  28  29
ATOM     29  C   UNL     1      30.766 -10.985 -20.919  0.00  0.00    +0.142 C 
ATOM     30  C   UNL     1      31.095  -9.776 -20.069  0.00  0.00    +0.035 C 
ENDBRANCH  28  29
ENDBRANCH  21  28
ENDBRANCH  20  21
ENDBRANCH   2  20
TORSDOF 9
ENDMDL
MODEL 7
REMARK VINA RESULT:     -10.3      1.884      3.262
REMARK  Name = 3245
REMARK  9 active torsions:
REMARK  status: ('A' for Active; 'I' for Inactive)
REMARK    1  A    between atoms: N_1  and  C_9
REMARK    2  A    between atoms: N_2  and  C_20
REMARK    3  A    between atoms: C_9  and  C_10
REMARK    4  A    between atoms: C_10  and  C_13
REMARK    5  A    between atoms: C_13  and  C_14
REMARK    6  A    between atoms: C_20  and  C_21
REMARK    7  A    between atoms: C_21  and  C_22
REMARK    8  A    between atoms: C_21  and  O_28
REMARK    9  A    between atoms: O_28  and  C_29
REMARK                            x       y       z     vdW  Elec       q    Type
REMARK                         _______ _______ _______ _____ _____    ______ ____
ROOT
ATOM      1  N   UNL     1      33.067 -12.853 -22.743  0.00  0.00    +0.384 N 
ATOM      2  N   UNL     1      31.773 -10.269 -22.676  0.00  0.00    +0.386 N 
ATOM      3  C   UNL     1      31.708 -12.694 -22.210  0.00  0.00    -0.101 C 
ATOM      4  C   UNL     1      33.336 -11.840 -23.771  0.00  0.00    -0.101 C 
ATOM      5  C   UNL     1      31.504 -11.283 -21.649  0.00  0.00    -0.101 C 
ATOM      6  C   UNL     1      33.130 -10.428 -23.212  0.00  0.00    -0.101 C 
ATOM      7  H   UNL     1      33.730 -12.720 -21.979  0.00  0.00    -0.080 HD
ATOM      8  H   UNL     1      31.110 -10.401 -23.440  0.00  0.00    -0.080 HD
ENDROOT
BRANCH   1   9
ATOM      9  C   UNL     1      33.261 -14.199 -23.278  0.00  0.00    -0.070 C 
BRANCH   9  10
ATOM     10  C   UNL     1      34.329 -14.976 -22.493  0.00  0.00    +0.041 C 
ATOM     11  C   UNL     1      33.989 -15.074 -21.001  0.00  0.00    +0.006 C 
BRANCH  10  13
ATOM     12  O   UNL     1      34.274 -16.598 -24.277  0.00  0.00    -0.291 OA
ATOM     13  C   UNL     1      34.453 -16.383 -23.078  0.00  0.00    +0.171 C 
BRANCH  13  14
ATOM     14  C   UNL     1      34.810 -17.528 -22.188  0.00  0.00    +0.035 C 
ATOM     15  C   UNL     1      33.842 -18.472 -21.845  0.00  0.00    +0.003 C 
ATOM     16  C   UNL     1      36.111 -17.652 -21.701  0.00  0.00    +0.003 C 
ATOM     17  C   UNL     1      34.176 -19.541 -21.014  0.00  0.00    +0.000 C 
ATOM     18  C   UNL     1      36.445 -18.722 -20.870  0.00  0.00    +0.000 C 
ATOM     19  C   UNL     1      35.477 -19.666 -20.526  0.00  0.00    +0.000 C 
ENDBRANCH  13  14
ENDBRANCH  10  13
ENDBRANCH   9  10
ENDBRANCH   1   9
BRANCH   2  20
ATOM     20  C   UNL     1      31.580  -8.923 -22.140  0.00  0.00    -0.043 C 
BRANCH  20  21
ATOM     21  C   UNL     1      32.794  -8.036 -22.441  0.00  0.00    +0.117 C 
BRANCH  21  22
ATOM     22  C   UNL     1      32.583  -7.216 -23.695  0.00  0.00    +0.002 C 
ATOM     23  C   UNL     1      33.658  -6.544 -24.278  0.00  0.00    -0.002 C 
ATOM     24  C   UNL     1      31.315  -7.132 -24.269  0.00  0.00    -0.002 C 
ATOM     25  C   UNL     1      33.465  -5.787 -25.433  0.00  0.00    -0.000 C 
ATOM     26  C   UNL     1      31.121  -6.374 -25.424  0.00  0.00    -0.000 C 
ATOM     27  C   UNL     1      32.195  -5.702 -26.007  0.00  0.00    -0.000 C 
ENDBRANCH  21  22
BRANCH  21  28
ATOM     28  O   UNL     1      33.033  -7.140 -21.357  0.00  0.00    -0.354 OA
BRANCH  28  29
ATOM     29  C   UNL     1      31.889  -7.019 -20.525  0.00  0.00    +0.142 C 
ATOM     30  C   UNL     1      31.478  -5.563 -20.462  0.00  0.00    +0.035 C 
ENDBRANCH  28  29
ENDBRANCH  21  28
ENDBRANCH  20  21
ENDBRANCH   2  20
TORSDOF 9
ENDMDL
MODEL 8
REMARK VINA RESULT:     -10.3      1.887      3.291
REMARK  Name = 3245
REMARK  9 active torsions:
REMARK  status: ('A' for Active; 'I' for Inactive)
REMARK    1  A    between atoms: N_1  and  C_9
REMARK    2  A    between atoms: N_2  and  C_20
REMARK    3  A    between atoms: C_9  and  C_10
REMARK    4  A    between atoms: C_10  and  C_13
REMARK    5  A    between atoms: C_13  and  C_14
REMARK    6  A    between atoms: C_20  and  C_21
REMARK    7  A    between atoms: C_21  and  C_22
REMARK    8  A    between atoms: C_21  and  O_28
REMARK    9  A    between atoms: O_28  and  C_29
REMARK                            x       y       z     vdW  Elec       q    Type
REMARK                         _______ _______ _______ _____ _____    ______ ____
ROOT
ATOM      1  N   UNL     1      33.064 -12.870 -22.773  0.00  0.00    +0.384 N 
ATOM      2  N   UNL     1      31.740 -10.302 -22.664  0.00  0.00    +0.386 N 
ATOM      3  C   UNL     1      31.724 -12.727 -22.190  0.00  0.00    -0.101 C 
ATOM      4  C   UNL     1      33.281 -11.856 -23.813  0.00  0.00    -0.101 C 
ATOM      5  C   UNL     1      31.523 -11.317 -21.625  0.00  0.00    -0.101 C 
ATOM      6  C   UNL     1      33.079 -10.445 -23.250  0.00  0.00    -0.101 C 
ATOM      7  H   UNL     1      33.753 -12.726 -22.034  0.00  0.00    -0.080 HD
ATOM      8  H   UNL     1      31.051 -10.445 -23.402  0.00  0.00    -0.080 HD
ENDROOT
BRANCH   1   9
ATOM      9  C   UNL     1      33.254 -14.215 -23.312  0.00  0.00    -0.070 C 
BRANCH   9  10
ATOM     10  C   UNL     1      34.325 -14.994 -22.534  0.00  0.00    +0.041 C 
ATOM     11  C   UNL     1      34.012 -15.062 -21.034  0.00  0.00    +0.006 C 
BRANCH  10  13
ATOM     12  O   UNL     1      34.208 -16.645 -24.287  0.00  0.00    -0.291 OA
ATOM     13  C   UNL     1      34.419 -16.412 -23.097  0.00  0.00    +0.171 C 
BRANCH  13  14
ATOM     14  C   UNL     1      34.786 -17.545 -22.197  0.00  0.00    +0.035 C 
ATOM     15  C   UNL     1      36.087 -17.653 -21.706  0.00  0.00    +0.003 C 
ATOM     16  C   UNL     1      33.827 -18.496 -21.847  0.00  0.00    +0.003 C 
ATOM     17  C   UNL     1      36.430 -18.712 -20.865  0.00  0.00    +0.000 C 
ATOM     18  C   UNL     1      34.169 -19.554 -21.005  0.00  0.00    +0.000 C 
ATOM     19  C   UNL     1      35.471 -19.662 -20.515  0.00  0.00    +0.000 C 
ENDBRANCH  13  14
ENDBRANCH  10  13
ENDBRANCH   9  10
ENDBRANCH   1   9
BRANCH   2  20
ATOM     20  C   UNL     1      31.551  -8.957 -22.125  0.00  0.00    -0.043 C 
BRANCH  20  21
ATOM     21  C   UNL     1      32.754  -8.065 -22.448  0.00  0.00    +0.117 C 
BRANCH  21  22
ATOM     22  C   UNL     1      32.517  -7.245 -23.697  0.00  0.00    +0.002 C 
ATOM     23  C   UNL     1      31.250  -7.213 -24.281  0.00  0.00    -0.002 C 
ATOM     24  C   UNL     1      33.565  -6.522 -24.266  0.00  0.00    -0.002 C 
ATOM     25  C   UNL     1      31.031  -6.458 -25.433  0.00  0.00    -0.000 C 
ATOM     26  C   UNL     1      33.347  -5.767 -25.419  0.00  0.00    -0.000 C 
ATOM     27  C   UNL     1      32.080  -5.735 -26.002  0.00  0.00    -0.000 C 
ENDBRANCH  21  22
BRANCH  21  28
ATOM     28  O   UNL     1      33.009  -7.167 -21.367  0.00  0.00    -0.354 OA
BRANCH  28  29
ATOM     29  C   UNL     1      31.823  -6.887 -20.639  0.00  0.00    +0.142 C 
ATOM     30  C   UNL     1      31.569  -5.395 -20.668  0.00  0.00    +0.035 C 
ENDBRANCH  28  29
ENDBRANCH  21  28
ENDBRANCH  20  21
ENDBRANCH   2  20
TORSDOF 9
ENDMDL
MODEL 9
REMARK VINA RESULT:     -10.2      1.344     10.391
REMARK  Name = 3245
REMARK  9 active torsions:
REMARK  status: ('A' for Active; 'I' for Inactive)
REMARK    1  A    between atoms: N_1  and  C_9
REMARK    2  A    between atoms: N_2  and  C_20
REMARK    3  A    between atoms: C_9  and  C_10
REMARK    4  A    between atoms: C_10  and  C_13
REMARK    5  A    between atoms: C_13  and  C_14
REMARK    6  A    between atoms: C_20  and  C_21
REMARK    7  A    between atoms: C_21  and  C_22
REMARK    8  A    between atoms: C_21  and  O_28
REMARK    9  A    between atoms: O_28  and  C_29
REMARK                            x       y       z     vdW  Elec       q    Type
REMARK                         _______ _______ _______ _____ _____    ______ ____
ROOT
ATOM      1  N   UNL     1      33.338 -13.283 -22.446  0.00  0.00    +0.384 N 
ATOM      2  N   UNL     1      34.142 -15.959 -21.703  0.00  0.00    +0.386 N 
ATOM      3  C   UNL     1      33.550 -14.324 -23.459  0.00  0.00    -0.101 C 
ATOM      4  C   UNL     1      32.908 -13.883 -21.176  0.00  0.00    -0.101 C 
ATOM      5  C   UNL     1      34.571 -15.358 -22.972  0.00  0.00    -0.101 C 
ATOM      6  C   UNL     1      33.927 -14.919 -20.690  0.00  0.00    -0.101 C 
ATOM      7  H   UNL     1      34.224 -12.801 -22.290  0.00  0.00    -0.080 HD
ATOM      8  H   UNL     1      33.257 -16.442 -21.859  0.00  0.00    -0.080 HD
ENDROOT
BRANCH   1   9
ATOM      9  C   UNL     1      32.364 -12.297 -22.910  0.00  0.00    -0.070 C 
BRANCH   9  10
ATOM     10  C   UNL     1      32.670 -10.894 -22.366  0.00  0.00    +0.041 C 
ATOM     11  C   UNL     1      33.373 -10.014 -23.406  0.00  0.00    +0.006 C 
BRANCH  10  13
ATOM     12  O   UNL     1      30.360 -10.893 -21.675  0.00  0.00    -0.291 OA
ATOM     13  C   UNL     1      31.361 -10.228 -21.939  0.00  0.00    +0.171 C 
BRANCH  13  14
ATOM     14  C   UNL     1      31.288  -8.741 -21.825  0.00  0.00    +0.035 C 
ATOM     15  C   UNL     1      31.801  -8.103 -20.696  0.00  0.00    +0.003 C 
ATOM     16  C   UNL     1      30.708  -7.992 -22.848  0.00  0.00    +0.003 C 
ATOM     17  C   UNL     1      31.733  -6.714 -20.589  0.00  0.00    +0.000 C 
ATOM     18  C   UNL     1      30.641  -6.602 -22.742  0.00  0.00    +0.000 C 
ATOM     19  C   UNL     1      31.153  -5.963 -21.612  0.00  0.00    +0.000 C 
ENDBRANCH  13  14
ENDBRANCH  10  13
ENDBRANCH   9  10
ENDBRANCH   1   9
BRANCH   2  20
ATOM     20  C   UNL     1      35.117 -16.944 -21.238  0.00  0.00    -0.043 C 
BRANCH  20  21
ATOM     21  C   UNL     1      34.853 -18.314 -21.872  0.00  0.00    +0.117 C 
BRANCH  21  22
ATOM     22  C   UNL     1      34.721 -19.395 -20.822  0.00  0.00    +0.002 C 
ATOM     23  C   UNL     1      33.459 -19.860 -20.454  0.00  0.00    -0.002 C 
ATOM     24  C   UNL     1      35.863 -19.925 -20.221  0.00  0.00    -0.002 C 
ATOM     25  C   UNL     1      33.337 -20.856 -19.485  0.00  0.00    -0.000 C 
ATOM     26  C   UNL     1      35.741 -20.921 -19.251  0.00  0.00    -0.000 C 
ATOM     27  C   UNL     1      34.479 -21.387 -18.883  0.00  0.00    -0.000 C 
ENDBRANCH  21  22
BRANCH  21  28
ATOM     28  O   UNL     1      33.646 -18.283 -22.634  0.00  0.00    -0.354 OA
BRANCH  28  29
ATOM     29  C   UNL     1      33.859 -18.751 -23.956  0.00  0.00    +0.142 C 
ATOM     30  C   UNL     1      32.707 -18.300 -24.829  0.00  0.00    +0.035 C 
ENDBRANCH  28  29
ENDBRANCH  21  28
ENDBRANCH  20  21
ENDBRANCH   2  20
TORSDOF 9
ENDMDL
