MODEL 1
REMARK VINA RESULT:     -13.2      0.000      0.000
REMARK  Name = 107971
REMARK  9 active torsions:
REMARK  status: ('A' for Active; 'I' for Inactive)
REMARK    1  A    between atoms: C_3  and  O_20
REMARK    2  A    between atoms: C_10  and  C_12
REMARK    3  A    between atoms: C_17  and  O_18
REMARK    4  A    between atoms: O_20  and  C_26
REMARK    5  A    between atoms: C_22  and  O_27
REMARK    6  A    between atoms: C_23  and  O_29
REMARK    7  A    between atoms: C_24  and  O_31
REMARK    8  A    between atoms: C_25  and  C_33
REMARK    9  A    between atoms: C_33  and  O_34
REMARK                            x       y       z     vdW  Elec       q    Type
REMARK                         _______ _______ _______ _____ _____    ______ ____
ROOT
ATOM      1  O   UNL     1      32.552 -20.984 -19.535  0.00  0.00    -0.450 OA
ATOM      2  O   UNL     1      36.221 -19.325 -20.194  0.00  0.00    -0.286 OA
ATOM      3  C   UNL     1      34.444 -22.700 -16.938  0.00  0.00    +0.144 C 
ATOM      4  C   UNL     1      33.393 -22.289 -17.756  0.00  0.00    +0.075 C 
ATOM      5  C   UNL     1      35.724 -22.175 -17.124  0.00  0.00    +0.037 C 
ATOM      6  C   UNL     1      33.623 -21.351 -18.762  0.00  0.00    +0.151 C 
ATOM      7  C   UNL     1      34.902 -20.826 -18.949  0.00  0.00    +0.074 C 
ATOM      8  C   UNL     1      35.957 -21.237 -18.130  0.00  0.00    +0.009 C 
ATOM      9  C   UNL     1      35.121 -19.833 -20.016  0.00  0.00    +0.202 C 
ATOM     10  C   UNL     1      33.936 -19.478 -20.844  0.00  0.00    +0.077 C 
ATOM     11  C   UNL     1      32.773 -20.073 -20.540  0.00  0.00    +0.183 C 
ENDROOT
BRANCH  10  12
ATOM     12  C   UNL     1      34.025 -18.528 -21.966  0.00  0.00    +0.006 C 
ATOM     13  C   UNL     1      34.549 -17.249 -21.763  0.00  0.00    +0.003 C 
ATOM     14  C   UNL     1      33.586 -18.904 -23.238  0.00  0.00    +0.003 C 
ATOM     15  C   UNL     1      34.633 -16.351 -22.827  0.00  0.00    +0.037 C 
ATOM     16  C   UNL     1      33.670 -18.005 -24.301  0.00  0.00    +0.037 C 
ATOM     17  C   UNL     1      34.193 -16.728 -24.096  0.00  0.00    +0.134 C 
BRANCH  17  18
ATOM     18  O   UNL     1      34.275 -15.851 -25.133  0.00  0.00    -0.506 OA
ATOM     19  H   UNL     1      34.159 -16.154 -26.012  0.00  0.00    +0.292 HD
ENDBRANCH  17  18
ENDBRANCH  10  12
BRANCH   3  20
ATOM     20  O   UNL     1      34.223 -23.618 -15.954  0.00  0.00    -0.450 OA
BRANCH  20  26
ATOM     21  O   UNL     1      36.155 -24.553 -15.040  0.00  0.00    -0.316 OA
ATOM     22  C   UNL     1      35.231 -24.060 -12.365  0.00  0.00    +0.173 C 
ATOM     23  C   UNL     1      36.418 -24.975 -12.667  0.00  0.00    +0.169 C 
ATOM     24  C   UNL     1      34.319 -23.918 -13.583  0.00  0.00    +0.210 C 
ATOM     25  C   UNL     1      37.104 -24.562 -13.972  0.00  0.00    +0.177 C 
ATOM     26  C   UNL     1      35.120 -23.593 -14.844  0.00  0.00    +0.318 C 
BRANCH  22  27
ATOM     27  O   UNL     1      34.495 -24.634 -11.284  0.00  0.00    -0.379 OA
ATOM     28  H   UNL     1      34.180 -23.929 -10.696  0.00  0.00    +0.211 HD
ENDBRANCH  22  27
BRANCH  23  29
ATOM     29  O   UNL     1      37.356 -24.898 -11.597  0.00  0.00    -0.379 OA
ATOM     30  H   UNL     1      38.201 -24.560 -11.932  0.00  0.00    +0.211 HD
ENDBRANCH  23  29
BRANCH  24  31
ATOM     31  O   UNL     1      33.390 -22.858 -13.358  0.00  0.00    -0.377 OA
ATOM     32  H   UNL     1      32.635 -22.957 -13.960  0.00  0.00    +0.211 HD
ENDBRANCH  24  31
BRANCH  25  33
ATOM     33  C   UNL     1      38.219 -25.531 -14.354  0.00  0.00    +0.169 C 
BRANCH  33  34
ATOM     34  O   UNL     1      37.738 -26.854 -14.201  0.00  0.00    -0.379 OA
ATOM     35  H   UNL     1      38.266 -27.313 -13.529  0.00  0.00    +0.211 HD
ENDBRANCH  33  34
ENDBRANCH  25  33
ENDBRANCH  20  26
ENDBRANCH   3  20
TORSDOF 9
ENDMDL
MODEL 2
REMARK VINA RESULT:     -13.1      0.906      1.894
REMARK  Name = 107971
REMARK  9 active torsions:
REMARK  status: ('A' for Active; 'I' for Inactive)
REMARK    1  A    between atoms: C_3  and  O_20
REMARK    2  A    between atoms: C_10  and  C_12
REMARK    3  A    between atoms: C_17  and  O_18
REMARK    4  A    between atoms: O_20  and  C_26
REMARK    5  A    between atoms: C_22  and  O_27
REMARK    6  A    between atoms: C_23  and  O_29
REMARK    7  A    between atoms: C_24  and  O_31
REMARK    8  A    between atoms: C_25  and  C_33
REMARK    9  A    between atoms: C_33  and  O_34
REMARK                            x       y       z     vdW  Elec       q    Type
REMARK                         _______ _______ _______ _____ _____    ______ ____
ROOT
ATOM      1  O   UNL     1      35.865 -20.651 -19.188  0.00  0.00    -0.450 OA
ATOM      2  O   UNL     1      32.118 -19.925 -20.629  0.00  0.00    -0.286 OA
ATOM      3  C   UNL     1      33.950 -22.774 -16.930  0.00  0.00    +0.144 C 
ATOM      4  C   UNL     1      35.018 -22.127 -17.551  0.00  0.00    +0.075 C 
ATOM      5  C   UNL     1      32.645 -22.555 -17.373  0.00  0.00    +0.037 C 
ATOM      6  C   UNL     1      34.778 -21.259 -18.617  0.00  0.00    +0.151 C 
ATOM      7  C   UNL     1      33.473 -21.040 -19.059  0.00  0.00    +0.074 C 
ATOM      8  C   UNL     1      32.402 -21.688 -18.439  0.00  0.00    +0.009 C 
ATOM      9  C   UNL     1      33.244 -20.121 -20.190  0.00  0.00    +0.202 C 
ATOM     10  C   UNL     1      34.451 -19.468 -20.768  0.00  0.00    +0.077 C 
ATOM     11  C   UNL     1      35.637 -19.782 -20.227  0.00  0.00    +0.183 C 
ENDROOT
BRANCH  10  12
ATOM     12  C   UNL     1      34.359 -18.501 -21.874  0.00  0.00    +0.006 C 
ATOM     13  C   UNL     1      33.918 -18.915 -23.133  0.00  0.00    +0.003 C 
ATOM     14  C   UNL     1      34.712 -17.165 -21.668  0.00  0.00    +0.003 C 
ATOM     15  C   UNL     1      33.831 -17.998 -24.180  0.00  0.00    +0.037 C 
ATOM     16  C   UNL     1      34.625 -16.249 -22.716  0.00  0.00    +0.037 C 
ATOM     17  C   UNL     1      34.185 -16.665 -23.972  0.00  0.00    +0.134 C 
BRANCH  17  18
ATOM     18  O   UNL     1      34.101 -15.771 -24.995  0.00  0.00    -0.506 OA
ATOM     19  H   UNL     1      33.905 -16.069 -25.862  0.00  0.00    +0.292 HD
ENDBRANCH  17  18
ENDBRANCH  10  12
BRANCH   3  20
ATOM     20  O   UNL     1      34.181 -23.621 -15.887  0.00  0.00    -0.450 OA
BRANCH  20  26
ATOM     21  O   UNL     1      36.413 -23.903 -15.272  0.00  0.00    -0.316 OA
ATOM     22  C   UNL     1      35.812 -23.363 -12.516  0.00  0.00    +0.173 C 
ATOM     23  C   UNL     1      37.146 -23.962 -12.962  0.00  0.00    +0.169 C 
ATOM     24  C   UNL     1      34.720 -23.608 -13.557  0.00  0.00    +0.210 C 
ATOM     25  C   UNL     1      37.480 -23.538 -14.394  0.00  0.00    +0.177 C 
ATOM     26  C   UNL     1      35.195 -23.232 -14.960  0.00  0.00    +0.318 C 
BRANCH  22  27
ATOM     27  O   UNL     1      35.440 -23.981 -11.283  0.00  0.00    -0.379 OA
ATOM     28  H   UNL     1      36.237 -24.177 -10.766  0.00  0.00    +0.211 HD
ENDBRANCH  22  27
BRANCH  23  29
ATOM     29  O   UNL     1      38.178 -23.518 -12.086  0.00  0.00    -0.379 OA
ATOM     30  H   UNL     1      38.091 -23.966 -11.230  0.00  0.00    +0.211 HD
ENDBRANCH  23  29
BRANCH  24  31
ATOM     31  O   UNL     1      33.578 -22.811 -13.243  0.00  0.00    -0.377 OA
ATOM     32  H   UNL     1      33.850 -21.886 -13.135  0.00  0.00    +0.211 HD
ENDBRANCH  24  31
BRANCH  25  33
ATOM     33  C   UNL     1      38.748 -24.217 -14.902  0.00  0.00    +0.169 C 
BRANCH  33  34
ATOM     34  O   UNL     1      38.525 -25.614 -14.944  0.00  0.00    -0.379 OA
ATOM     35  H   UNL     1      39.113 -26.054 -14.311  0.00  0.00    +0.211 HD
ENDBRANCH  33  34
ENDBRANCH  25  33
ENDBRANCH  20  26
ENDBRANCH   3  20
TORSDOF 9
ENDMDL
MODEL 3
REMARK VINA RESULT:     -12.6      1.378      3.274
REMARK  Name = 107971
REMARK  9 active torsions:
REMARK  status: ('A' for Active; 'I' for Inactive)
REMARK    1  A    between atoms: C_3  and  O_20
REMARK    2  A    between atoms: C_10  and  C_12
REMARK    3  A    between atoms: C_17  and  O_18
REMARK    4  A    between atoms: O_20  and  C_26
REMARK    5  A    between atoms: C_22  and  O_27
REMARK    6  A    between atoms: C_23  and  O_29
REMARK    7  A    between atoms: C_24  and  O_31
REMARK    8  A    between atoms: C_25  and  C_33
REMARK    9  A    between atoms: C_33  and  O_34
REMARK                            x       y       z     vdW  Elec       q    Type
REMARK                         _______ _______ _______ _____ _____    ______ ____
ROOT
ATOM      1  O   UNL     1      36.504 -19.269 -19.898  0.00  0.00    -0.450 OA
ATOM      2  O   UNL     1      32.688 -19.701 -21.277  0.00  0.00    -0.286 OA
ATOM      3  C   UNL     1      35.345 -21.854 -17.608  0.00  0.00    +0.144 C 
ATOM      4  C   UNL     1      36.161 -20.922 -18.247  0.00  0.00    +0.075 C 
ATOM      5  C   UNL     1      34.027 -22.037 -18.029  0.00  0.00    +0.037 C 
ATOM      6  C   UNL     1      35.656 -20.171 -19.309  0.00  0.00    +0.151 C 
ATOM      7  C   UNL     1      34.339 -20.353 -19.730  0.00  0.00    +0.074 C 
ATOM      8  C   UNL     1      33.519 -21.287 -19.091  0.00  0.00    +0.009 C 
ATOM      9  C   UNL     1      33.828 -19.551 -20.857  0.00  0.00    +0.202 C 
ATOM     10  C   UNL     1      34.775 -18.571 -21.455  0.00  0.00    +0.077 C 
ATOM     11  C   UNL     1      36.010 -18.513 -20.934  0.00  0.00    +0.183 C 
ENDROOT
BRANCH  10  12
ATOM     12  C   UNL     1      34.382 -17.681 -22.560  0.00  0.00    +0.006 C 
ATOM     13  C   UNL     1      33.789 -18.210 -23.709  0.00  0.00    +0.003 C 
ATOM     14  C   UNL     1      34.600 -16.304 -22.463  0.00  0.00    +0.003 C 
ATOM     15  C   UNL     1      33.416 -17.366 -24.755  0.00  0.00    +0.037 C 
ATOM     16  C   UNL     1      34.228 -15.462 -23.510  0.00  0.00    +0.037 C 
ATOM     17  C   UNL     1      33.636 -15.992 -24.656  0.00  0.00    +0.134 C 
BRANCH  17  18
ATOM     18  O   UNL     1      33.272 -15.169 -25.678  0.00  0.00    -0.506 OA
ATOM     19  H   UNL     1      33.032 -14.281 -25.500  0.00  0.00    +0.292 HD
ENDBRANCH  17  18
ENDBRANCH  10  12
BRANCH   3  20
ATOM     20  O   UNL     1      35.834 -22.589 -16.569  0.00  0.00    -0.450 OA
BRANCH  20  26
ATOM     21  O   UNL     1      33.825 -22.541 -15.384  0.00  0.00    -0.316 OA
ATOM     22  C   UNL     1      34.645 -24.744 -13.735  0.00  0.00    +0.173 C 
ATOM     23  C   UNL     1      33.436 -23.873 -13.396  0.00  0.00    +0.169 C 
ATOM     24  C   UNL     1      35.617 -24.008 -14.655  0.00  0.00    +0.210 C 
ATOM     25  C   UNL     1      32.828 -23.270 -14.666  0.00  0.00    +0.177 C 
ATOM     26  C   UNL     1      34.889 -23.372 -15.840  0.00  0.00    +0.318 C 
BRANCH  22  27
ATOM     27  O   UNL     1      35.306 -25.076 -12.512  0.00  0.00    -0.379 OA
ATOM     28  H   UNL     1      35.958 -24.389 -12.300  0.00  0.00    +0.211 HD
ENDBRANCH  22  27
BRANCH  23  29
ATOM     29  O   UNL     1      32.453 -24.666 -12.734  0.00  0.00    -0.379 OA
ATOM     30  H   UNL     1      31.681 -24.117 -12.528  0.00  0.00    +0.211 HD
ENDBRANCH  23  29
BRANCH  24  31
ATOM     31  O   UNL     1      36.579 -24.931 -15.165  0.00  0.00    -0.377 OA
ATOM     32  H   UNL     1      36.348 -25.168 -16.077  0.00  0.00    +0.211 HD
ENDBRANCH  24  31
BRANCH  25  33
ATOM     33  C   UNL     1      31.692 -22.304 -14.344  0.00  0.00    +0.169 C 
BRANCH  33  34
ATOM     34  O   UNL     1      31.671 -22.083 -12.946  0.00  0.00    -0.379 OA
ATOM     35  H   UNL     1      30.828 -22.394 -12.582  0.00  0.00    +0.211 HD
ENDBRANCH  33  34
ENDBRANCH  25  33
ENDBRANCH  20  26
ENDBRANCH   3  20
TORSDOF 9
ENDMDL
MODEL 4
REMARK VINA RESULT:     -12.2      1.611      2.527
REMARK  Name = 107971
REMARK  9 active torsions:
REMARK  status: ('A' for Active; 'I' for Inactive)
REMARK    1  A    between atoms: C_3  and  O_20
REMARK    2  A    between atoms: C_10  and  C_12
REMARK    3  A    between atoms: C_17  and  O_18
REMARK    4  A    between atoms: O_20  and  C_26
REMARK    5  A    between atoms: C_22  and  O_27
REMARK    6  A    between atoms: C_23  and  O_29
REMARK    7  A    between atoms: C_24  and  O_31
REMARK    8  A    between atoms: C_25  and  C_33
REMARK    9  A    between atoms: C_33  and  O_34
REMARK                            x       y       z     vdW  Elec       q    Type
REMARK                         _______ _______ _______ _____ _____    ______ ____
ROOT
ATOM      1  O   UNL     1      36.052 -20.147 -19.713  0.00  0.00    -0.450 OA
ATOM      2  O   UNL     1      32.239 -19.615 -21.063  0.00  0.00    -0.286 OA
ATOM      3  C   UNL     1      34.336 -22.548 -17.577  0.00  0.00    +0.144 C 
ATOM      4  C   UNL     1      35.342 -21.784 -18.166  0.00  0.00    +0.075 C 
ATOM      5  C   UNL     1      33.011 -22.400 -17.990  0.00  0.00    +0.037 C 
ATOM      6  C   UNL     1      35.021 -20.870 -19.170  0.00  0.00    +0.151 C 
ATOM      7  C   UNL     1      33.698 -20.723 -19.584  0.00  0.00    +0.074 C 
ATOM      8  C   UNL     1      32.688 -21.487 -18.995  0.00  0.00    +0.009 C 
ATOM      9  C   UNL     1      33.383 -19.754 -20.650  0.00  0.00    +0.202 C 
ATOM     10  C   UNL     1      34.528 -18.976 -21.197  0.00  0.00    +0.077 C 
ATOM     11  C   UNL     1      35.743 -19.233 -20.691  0.00  0.00    +0.183 C 
ENDROOT
BRANCH  10  12
ATOM     12  C   UNL     1      34.347 -17.950 -22.238  0.00  0.00    +0.006 C 
ATOM     13  C   UNL     1      33.848 -18.304 -23.493  0.00  0.00    +0.003 C 
ATOM     14  C   UNL     1      34.673 -16.617 -21.972  0.00  0.00    +0.003 C 
ATOM     15  C   UNL     1      33.677 -17.332 -24.478  0.00  0.00    +0.037 C 
ATOM     16  C   UNL     1      34.503 -15.645 -22.958  0.00  0.00    +0.037 C 
ATOM     17  C   UNL     1      34.004 -16.002 -24.211  0.00  0.00    +0.134 C 
BRANCH  17  18
ATOM     18  O   UNL     1      33.837 -15.053 -25.172  0.00  0.00    -0.506 OA
ATOM     19  H   UNL     1      32.981 -14.873 -25.508  0.00  0.00    +0.292 HD
ENDBRANCH  17  18
ENDBRANCH  10  12
BRANCH   3  20
ATOM     20  O   UNL     1      34.645 -23.440 -16.594  0.00  0.00    -0.450 OA
BRANCH  20  26
ATOM     21  O   UNL     1      35.682 -23.174 -14.521  0.00  0.00    -0.316 OA
ATOM     22  C   UNL     1      33.189 -23.508 -13.135  0.00  0.00    +0.173 C 
ATOM     23  C   UNL     1      34.538 -23.556 -12.417  0.00  0.00    +0.169 C 
ATOM     24  C   UNL     1      33.342 -23.817 -14.623  0.00  0.00    +0.210 C 
ATOM     25  C   UNL     1      35.581 -22.724 -13.168  0.00  0.00    +0.177 C 
ATOM     26  C   UNL     1      34.469 -22.995 -15.248  0.00  0.00    +0.318 C 
BRANCH  22  27
ATOM     27  O   UNL     1      32.334 -24.483 -12.533  0.00  0.00    -0.379 OA
ATOM     28  H   UNL     1      31.466 -24.464 -12.966  0.00  0.00    +0.211 HD
ENDBRANCH  22  27
BRANCH  23  29
ATOM     29  O   UNL     1      34.388 -23.041 -11.097  0.00  0.00    -0.379 OA
ATOM     30  H   UNL     1      34.578 -22.090 -11.097  0.00  0.00    +0.211 HD
ENDBRANCH  23  29
BRANCH  24  31
ATOM     31  O   UNL     1      32.128 -23.499 -15.302  0.00  0.00    -0.377 OA
ATOM     32  H   UNL     1      32.026 -24.078 -16.073  0.00  0.00    +0.211 HD
ENDBRANCH  24  31
BRANCH  25  33
ATOM     33  C   UNL     1      36.964 -22.849 -12.536  0.00  0.00    +0.169 C 
BRANCH  33  34
ATOM     34  O   UNL     1      37.144 -21.775 -11.631  0.00  0.00    -0.379 OA
ATOM     35  H   UNL     1      38.034 -21.407 -11.741  0.00  0.00    +0.211 HD
ENDBRANCH  33  34
ENDBRANCH  25  33
ENDBRANCH  20  26
ENDBRANCH   3  20
TORSDOF 9
ENDMDL
MODEL 5
REMARK VINA RESULT:     -11.8      1.722     10.262
REMARK  Name = 107971
REMARK  9 active torsions:
REMARK  status: ('A' for Active; 'I' for Inactive)
REMARK    1  A    between atoms: C_3  and  O_20
REMARK    2  A    between atoms: C_10  and  C_12
REMARK    3  A    between atoms: C_17  and  O_18
REMARK    4  A    between atoms: O_20  and  C_26
REMARK    5  A    between atoms: C_22  and  O_27
REMARK    6  A    between atoms: C_23  and  O_29
REMARK    7  A    between atoms: C_24  and  O_31
REMARK    8  A    between atoms: C_25  and  C_33
REMARK    9  A    between atoms: C_33  and  O_34
REMARK                            x       y       z     vdW  Elec       q    Type
REMARK                         _______ _______ _______ _____ _____    ______ ____
ROOT
ATOM      1  O   UNL     1      33.080 -22.465 -17.394  0.00  0.00    -0.450 OA
ATOM      2  O   UNL     1      37.018 -22.039 -16.415  0.00  0.00    -0.286 OA
ATOM      3  C   UNL     1      34.146 -20.355 -20.166  0.00  0.00    +0.144 C 
ATOM      4  C   UNL     1      33.351 -21.130 -19.323  0.00  0.00    +0.075 C 
ATOM      5  C   UNL     1      35.498 -20.165 -19.875  0.00  0.00    +0.037 C 
ATOM      6  C   UNL     1      33.910 -21.715 -18.186  0.00  0.00    +0.151 C 
ATOM      7  C   UNL     1      35.261 -21.525 -17.895  0.00  0.00    +0.074 C 
ATOM      8  C   UNL     1      36.060 -20.749 -18.739  0.00  0.00    +0.009 C 
ATOM      9  C   UNL     1      35.831 -22.156 -16.690  0.00  0.00    +0.202 C 
ATOM     10  C   UNL     1      34.890 -22.946 -15.849  0.00  0.00    +0.077 C 
ATOM     11  C   UNL     1      33.618 -23.032 -16.264  0.00  0.00    +0.183 C 
ENDROOT
BRANCH  10  12
ATOM     12  C   UNL     1      35.321 -23.596 -14.600  0.00  0.00    +0.006 C 
ATOM     13  C   UNL     1      36.049 -24.787 -14.643  0.00  0.00    +0.003 C 
ATOM     14  C   UNL     1      35.003 -23.022 -13.366  0.00  0.00    +0.003 C 
ATOM     15  C   UNL     1      36.456 -25.402 -13.460  0.00  0.00    +0.037 C 
ATOM     16  C   UNL     1      35.409 -23.638 -12.183  0.00  0.00    +0.037 C 
ATOM     17  C   UNL     1      36.136 -24.828 -12.229  0.00  0.00    +0.134 C 
BRANCH  17  18
ATOM     18  O   UNL     1      36.534 -25.428 -11.074  0.00  0.00    -0.506 OA
ATOM     19  H   UNL     1      36.671 -26.355 -11.052  0.00  0.00    +0.292 HD
ENDBRANCH  17  18
ENDBRANCH  10  12
BRANCH   3  20
ATOM     20  O   UNL     1      33.603 -19.781 -21.277  0.00  0.00    -0.450 OA
BRANCH  20  26
ATOM     21  O   UNL     1      33.891 -17.479 -21.028  0.00  0.00    -0.316 OA
ATOM     22  C   UNL     1      34.408 -17.153 -23.834  0.00  0.00    +0.173 C 
ATOM     23  C   UNL     1      34.121 -15.969 -22.910  0.00  0.00    +0.169 C 
ATOM     24  C   UNL     1      33.859 -18.455 -23.251  0.00  0.00    +0.210 C 
ATOM     25  C   UNL     1      34.542 -16.287 -21.473  0.00  0.00    +0.177 C 
ATOM     26  C   UNL     1      34.267 -18.624 -21.788  0.00  0.00    +0.318 C 
BRANCH  22  27
ATOM     27  O   UNL     1      33.781 -16.893 -25.091  0.00  0.00    -0.379 OA
ATOM     28  H   UNL     1      32.947 -17.385 -25.145  0.00  0.00    +0.211 HD
ENDBRANCH  22  27
BRANCH  23  29
ATOM     29  O   UNL     1      34.842 -14.828 -23.369  0.00  0.00    -0.379 OA
ATOM     30  H   UNL     1      35.770 -15.068 -23.511  0.00  0.00    +0.211 HD
ENDBRANCH  23  29
BRANCH  24  31
ATOM     31  O   UNL     1      34.376 -19.560 -23.991  0.00  0.00    -0.377 OA
ATOM     32  H   UNL     1      33.912 -20.370 -23.728  0.00  0.00    +0.211 HD
ENDBRANCH  24  31
BRANCH  25  33
ATOM     33  C   UNL     1      34.160 -15.166 -20.511  0.00  0.00    +0.169 C 
BRANCH  33  34
ATOM     34  O   UNL     1      33.336 -14.244 -21.201  0.00  0.00    -0.379 OA
ATOM     35  H   UNL     1      33.280 -13.420 -20.693  0.00  0.00    +0.211 HD
ENDBRANCH  33  34
ENDBRANCH  25  33
ENDBRANCH  20  26
ENDBRANCH   3  20
TORSDOF 9
ENDMDL
MODEL 6
REMARK VINA RESULT:     -11.7      2.880     10.167
REMARK  Name = 107971
REMARK  9 active torsions:
REMARK  status: ('A' for Active; 'I' for Inactive)
REMARK    1  A    between atoms: C_3  and  O_20
REMARK    2  A    between atoms: C_10  and  C_12
REMARK    3  A    between atoms: C_17  and  O_18
REMARK    4  A    between atoms: O_20  and  C_26
REMARK    5  A    between atoms: C_22  and  O_27
REMARK    6  A    between atoms: C_23  and  O_29
REMARK    7  A    between atoms: C_24  and  O_31
REMARK    8  A    between atoms: C_25  and  C_33
REMARK    9  A    between atoms: C_33  and  O_34
REMARK                            x       y       z     vdW  Elec       q    Type
REMARK                         _______ _______ _______ _____ _____    ______ ____
ROOT
ATOM      1  O   UNL     1      31.736 -20.996 -18.719  0.00  0.00    -0.450 OA
ATOM      2  O   UNL     1      34.333 -22.956 -16.258  0.00  0.00    -0.286 OA
ATOM      3  C   UNL     1      34.853 -20.262 -20.456  0.00  0.00    +0.144 C 
ATOM      4  C   UNL     1      33.498 -20.303 -20.130  0.00  0.00    +0.075 C 
ATOM      5  C   UNL     1      35.789 -20.905 -19.645  0.00  0.00    +0.037 C 
ATOM      6  C   UNL     1      33.080 -20.989 -18.990  0.00  0.00    +0.151 C 
ATOM      7  C   UNL     1      34.015 -21.632 -18.179  0.00  0.00    +0.074 C 
ATOM      8  C   UNL     1      35.373 -21.592 -18.504  0.00  0.00    +0.009 C 
ATOM      9  C   UNL     1      33.549 -22.354 -16.980  0.00  0.00    +0.202 C 
ATOM     10  C   UNL     1      32.085 -22.319 -16.713  0.00  0.00    +0.077 C 
ATOM     11  C   UNL     1      31.316 -21.655 -17.589  0.00  0.00    +0.183 C 
ENDROOT
BRANCH  10  12
ATOM     12  C   UNL     1      31.493 -22.967 -15.531  0.00  0.00    +0.006 C 
ATOM     13  C   UNL     1      30.450 -23.885 -15.682  0.00  0.00    +0.003 C 
ATOM     14  C   UNL     1      31.972 -22.666 -14.254  0.00  0.00    +0.003 C 
ATOM     15  C   UNL     1      29.891 -24.498 -14.562  0.00  0.00    +0.037 C 
ATOM     16  C   UNL     1      31.411 -23.279 -13.134  0.00  0.00    +0.037 C 
ATOM     17  C   UNL     1      30.370 -24.195 -13.287  0.00  0.00    +0.134 C 
BRANCH  17  18
ATOM     18  O   UNL     1      29.823 -24.793 -12.194  0.00  0.00    -0.506 OA
ATOM     19  H   UNL     1      29.159 -25.445 -12.301  0.00  0.00    +0.292 HD
ENDBRANCH  17  18
ENDBRANCH  10  12
BRANCH   3  20
ATOM     20  O   UNL     1      35.266 -19.591 -21.569  0.00  0.00    -0.450 OA
BRANCH  20  26
ATOM     21  O   UNL     1      33.947 -19.016 -23.406  0.00  0.00    -0.316 OA
ATOM     22  C   UNL     1      34.246 -16.214 -22.854  0.00  0.00    +0.173 C 
ATOM     23  C   UNL     1      33.687 -16.733 -24.178  0.00  0.00    +0.169 C 
ATOM     24  C   UNL     1      35.092 -17.278 -22.155  0.00  0.00    +0.210 C 
ATOM     25  C   UNL     1      33.020 -18.098 -23.988  0.00  0.00    +0.177 C 
ATOM     26  C   UNL     1      34.363 -18.621 -22.101  0.00  0.00    +0.318 C 
BRANCH  22  27
ATOM     27  O   UNL     1      35.057 -15.071 -23.134  0.00  0.00    -0.379 OA
ATOM     28  H   UNL     1      35.354 -15.104 -24.057  0.00  0.00    +0.211 HD
ENDBRANCH  22  27
BRANCH  23  29
ATOM     29  O   UNL     1      32.727 -15.806 -24.680  0.00  0.00    -0.379 OA
ATOM     30  H   UNL     1      31.853 -16.226 -24.701  0.00  0.00    +0.211 HD
ENDBRANCH  23  29
BRANCH  24  31
ATOM     31  O   UNL     1      35.365 -16.864 -20.817  0.00  0.00    -0.377 OA
ATOM     32  H   UNL     1      36.190 -16.354 -20.799  0.00  0.00    +0.211 HD
ENDBRANCH  24  31
BRANCH  25  33
ATOM     33  C   UNL     1      32.557 -18.690 -25.315  0.00  0.00    +0.169 C 
BRANCH  33  34
ATOM     34  O   UNL     1      31.224 -18.275 -25.552  0.00  0.00    -0.379 OA
ATOM     35  H   UNL     1      31.118 -18.048 -26.489  0.00  0.00    +0.211 HD
ENDBRANCH  33  34
ENDBRANCH  25  33
ENDBRANCH  20  26
ENDBRANCH   3  20
TORSDOF 9
ENDMDL
MODEL 7
REMARK VINA RESULT:     -11.6      2.207     10.464
REMARK  Name = 107971
REMARK  9 active torsions:
REMARK  status: ('A' for Active; 'I' for Inactive)
REMARK    1  A    between atoms: C_3  and  O_20
REMARK    2  A    between atoms: C_10  and  C_12
REMARK    3  A    between atoms: C_17  and  O_18
REMARK    4  A    between atoms: O_20  and  C_26
REMARK    5  A    between atoms: C_22  and  O_27
REMARK    6  A    between atoms: C_23  and  O_29
REMARK    7  A    between atoms: C_24  and  O_31
REMARK    8  A    between atoms: C_25  and  C_33
REMARK    9  A    between atoms: C_33  and  O_34
REMARK                            x       y       z     vdW  Elec       q    Type
REMARK                         _______ _______ _______ _____ _____    ______ ____
ROOT
ATOM      1  O   UNL     1      32.825 -20.526 -20.216  0.00  0.00    -0.450 OA
ATOM      2  O   UNL     1      36.413 -20.738 -18.286  0.00  0.00    -0.286 OA
ATOM      3  C   UNL     1      34.754 -18.261 -22.319  0.00  0.00    +0.144 C 
ATOM      4  C   UNL     1      33.701 -19.019 -21.810  0.00  0.00    +0.075 C 
ATOM      5  C   UNL     1      36.001 -18.285 -21.693  0.00  0.00    +0.037 C 
ATOM      6  C   UNL     1      33.897 -19.802 -20.672  0.00  0.00    +0.151 C 
ATOM      7  C   UNL     1      35.143 -19.827 -20.046  0.00  0.00    +0.074 C 
ATOM      8  C   UNL     1      36.200 -19.068 -20.555  0.00  0.00    +0.009 C 
ATOM      9  C   UNL     1      35.328 -20.665 -18.848  0.00  0.00    +0.202 C 
ATOM     10  C   UNL     1      34.134 -21.419 -18.376  0.00  0.00    +0.077 C 
ATOM     11  C   UNL     1      33.004 -21.288 -19.087  0.00  0.00    +0.183 C 
ENDROOT
BRANCH  10  12
ATOM     12  C   UNL     1      34.172 -22.263 -17.170  0.00  0.00    +0.006 C 
ATOM     13  C   UNL     1      33.024 -22.942 -16.753  0.00  0.00    +0.003 C 
ATOM     14  C   UNL     1      35.356 -22.387 -16.439  0.00  0.00    +0.003 C 
ATOM     15  C   UNL     1      33.061 -23.741 -15.611  0.00  0.00    +0.037 C 
ATOM     16  C   UNL     1      35.391 -23.186 -15.296  0.00  0.00    +0.037 C 
ATOM     17  C   UNL     1      34.244 -23.863 -14.881  0.00  0.00    +0.134 C 
BRANCH  17  18
ATOM     18  O   UNL     1      34.280 -24.642 -13.766  0.00  0.00    -0.506 OA
ATOM     19  H   UNL     1      34.704 -25.478 -13.793  0.00  0.00    +0.292 HD
ENDBRANCH  17  18
ENDBRANCH  10  12
BRANCH   3  20
ATOM     20  O   UNL     1      34.565 -17.493 -23.429  0.00  0.00    -0.450 OA
BRANCH  20  26
ATOM     21  O   UNL     1      34.003 -15.808 -21.918  0.00  0.00    -0.316 OA
ATOM     22  C   UNL     1      33.316 -14.007 -24.048  0.00  0.00    +0.173 C 
ATOM     23  C   UNL     1      32.940 -13.735 -22.591  0.00  0.00    +0.169 C 
ATOM     24  C   UNL     1      33.564 -15.496 -24.286  0.00  0.00    +0.210 C 
ATOM     25  C   UNL     1      33.933 -14.408 -21.639  0.00  0.00    +0.177 C 
ATOM     26  C   UNL     1      34.498 -16.081 -23.226  0.00  0.00    +0.318 C 
BRANCH  22  27
ATOM     27  O   UNL     1      32.235 -13.567 -24.872  0.00  0.00    -0.379 OA
ATOM     28  H   UNL     1      32.319 -12.615 -25.034  0.00  0.00    +0.211 HD
ENDBRANCH  22  27
BRANCH  23  29
ATOM     29  O   UNL     1      32.944 -12.328 -22.358  0.00  0.00    -0.379 OA
ATOM     30  H   UNL     1      33.580 -12.119 -21.657  0.00  0.00    +0.211 HD
ENDBRANCH  23  29
BRANCH  24  31
ATOM     31  O   UNL     1      34.171 -15.677 -25.565  0.00  0.00    -0.377 OA
ATOM     32  H   UNL     1      34.647 -14.869 -25.814  0.00  0.00    +0.211 HD
ENDBRANCH  24  31
BRANCH  25  33
ATOM     33  C   UNL     1      33.514 -14.248 -20.181  0.00  0.00    +0.169 C 
BRANCH  33  34
ATOM     34  O   UNL     1      32.156 -13.850 -20.144  0.00  0.00    -0.379 OA
ATOM     35  H   UNL     1      31.923 -13.418 -20.981  0.00  0.00    +0.211 HD
ENDBRANCH  33  34
ENDBRANCH  25  33
ENDBRANCH  20  26
ENDBRANCH   3  20
TORSDOF 9
ENDMDL
MODEL 8
REMARK VINA RESULT:     -11.3      3.588      6.820
REMARK  Name = 107971
REMARK  9 active torsions:
REMARK  status: ('A' for Active; 'I' for Inactive)
REMARK    1  A    between atoms: C_3  and  O_20
REMARK    2  A    between atoms: C_10  and  C_12
REMARK    3  A    between atoms: C_17  and  O_18
REMARK    4  A    between atoms: O_20  and  C_26
REMARK    5  A    between atoms: C_22  and  O_27
REMARK    6  A    between atoms: C_23  and  O_29
REMARK    7  A    between atoms: C_24  and  O_31
REMARK    8  A    between atoms: C_25  and  C_33
REMARK    9  A    between atoms: C_33  and  O_34
REMARK                            x       y       z     vdW  Elec       q    Type
REMARK                         _______ _______ _______ _____ _____    ______ ____
ROOT
ATOM      1  O   UNL     1      34.181 -14.919 -20.317  0.00  0.00    -0.450 OA
ATOM      2  O   UNL     1      33.347 -14.269 -24.258  0.00  0.00    -0.286 OA
ATOM      3  C   UNL     1      35.091 -18.184 -21.653  0.00  0.00    +0.144 C 
ATOM      4  C   UNL     1      34.873 -17.132 -20.765  0.00  0.00    +0.075 C 
ATOM      5  C   UNL     1      34.813 -18.023 -23.011  0.00  0.00    +0.037 C 
ATOM      6  C   UNL     1      34.375 -15.918 -21.237  0.00  0.00    +0.151 C 
ATOM      7  C   UNL     1      34.097 -15.756 -22.594  0.00  0.00    +0.074 C 
ATOM      8  C   UNL     1      34.315 -16.809 -23.486  0.00  0.00    +0.009 C 
ATOM      9  C   UNL     1      33.576 -14.462 -23.071  0.00  0.00    +0.202 C 
ATOM     10  C   UNL     1      33.361 -13.413 -22.037  0.00  0.00    +0.077 C 
ATOM     11  C   UNL     1      33.675 -13.725 -20.771  0.00  0.00    +0.183 C 
ENDROOT
BRANCH  10  12
ATOM     12  C   UNL     1      32.810 -12.090 -22.372  0.00  0.00    +0.006 C 
ATOM     13  C   UNL     1      33.442 -11.287 -23.325  0.00  0.00    +0.003 C 
ATOM     14  C   UNL     1      31.652 -11.632 -21.738  0.00  0.00    +0.003 C 
ATOM     15  C   UNL     1      32.918 -10.034 -23.642  0.00  0.00    +0.037 C 
ATOM     16  C   UNL     1      31.130 -10.378 -22.055  0.00  0.00    +0.037 C 
ATOM     17  C   UNL     1      31.763  -9.579 -23.007  0.00  0.00    +0.134 C 
BRANCH  17  18
ATOM     18  O   UNL     1      31.253  -8.356 -23.316  0.00  0.00    -0.506 OA
ATOM     19  H   UNL     1      31.703  -7.801 -23.922  0.00  0.00    +0.292 HD
ENDBRANCH  17  18
ENDBRANCH  10  12
BRANCH   3  20
ATOM     20  O   UNL     1      35.575 -19.373 -21.195  0.00  0.00    -0.450 OA
BRANCH  20  26
ATOM     21  O   UNL     1      36.087 -20.534 -19.237  0.00  0.00    -0.316 OA
ATOM     22  C   UNL     1      33.365 -21.399 -18.935  0.00  0.00    +0.173 C 
ATOM     23  C   UNL     1      34.513 -22.007 -18.129  0.00  0.00    +0.169 C 
ATOM     24  C   UNL     1      33.877 -20.746 -20.219  0.00  0.00    +0.210 C 
ATOM     25  C   UNL     1      35.651 -20.998 -17.958  0.00  0.00    +0.177 C 
ATOM     26  C   UNL     1      35.068 -19.829 -19.940  0.00  0.00    +0.318 C 
BRANCH  22  27
ATOM     27  O   UNL     1      32.453 -22.448 -19.266  0.00  0.00    -0.379 OA
ATOM     28  H   UNL     1      32.804 -22.957 -20.014  0.00  0.00    +0.211 HD
ENDBRANCH  22  27
BRANCH  23  29
ATOM     29  O   UNL     1      34.032 -22.396 -16.845  0.00  0.00    -0.379 OA
ATOM     30  H   UNL     1      33.128 -22.066 -16.724  0.00  0.00    +0.211 HD
ENDBRANCH  23  29
BRANCH  24  31
ATOM     31  O   UNL     1      32.835 -19.962 -20.800  0.00  0.00    -0.377 OA
ATOM     32  H   UNL     1      32.973 -19.028 -20.579  0.00  0.00    +0.211 HD
ENDBRANCH  24  31
BRANCH  25  33
ATOM     33  C   UNL     1      36.855 -21.618 -17.257  0.00  0.00    +0.169 C 
BRANCH  33  34
ATOM     34  O   UNL     1      36.729 -21.396 -15.864  0.00  0.00    -0.379 OA
ATOM     35  H   UNL     1      37.566 -21.614 -15.425  0.00  0.00    +0.211 HD
ENDBRANCH  33  34
ENDBRANCH  25  33
ENDBRANCH  20  26
ENDBRANCH   3  20
TORSDOF 9
ENDMDL
MODEL 9
REMARK VINA RESULT:     -11.0      1.251      2.229
REMARK  Name = 107971
REMARK  9 active torsions:
REMARK  status: ('A' for Active; 'I' for Inactive)
REMARK    1  A    between atoms: C_3  and  O_20
REMARK    2  A    between atoms: C_10  and  C_12
REMARK    3  A    between atoms: C_17  and  O_18
REMARK    4  A    between atoms: O_20  and  C_26
REMARK    5  A    between atoms: C_22  and  O_27
REMARK    6  A    between atoms: C_23  and  O_29
REMARK    7  A    between atoms: C_24  and  O_31
REMARK    8  A    between atoms: C_25  and  C_33
REMARK    9  A    between atoms: C_33  and  O_34
REMARK                            x       y       z     vdW  Elec       q    Type
REMARK                         _______ _______ _______ _____ _____    ______ ____
ROOT
ATOM      1  O   UNL     1      32.405 -21.503 -18.856  0.00  0.00    -0.450 OA
ATOM      2  O   UNL     1      36.152 -19.930 -19.220  0.00  0.00    -0.286 OA
ATOM      3  C   UNL     1      34.047 -23.270 -16.126  0.00  0.00    +0.144 C 
ATOM      4  C   UNL     1      33.073 -22.831 -17.022  0.00  0.00    +0.075 C 
ATOM      5  C   UNL     1      35.350 -22.775 -16.210  0.00  0.00    +0.037 C 
ATOM      6  C   UNL     1      33.403 -21.897 -18.003  0.00  0.00    +0.151 C 
ATOM      7  C   UNL     1      34.705 -21.402 -18.087  0.00  0.00    +0.074 C 
ATOM      8  C   UNL     1      35.683 -21.840 -17.191  0.00  0.00    +0.009 C 
ATOM      9  C   UNL     1      35.030 -20.411 -19.130  0.00  0.00    +0.202 C 
ATOM     10  C   UNL     1      33.921 -20.026 -20.047  0.00  0.00    +0.077 C 
ATOM     11  C   UNL     1      32.725 -20.595 -19.836  0.00  0.00    +0.183 C 
ENDROOT
BRANCH  10  12
ATOM     12  C   UNL     1      34.120 -19.077 -21.154  0.00  0.00    +0.006 C 
ATOM     13  C   UNL     1      34.754 -17.853 -20.924  0.00  0.00    +0.003 C 
ATOM     14  C   UNL     1      33.676 -19.397 -22.439  0.00  0.00    +0.003 C 
ATOM     15  C   UNL     1      34.942 -16.955 -21.974  0.00  0.00    +0.037 C 
ATOM     16  C   UNL     1      33.863 -18.497 -23.488  0.00  0.00    +0.037 C 
ATOM     17  C   UNL     1      34.496 -17.276 -23.256  0.00  0.00    +0.134 C 
BRANCH  17  18
ATOM     18  O   UNL     1      34.679 -16.398 -24.280  0.00  0.00    -0.506 OA
ATOM     19  H   UNL     1      34.012 -15.773 -24.485  0.00  0.00    +0.292 HD
ENDBRANCH  17  18
ENDBRANCH  10  12
BRANCH   3  20
ATOM     20  O   UNL     1      33.729 -24.185 -15.167  0.00  0.00    -0.450 OA
BRANCH  20  26
ATOM     21  O   UNL     1      35.157 -23.424 -13.486  0.00  0.00    -0.316 OA
ATOM     22  C   UNL     1      37.171 -25.338 -14.212  0.00  0.00    +0.173 C 
ATOM     23  C   UNL     1      37.456 -24.163 -13.277  0.00  0.00    +0.169 C 
ATOM     24  C   UNL     1      35.953 -25.061 -15.093  0.00  0.00    +0.210 C 
ATOM     25  C   UNL     1      36.184 -23.733 -12.542  0.00  0.00    +0.177 C 
ATOM     26  C   UNL     1      34.772 -24.554 -14.265  0.00  0.00    +0.318 C 
BRANCH  22  27
ATOM     27  O   UNL     1      38.320 -25.534 -15.038  0.00  0.00    -0.379 OA
ATOM     28  H   UNL     1      38.861 -24.729 -15.037  0.00  0.00    +0.211 HD
ENDBRANCH  22  27
BRANCH  23  29
ATOM     29  O   UNL     1      38.444 -24.548 -12.324  0.00  0.00    -0.379 OA
ATOM     30  H   UNL     1      38.284 -24.083 -11.488  0.00  0.00    +0.211 HD
ENDBRANCH  23  29
BRANCH  24  31
ATOM     31  O   UNL     1      35.556 -26.267 -15.745  0.00  0.00    -0.377 OA
ATOM     32  H   UNL     1      34.588 -26.306 -15.791  0.00  0.00    +0.211 HD
ENDBRANCH  24  31
BRANCH  25  33
ATOM     33  C   UNL     1      36.417 -22.489 -11.691  0.00  0.00    +0.169 C 
BRANCH  33  34
ATOM     34  O   UNL     1      37.662 -21.921 -12.056  0.00  0.00    -0.379 OA
ATOM     35  H   UNL     1      37.580 -20.955 -12.082  0.00  0.00    +0.211 HD
ENDBRANCH  33  34
ENDBRANCH  25  33
ENDBRANCH  20  26
ENDBRANCH   3  20
TORSDOF 9
ENDMDL
