MODEL 1
REMARK VINA RESULT:     -12.5      0.000      0.000
REMARK  Name = 11701820
REMARK  4 active torsions:
REMARK  status: ('A' for Active; 'I' for Inactive)
REMARK    1  A    between atoms: C_1  and  C_13
REMARK    2  A    between atoms: C_2  and  C_8
REMARK    3  A    between atoms: C_13  and  N_14
REMARK    4  A    between atoms: N_14  and  C_17
REMARK                            x       y       z     vdW  Elec       q    Type
REMARK                         _______ _______ _______ _____ _____    ______ ____
ROOT
ATOM      1  C   UNL     1      34.773 -18.169 -22.450  0.00  0.00    -0.003 C 
ATOM      2  C   UNL     1      34.763 -19.651 -20.542  0.00  0.00    +0.001 C 
ATOM      3  C   UNL     1      34.088 -19.031 -21.594  0.00  0.00    -0.003 C 
ATOM      4  C   UNL     1      36.132 -17.928 -22.256  0.00  0.00    -0.003 C 
ATOM      5  C   UNL     1      36.122 -19.410 -20.348  0.00  0.00    +0.000 C 
ATOM      6  C   UNL     1      36.808 -18.548 -21.205  0.00  0.00    -0.000 C 
ENDROOT
BRANCH   2   8
ATOM      7  N   UNL     1      31.946 -21.354 -18.793  0.00  0.00    -0.242 NA
ATOM      8  C   UNL     1      34.053 -20.546 -19.653  0.00  0.00    +0.019 C 
ATOM      9  C   UNL     1      34.741 -21.430 -18.832  0.00  0.00    +0.003 C 
ATOM     10  C   UNL     1      32.671 -20.545 -19.599  0.00  0.00    +0.099 C 
ATOM     11  C   UNL     1      34.031 -22.277 -17.989  0.00  0.00    +0.021 C 
ATOM     12  C   UNL     1      32.647 -22.201 -18.007  0.00  0.00    +0.099 C 
ENDBRANCH   2   8
BRANCH   1  13
ATOM     13  C   UNL     1      34.051 -17.507 -23.576  0.00  0.00    +0.114 C 
BRANCH  13  14
ATOM     14  N   UNL     1      34.475 -16.119 -23.768  0.00  0.00    -0.327 N 
ATOM     15  H   UNL     1      35.190 -15.932 -24.418  0.00  0.00    +0.147 HD
BRANCH  14  17
ATOM     16  N   UNL     1      32.548 -13.041 -23.045  0.00  0.00    -0.228 NA
ATOM     17  C   UNL     1      33.921 -15.065 -23.081  0.00  0.00    +0.077 C 
ATOM     18  C   UNL     1      33.110 -14.090 -23.685  0.00  0.00    +0.139 C 
ATOM     19  C   UNL     1      34.143 -14.902 -21.702  0.00  0.00    +0.019 C 
ATOM     20  C   UNL     1      33.581 -13.835 -21.009  0.00  0.00    +0.022 C 
ATOM     21  C   UNL     1      32.798 -12.940 -21.721  0.00  0.00    +0.100 C 
ATOM     22  N   UNL     1      32.865 -14.223 -25.075  0.00  0.00    -0.342 N 
ATOM     23  H   UNL     1      32.302 -13.564 -25.540  0.00  0.00    +0.144 HD
ATOM     24  H   UNL     1      33.257 -14.974 -25.575  0.00  0.00    +0.144 HD
ENDBRANCH  14  17
ENDBRANCH  13  14
ENDBRANCH   1  13
TORSDOF 4
ENDMDL
MODEL 2
REMARK VINA RESULT:     -11.3      1.568      7.524
REMARK  Name = 11701820
REMARK  4 active torsions:
REMARK  status: ('A' for Active; 'I' for Inactive)
REMARK    1  A    between atoms: C_1  and  C_13
REMARK    2  A    between atoms: C_2  and  C_8
REMARK    3  A    between atoms: C_13  and  N_14
REMARK    4  A    between atoms: N_14  and  C_17
REMARK                            x       y       z     vdW  Elec       q    Type
REMARK                         _______ _______ _______ _____ _____    ______ ____
ROOT
ATOM      1  C   UNL     1      35.238 -18.734 -21.377  0.00  0.00    -0.003 C 
ATOM      2  C   UNL     1      34.376 -16.688 -22.329  0.00  0.00    +0.001 C 
ATOM      3  C   UNL     1      34.983 -17.367 -21.273  0.00  0.00    -0.003 C 
ATOM      4  C   UNL     1      34.886 -19.423 -22.538  0.00  0.00    -0.003 C 
ATOM      5  C   UNL     1      34.023 -17.377 -23.489  0.00  0.00    +0.000 C 
ATOM      6  C   UNL     1      34.278 -18.744 -23.595  0.00  0.00    -0.000 C 
ENDROOT
BRANCH   2   8
ATOM      7  N   UNL     1      33.757 -13.149 -23.323  0.00  0.00    -0.242 NA
ATOM      8  C   UNL     1      34.111 -15.269 -22.222  0.00  0.00    +0.019 C 
ATOM      9  C   UNL     1      33.957 -14.663 -20.982  0.00  0.00    +0.003 C 
ATOM     10  C   UNL     1      34.003 -14.479 -23.352  0.00  0.00    +0.099 C 
ATOM     11  C   UNL     1      33.704 -13.298 -20.911  0.00  0.00    +0.021 C 
ATOM     12  C   UNL     1      33.613 -12.592 -22.100  0.00  0.00    +0.099 C 
ENDBRANCH   2   8
BRANCH   1  13
ATOM     13  C   UNL     1      35.889 -19.460 -20.248  0.00  0.00    +0.114 C 
BRANCH  13  14
ATOM     14  N   UNL     1      35.256 -20.752 -19.979  0.00  0.00    -0.327 N 
ATOM     15  H   UNL     1      34.862 -21.248 -20.732  0.00  0.00    +0.147 HD
BRANCH  14  17
ATOM     16  N   UNL     1      33.968 -22.575 -17.024  0.00  0.00    -0.228 NA
ATOM     17  C   UNL     1      35.188 -21.304 -18.721  0.00  0.00    +0.077 C 
ATOM     18  C   UNL     1      34.074 -22.018 -18.251  0.00  0.00    +0.139 C 
ATOM     19  C   UNL     1      36.257 -21.178 -17.816  0.00  0.00    +0.019 C 
ATOM     20  C   UNL     1      36.185 -21.737 -16.544  0.00  0.00    +0.022 C 
ATOM     21  C   UNL     1      35.028 -22.419 -16.200  0.00  0.00    +0.100 C 
ATOM     22  N   UNL     1      32.977 -22.165 -19.138  0.00  0.00    -0.342 N 
ATOM     23  H   UNL     1      32.176 -22.658 -18.852  0.00  0.00    +0.144 HD
ATOM     24  H   UNL     1      33.018 -21.773 -20.040  0.00  0.00    +0.144 HD
ENDBRANCH  14  17
ENDBRANCH  13  14
ENDBRANCH   1  13
TORSDOF 4
ENDMDL
MODEL 3
REMARK VINA RESULT:     -11.3      1.842      2.832
REMARK  Name = 11701820
REMARK  4 active torsions:
REMARK  status: ('A' for Active; 'I' for Inactive)
REMARK    1  A    between atoms: C_1  and  C_13
REMARK    2  A    between atoms: C_2  and  C_8
REMARK    3  A    between atoms: C_13  and  N_14
REMARK    4  A    between atoms: N_14  and  C_17
REMARK                            x       y       z     vdW  Elec       q    Type
REMARK                         _______ _______ _______ _____ _____    ______ ____
ROOT
ATOM      1  C   UNL     1      34.827 -19.417 -20.768  0.00  0.00    -0.003 C 
ATOM      2  C   UNL     1      34.608 -20.896 -18.871  0.00  0.00    +0.001 C 
ATOM      3  C   UNL     1      35.390 -20.057 -19.665  0.00  0.00    -0.003 C 
ATOM      4  C   UNL     1      33.481 -19.615 -21.078  0.00  0.00    -0.003 C 
ATOM      5  C   UNL     1      33.263 -21.094 -19.180  0.00  0.00    +0.000 C 
ATOM      6  C   UNL     1      32.699 -20.454 -20.284  0.00  0.00    -0.000 C 
ENDROOT
BRANCH   2   8
ATOM      7  N   UNL     1      34.956 -23.150 -15.922  0.00  0.00    -0.242 NA
ATOM      8  C   UNL     1      35.192 -21.560 -17.725  0.00  0.00    +0.019 C 
ATOM      9  C   UNL     1      36.492 -21.279 -17.323  0.00  0.00    +0.003 C 
ATOM     10  C   UNL     1      34.472 -22.493 -17.001  0.00  0.00    +0.099 C 
ATOM     11  C   UNL     1      37.025 -21.934 -16.218  0.00  0.00    +0.021 C 
ATOM     12  C   UNL     1      36.223 -22.852 -15.558  0.00  0.00    +0.099 C 
ENDBRANCH   2   8
BRANCH   1  13
ATOM     13  C   UNL     1      35.662 -18.519 -21.617  0.00  0.00    +0.114 C 
BRANCH  13  14
ATOM     14  N   UNL     1      34.856 -17.706 -22.529  0.00  0.00    -0.327 N 
ATOM     15  H   UNL     1      34.552 -18.108 -23.374  0.00  0.00    +0.147 HD
BRANCH  14  17
ATOM     16  N   UNL     1      33.962 -14.147 -23.028  0.00  0.00    -0.228 NA
ATOM     17  C   UNL     1      34.502 -16.405 -22.258  0.00  0.00    +0.077 C 
ATOM     18  C   UNL     1      34.309 -15.434 -23.254  0.00  0.00    +0.139 C 
ATOM     19  C   UNL     1      34.312 -15.967 -20.935  0.00  0.00    +0.019 C 
ATOM     20  C   UNL     1      33.955 -14.650 -20.663  0.00  0.00    +0.022 C 
ATOM     21  C   UNL     1      33.794 -13.787 -21.736  0.00  0.00    +0.100 C 
ATOM     22  N   UNL     1      34.492 -15.840 -24.599  0.00  0.00    -0.342 N 
ATOM     23  H   UNL     1      34.367 -15.194 -25.330  0.00  0.00    +0.144 HD
ATOM     24  H   UNL     1      34.745 -16.770 -24.803  0.00  0.00    +0.144 HD
ENDBRANCH  14  17
ENDBRANCH  13  14
ENDBRANCH   1  13
TORSDOF 4
ENDMDL
MODEL 4
REMARK VINA RESULT:     -11.3      2.394      8.211
REMARK  Name = 11701820
REMARK  4 active torsions:
REMARK  status: ('A' for Active; 'I' for Inactive)
REMARK    1  A    between atoms: C_1  and  C_13
REMARK    2  A    between atoms: C_2  and  C_8
REMARK    3  A    between atoms: C_13  and  N_14
REMARK    4  A    between atoms: N_14  and  C_17
REMARK                            x       y       z     vdW  Elec       q    Type
REMARK                         _______ _______ _______ _____ _____    ______ ____
ROOT
ATOM      1  C   UNL     1      33.521 -21.051 -19.185  0.00  0.00    -0.003 C 
ATOM      2  C   UNL     1      34.565 -19.489 -20.704  0.00  0.00    +0.001 C 
ATOM      3  C   UNL     1      33.414 -20.058 -20.159  0.00  0.00    -0.003 C 
ATOM      4  C   UNL     1      34.778 -21.475 -18.756  0.00  0.00    -0.003 C 
ATOM      5  C   UNL     1      35.822 -19.913 -20.276  0.00  0.00    +0.000 C 
ATOM      6  C   UNL     1      35.930 -20.906 -19.301  0.00  0.00    -0.000 C 
ENDROOT
BRANCH   2   8
ATOM      7  N   UNL     1      33.822 -17.831 -23.959  0.00  0.00    -0.242 NA
ATOM      8  C   UNL     1      34.455 -18.458 -21.714  0.00  0.00    +0.019 C 
ATOM      9  C   UNL     1      34.850 -17.154 -21.449  0.00  0.00    +0.003 C 
ATOM     10  C   UNL     1      33.953 -18.745 -22.971  0.00  0.00    +0.099 C 
ATOM     11  C   UNL     1      34.732 -16.185 -22.439  0.00  0.00    +0.021 C 
ATOM     12  C   UNL     1      34.217 -16.572 -23.667  0.00  0.00    +0.099 C 
ENDBRANCH   2   8
BRANCH   1  13
ATOM     13  C   UNL     1      32.290 -21.658 -18.601  0.00  0.00    +0.114 C 
BRANCH  13  14
ATOM     14  N   UNL     1      32.594 -22.756 -17.682  0.00  0.00    -0.327 N 
ATOM     15  H   UNL     1      33.147 -23.502 -18.007  0.00  0.00    +0.147 HD
BRANCH  14  17
ATOM     16  N   UNL     1      32.568 -23.090 -13.994  0.00  0.00    -0.228 NA
ATOM     17  C   UNL     1      32.141 -22.793 -16.384  0.00  0.00    +0.077 C 
ATOM     18  C   UNL     1      32.974 -23.046 -15.282  0.00  0.00    +0.139 C 
ATOM     19  C   UNL     1      30.784 -22.573 -16.084  0.00  0.00    +0.019 C 
ATOM     20  C   UNL     1      30.329 -22.610 -14.770  0.00  0.00    +0.022 C 
ATOM     21  C   UNL     1      31.253 -22.871 -13.770  0.00  0.00    +0.100 C 
ATOM     22  N   UNL     1      34.348 -23.272 -15.548  0.00  0.00    -0.342 N 
ATOM     23  H   UNL     1      34.969 -23.453 -14.807  0.00  0.00    +0.144 HD
ATOM     24  H   UNL     1      34.681 -23.248 -16.474  0.00  0.00    +0.144 HD
ENDBRANCH  14  17
ENDBRANCH  13  14
ENDBRANCH   1  13
TORSDOF 4
ENDMDL
MODEL 5
REMARK VINA RESULT:     -11.2      1.784      7.715
REMARK  Name = 11701820
REMARK  4 active torsions:
REMARK  status: ('A' for Active; 'I' for Inactive)
REMARK    1  A    between atoms: C_1  and  C_13
REMARK    2  A    between atoms: C_2  and  C_8
REMARK    3  A    between atoms: C_13  and  N_14
REMARK    4  A    between atoms: N_14  and  C_17
REMARK                            x       y       z     vdW  Elec       q    Type
REMARK                         _______ _______ _______ _____ _____    ______ ____
ROOT
ATOM      1  C   UNL     1      34.398 -19.634 -20.544  0.00  0.00    -0.003 C 
ATOM      2  C   UNL     1      34.819 -17.794 -22.052  0.00  0.00    +0.001 C 
ATOM      3  C   UNL     1      33.926 -18.672 -21.436  0.00  0.00    -0.003 C 
ATOM      4  C   UNL     1      35.762 -19.720 -20.267  0.00  0.00    -0.003 C 
ATOM      5  C   UNL     1      36.183 -17.880 -21.774  0.00  0.00    +0.000 C 
ATOM      6  C   UNL     1      36.655 -18.842 -20.881  0.00  0.00    -0.000 C 
ENDROOT
BRANCH   2   8
ATOM      7  N   UNL     1      33.392 -16.271 -25.140  0.00  0.00    -0.242 NA
ATOM      8  C   UNL     1      34.331 -16.795 -22.977  0.00  0.00    +0.019 C 
ATOM      9  C   UNL     1      34.318 -15.449 -22.633  0.00  0.00    +0.003 C 
ATOM     10  C   UNL     1      33.862 -17.153 -24.228  0.00  0.00    +0.099 C 
ATOM     11  C   UNL     1      33.843 -14.512 -23.544  0.00  0.00    +0.021 C 
ATOM     12  C   UNL     1      33.394 -14.971 -24.773  0.00  0.00    +0.099 C 
ENDBRANCH   2   8
BRANCH   1  13
ATOM     13  C   UNL     1      33.443 -20.572 -19.885  0.00  0.00    +0.114 C 
BRANCH  13  14
ATOM     14  N   UNL     1      34.122 -21.704 -19.253  0.00  0.00    -0.327 N 
ATOM     15  H   UNL     1      34.769 -22.221 -19.784  0.00  0.00    +0.147 HD
BRANCH  14  17
ATOM     16  N   UNL     1      34.706 -22.412 -15.665  0.00  0.00    -0.228 NA
ATOM     17  C   UNL     1      33.896 -22.079 -17.948  0.00  0.00    +0.077 C 
ATOM     18  C   UNL     1      34.888 -22.052 -16.955  0.00  0.00    +0.139 C 
ATOM     19  C   UNL     1      32.628 -22.520 -17.531  0.00  0.00    +0.019 C 
ATOM     20  C   UNL     1      32.402 -22.898 -16.211  0.00  0.00    +0.022 C 
ATOM     21  C   UNL     1      33.465 -22.827 -15.325  0.00  0.00    +0.100 C 
ATOM     22  N   UNL     1      36.179 -21.612 -17.340  0.00  0.00    -0.342 N 
ATOM     23  H   UNL     1      36.905 -21.577 -16.678  0.00  0.00    +0.144 HD
ATOM     24  H   UNL     1      36.350 -21.342 -18.271  0.00  0.00    +0.144 HD
ENDBRANCH  14  17
ENDBRANCH  13  14
ENDBRANCH   1  13
TORSDOF 4
ENDMDL
MODEL 6
REMARK VINA RESULT:     -11.1      1.800      3.149
REMARK  Name = 11701820
REMARK  4 active torsions:
REMARK  status: ('A' for Active; 'I' for Inactive)
REMARK    1  A    between atoms: C_1  and  C_13
REMARK    2  A    between atoms: C_2  and  C_8
REMARK    3  A    between atoms: C_13  and  N_14
REMARK    4  A    between atoms: N_14  and  C_17
REMARK                            x       y       z     vdW  Elec       q    Type
REMARK                         _______ _______ _______ _____ _____    ______ ____
ROOT
ATOM      1  C   UNL     1      34.222 -16.305 -23.224  0.00  0.00    -0.003 C 
ATOM      2  C   UNL     1      34.222 -18.502 -22.220  0.00  0.00    +0.001 C 
ATOM      3  C   UNL     1      34.490 -17.135 -22.137  0.00  0.00    -0.003 C 
ATOM      4  C   UNL     1      33.686 -16.840 -24.395  0.00  0.00    -0.003 C 
ATOM      5  C   UNL     1      33.686 -19.037 -23.391  0.00  0.00    +0.000 C 
ATOM      6  C   UNL     1      33.417 -18.206 -24.479  0.00  0.00    -0.000 C 
ENDROOT
BRANCH   2   8
ATOM      7  N   UNL     1      36.099 -20.230 -19.503  0.00  0.00    -0.242 NA
ATOM      8  C   UNL     1      34.499 -19.364 -21.091  0.00  0.00    +0.019 C 
ATOM      9  C   UNL     1      33.495 -20.131 -20.515  0.00  0.00    +0.003 C 
ATOM     10  C   UNL     1      35.772 -19.447 -20.556  0.00  0.00    +0.099 C 
ATOM     11  C   UNL     1      33.792 -20.950 -19.432  0.00  0.00    +0.021 C 
ATOM     12  C   UNL     1      35.098 -20.964 -18.967  0.00  0.00    +0.099 C 
ENDBRANCH   2   8
BRANCH   1  13
ATOM     13  C   UNL     1      34.507 -14.843 -23.135  0.00  0.00    +0.114 C 
BRANCH  13  14
ATOM     14  N   UNL     1      33.879 -14.224 -21.967  0.00  0.00    -0.327 N 
ATOM     15  H   UNL     1      33.996 -14.651 -21.088  0.00  0.00    +0.147 HD
BRANCH  14  17
ATOM     16  N   UNL     1      31.367 -11.625 -21.163  0.00  0.00    -0.228 NA
ATOM     17  C   UNL     1      33.132 -13.071 -22.042  0.00  0.00    +0.077 C 
ATOM     18  C   UNL     1      32.121 -12.745 -21.124  0.00  0.00    +0.139 C 
ATOM     19  C   UNL     1      33.347 -12.135 -23.069  0.00  0.00    +0.019 C 
ATOM     20  C   UNL     1      32.590 -10.970 -23.143  0.00  0.00    +0.022 C 
ATOM     21  C   UNL     1      31.621 -10.764 -22.174  0.00  0.00    +0.100 C 
ATOM     22  N   UNL     1      31.877 -13.667 -20.075  0.00  0.00    -0.342 N 
ATOM     23  H   UNL     1      31.179 -13.480 -19.408  0.00  0.00    +0.144 HD
ATOM     24  H   UNL     1      32.407 -14.494 -20.013  0.00  0.00    +0.144 HD
ENDBRANCH  14  17
ENDBRANCH  13  14
ENDBRANCH   1  13
TORSDOF 4
ENDMDL
MODEL 7
REMARK VINA RESULT:     -11.0      4.344      9.496
REMARK  Name = 11701820
REMARK  4 active torsions:
REMARK  status: ('A' for Active; 'I' for Inactive)
REMARK    1  A    between atoms: C_1  and  C_13
REMARK    2  A    between atoms: C_2  and  C_8
REMARK    3  A    between atoms: C_13  and  N_14
REMARK    4  A    between atoms: N_14  and  C_17
REMARK                            x       y       z     vdW  Elec       q    Type
REMARK                         _______ _______ _______ _____ _____    ______ ____
ROOT
ATOM      1  C   UNL     1      35.575 -21.702 -17.463  0.00  0.00    -0.003 C 
ATOM      2  C   UNL     1      34.791 -20.578 -19.452  0.00  0.00    +0.001 C 
ATOM      3  C   UNL     1      35.802 -20.827 -18.524  0.00  0.00    -0.003 C 
ATOM      4  C   UNL     1      34.336 -22.329 -17.329  0.00  0.00    -0.003 C 
ATOM      5  C   UNL     1      33.553 -21.205 -19.318  0.00  0.00    +0.000 C 
ATOM      6  C   UNL     1      33.325 -22.081 -18.257  0.00  0.00    -0.000 C 
ENDROOT
BRANCH   2   8
ATOM      7  N   UNL     1      34.205 -18.608 -22.562  0.00  0.00    -0.242 NA
ATOM      8  C   UNL     1      35.027 -19.670 -20.554  0.00  0.00    +0.019 C 
ATOM      9  C   UNL     1      36.237 -19.001 -20.682  0.00  0.00    +0.003 C 
ATOM     10  C   UNL     1      34.052 -19.444 -21.510  0.00  0.00    +0.099 C 
ATOM     11  C   UNL     1      36.433 -18.134 -21.751  0.00  0.00    +0.021 C 
ATOM     12  C   UNL     1      35.395 -17.974 -22.656  0.00  0.00    +0.099 C 
ENDBRANCH   2   8
BRANCH   1  13
ATOM     13  C   UNL     1      36.657 -21.969 -16.471  0.00  0.00    +0.114 C 
BRANCH  13  14
ATOM     14  N   UNL     1      36.381 -23.151 -15.652  0.00  0.00    -0.327 N 
ATOM     15  H   UNL     1      35.833 -23.872 -16.036  0.00  0.00    +0.147 HD
BRANCH  14  17
ATOM     16  N   UNL     1      38.534 -24.153 -12.810  0.00  0.00    -0.228 NA
ATOM     17  C   UNL     1      36.854 -23.298 -14.368  0.00  0.00    +0.077 C 
ATOM     18  C   UNL     1      38.037 -23.987 -14.056  0.00  0.00    +0.139 C 
ATOM     19  C   UNL     1      36.158 -22.755 -13.274  0.00  0.00    +0.019 C 
ATOM     20  C   UNL     1      36.638 -22.905 -11.976  0.00  0.00    +0.022 C 
ATOM     21  C   UNL     1      37.820 -23.607 -11.800  0.00  0.00    +0.100 C 
ATOM     22  N   UNL     1      38.764 -24.548 -15.135  0.00  0.00    -0.342 N 
ATOM     23  H   UNL     1      39.599 -25.039 -14.964  0.00  0.00    +0.144 HD
ATOM     24  H   UNL     1      38.434 -24.447 -16.057  0.00  0.00    +0.144 HD
ENDBRANCH  14  17
ENDBRANCH  13  14
ENDBRANCH   1  13
TORSDOF 4
ENDMDL
MODEL 8
REMARK VINA RESULT:     -11.0      2.137      7.831
REMARK  Name = 11701820
REMARK  4 active torsions:
REMARK  status: ('A' for Active; 'I' for Inactive)
REMARK    1  A    between atoms: C_1  and  C_13
REMARK    2  A    between atoms: C_2  and  C_8
REMARK    3  A    between atoms: C_13  and  N_14
REMARK    4  A    between atoms: N_14  and  C_17
REMARK                            x       y       z     vdW  Elec       q    Type
REMARK                         _______ _______ _______ _____ _____    ______ ____
ROOT
ATOM      1  C   UNL     1      34.118 -15.583 -22.501  0.00  0.00    -0.003 C 
ATOM      2  C   UNL     1      33.000 -13.498 -22.993  0.00  0.00    +0.001 C 
ATOM      3  C   UNL     1      33.572 -14.374 -22.070  0.00  0.00    -0.003 C 
ATOM      4  C   UNL     1      34.092 -15.916 -23.855  0.00  0.00    -0.003 C 
ATOM      5  C   UNL     1      32.974 -13.832 -24.347  0.00  0.00    +0.000 C 
ATOM      6  C   UNL     1      33.520 -15.041 -24.779  0.00  0.00    -0.000 C 
ENDROOT
BRANCH   2   8
ATOM      7  N   UNL     1      32.134  -9.874 -22.906  0.00  0.00    -0.242 NA
ATOM      8  C   UNL     1      32.434 -12.243 -22.547  0.00  0.00    +0.019 C 
ATOM      9  C   UNL     1      31.674 -12.175 -21.386  0.00  0.00    +0.003 C 
ATOM     10  C   UNL     1      32.634 -11.078 -23.265  0.00  0.00    +0.099 C 
ATOM     11  C   UNL     1      31.143 -10.955 -20.984  0.00  0.00    +0.021 C 
ATOM     12  C   UNL     1      31.400  -9.844 -21.771  0.00  0.00    +0.099 C 
ENDBRANCH   2   8
BRANCH   1  13
ATOM     13  C   UNL     1      34.730 -16.519 -21.514  0.00  0.00    +0.114 C 
BRANCH  13  14
ATOM     14  N   UNL     1      34.591 -17.920 -21.916  0.00  0.00    -0.327 N 
ATOM     15  H   UNL     1      34.513 -18.129 -22.874  0.00  0.00    +0.147 HD
BRANCH  14  17
ATOM     16  N   UNL     1      35.710 -20.417 -19.422  0.00  0.00    -0.228 NA
ATOM     17  C   UNL     1      34.563 -18.957 -21.013  0.00  0.00    +0.077 C 
ATOM     18  C   UNL     1      35.696 -19.403 -20.314  0.00  0.00    +0.139 C 
ATOM     19  C   UNL     1      33.368 -19.645 -20.738  0.00  0.00    +0.019 C 
ATOM     20  C   UNL     1      33.342 -20.695 -19.824  0.00  0.00    +0.022 C 
ATOM     21  C   UNL     1      34.530 -21.039 -19.199  0.00  0.00    +0.100 C 
ATOM     22  N   UNL     1      36.919 -18.733 -20.568  0.00  0.00    -0.342 N 
ATOM     23  H   UNL     1      37.739 -19.010 -20.101  0.00  0.00    +0.144 HD
ATOM     24  H   UNL     1      36.949 -17.989 -21.212  0.00  0.00    +0.144 HD
ENDBRANCH  14  17
ENDBRANCH  13  14
ENDBRANCH   1  13
TORSDOF 4
ENDMDL
MODEL 9
REMARK VINA RESULT:     -10.9      4.308      9.786
REMARK  Name = 11701820
REMARK  4 active torsions:
REMARK  status: ('A' for Active; 'I' for Inactive)
REMARK    1  A    between atoms: C_1  and  C_13
REMARK    2  A    between atoms: C_2  and  C_8
REMARK    3  A    between atoms: C_13  and  N_14
REMARK    4  A    between atoms: N_14  and  C_17
REMARK                            x       y       z     vdW  Elec       q    Type
REMARK                         _______ _______ _______ _____ _____    ______ ____
ROOT
ATOM      1  C   UNL     1      35.634 -21.798 -17.281  0.00  0.00    -0.003 C 
ATOM      2  C   UNL     1      34.844 -20.703 -19.284  0.00  0.00    +0.001 C 
ATOM      3  C   UNL     1      35.853 -20.926 -18.347  0.00  0.00    -0.003 C 
ATOM      4  C   UNL     1      34.407 -22.448 -17.152  0.00  0.00    -0.003 C 
ATOM      5  C   UNL     1      33.617 -21.353 -19.155  0.00  0.00    +0.000 C 
ATOM      6  C   UNL     1      33.397 -22.226 -18.089  0.00  0.00    -0.000 C 
ENDROOT
BRANCH   2   8
ATOM      7  N   UNL     1      34.233 -18.745 -22.397  0.00  0.00    -0.242 NA
ATOM      8  C   UNL     1      35.070 -19.798 -20.391  0.00  0.00    +0.019 C 
ATOM      9  C   UNL     1      36.279 -19.128 -20.529  0.00  0.00    +0.003 C 
ATOM     10  C   UNL     1      34.088 -19.577 -21.340  0.00  0.00    +0.099 C 
ATOM     11  C   UNL     1      36.466 -18.265 -21.603  0.00  0.00    +0.021 C 
ATOM     12  C   UNL     1      35.421 -18.109 -22.501  0.00  0.00    +0.099 C 
ENDBRANCH   2   8
BRANCH   1  13
ATOM     13  C   UNL     1      36.713 -22.038 -16.279  0.00  0.00    +0.114 C 
BRANCH  13  14
ATOM     14  N   UNL     1      36.424 -23.182 -15.413  0.00  0.00    -0.327 N 
ATOM     15  H   UNL     1      35.499 -23.319 -15.107  0.00  0.00    +0.147 HD
BRANCH  14  17
ATOM     16  N   UNL     1      38.016 -26.284 -14.165  0.00  0.00    -0.228 NA
ATOM     17  C   UNL     1      37.388 -24.076 -15.008  0.00  0.00    +0.077 C 
ATOM     18  C   UNL     1      37.099 -25.378 -14.571  0.00  0.00    +0.139 C 
ATOM     19  C   UNL     1      38.750 -23.722 -15.010  0.00  0.00    +0.019 C 
ATOM     20  C   UNL     1      39.723 -24.628 -14.600  0.00  0.00    +0.022 C 
ATOM     21  C   UNL     1      39.307 -25.885 -14.190  0.00  0.00    +0.100 C 
ATOM     22  N   UNL     1      35.736 -25.768 -14.556  0.00  0.00    -0.342 N 
ATOM     23  H   UNL     1      35.486 -26.672 -14.257  0.00  0.00    +0.144 HD
ATOM     24  H   UNL     1      35.040 -25.136 -14.844  0.00  0.00    +0.144 HD
ENDBRANCH  14  17
ENDBRANCH  13  14
ENDBRANCH   1  13
TORSDOF 4
ENDMDL
