MODEL 1
REMARK VINA RESULT:     -10.6      0.000      0.000
REMARK  Name = 9543495
REMARK  6 active torsions:
REMARK  status: ('A' for Active; 'I' for Inactive)
REMARK    1  A    between atoms: C_2  and  N_17
REMARK    2  A    between atoms: C_3  and  C_7
REMARK    3  A    between atoms: C_5  and  C_14
REMARK    4  A    between atoms: C_14  and  O_15
REMARK    5  A    between atoms: N_17  and  S_19
REMARK    6  A    between atoms: S_19  and  C_22
REMARK                            x       y       z     vdW  Elec       q    Type
REMARK                         _______ _______ _______ _____ _____    ______ ____
ROOT
ATOM      1  S   UNL     1      35.568 -22.218 -15.647  0.00  0.00    -0.079 S 
ATOM      2  C   UNL     1      33.571 -23.668 -14.933  0.00  0.00    +0.078 C 
ATOM      3  C   UNL     1      34.245 -22.351 -16.727  0.00  0.00    +0.031 C 
ATOM      4  C   UNL     1      33.247 -23.156 -16.222  0.00  0.00    +0.023 C 
ATOM      5  C   UNL     1      34.806 -23.237 -14.501  0.00  0.00    +0.119 C 
ENDROOT
BRANCH   3   7
ATOM      6  F   UNL     1      34.453 -19.646 -21.593  0.00  0.00    -0.204 F 
ATOM      7  C   UNL     1      34.299 -21.651 -17.987  0.00  0.00    +0.006 C 
ATOM      8  C   UNL     1      33.124 -21.394 -18.693  0.00  0.00    +0.003 C 
ATOM      9  C   UNL     1      35.527 -21.231 -18.499  0.00  0.00    +0.003 C 
ATOM     10  C   UNL     1      33.176 -20.717 -19.911  0.00  0.00    +0.030 C 
ATOM     11  C   UNL     1      35.578 -20.554 -19.718  0.00  0.00    +0.030 C 
ATOM     12  C   UNL     1      34.403 -20.296 -20.424  0.00  0.00    +0.140 C 
ENDBRANCH   3   7
BRANCH   5  14
ATOM     13  O   UNL     1      36.576 -24.129 -13.160  0.00  0.00    -0.244 OA
ATOM     14  C   UNL     1      35.487 -23.524 -13.279  0.00  0.00    +0.345 C 
BRANCH  14  15
ATOM     15  O   UNL     1      34.831 -23.063 -12.166  0.00  0.00    -0.477 OA
ATOM     16  H   UNL     1      33.955 -23.343 -11.990  0.00  0.00    +0.295 HD
ENDBRANCH  14  15
ENDBRANCH   5  14
BRANCH   2  17
ATOM     17  N   UNL     1      32.708 -24.514 -14.214  0.00  0.00    -0.214 N 
ATOM     18  H   UNL     1      32.820 -25.486 -14.329  0.00  0.00    +0.174 HD
BRANCH  17  19
ATOM     19  S   UNL     1      31.480 -23.977 -13.155  0.00  0.00    +0.074 S 
ATOM     20  O   UNL     1      31.890 -22.736 -12.526  0.00  0.00    -0.150 OA
ATOM     21  O   UNL     1      31.011 -25.090 -12.350  0.00  0.00    -0.150 OA
BRANCH  19  22
ATOM     22  C   UNL     1      30.196 -23.586 -14.308  0.00  0.00    +0.125 C 
ATOM     23  C   UNL     1      29.439 -24.611 -14.847  0.00  0.00    +0.020 C 
ATOM     24  C   UNL     1      29.975 -22.263 -14.645  0.00  0.00    +0.020 C 
ATOM     25  C   UNL     1      28.188 -22.974 -16.108  0.00  0.00    -0.022 C 
ATOM     26  C   UNL     1      28.426 -24.301 -15.756  0.00  0.00    -0.003 C 
ATOM     27  C   UNL     1      28.963 -21.954 -15.554  0.00  0.00    -0.003 C 
ATOM     28  C   UNL     1      27.104 -22.643 -17.078  0.00  0.00    +0.031 C 
ENDBRANCH  19  22
ENDBRANCH  17  19
ENDBRANCH   2  17
TORSDOF 6
ENDMDL
MODEL 2
REMARK VINA RESULT:     -10.4      2.198      5.845
REMARK  Name = 9543495
REMARK  6 active torsions:
REMARK  status: ('A' for Active; 'I' for Inactive)
REMARK    1  A    between atoms: C_2  and  N_17
REMARK    2  A    between atoms: C_3  and  C_7
REMARK    3  A    between atoms: C_5  and  C_14
REMARK    4  A    between atoms: C_14  and  O_15
REMARK    5  A    between atoms: N_17  and  S_19
REMARK    6  A    between atoms: S_19  and  C_22
REMARK                            x       y       z     vdW  Elec       q    Type
REMARK                         _______ _______ _______ _____ _____    ______ ____
ROOT
ATOM      1  S   UNL     1      31.632 -22.791 -15.940  0.00  0.00    -0.079 S 
ATOM      2  C   UNL     1      33.290 -23.940 -14.350  0.00  0.00    +0.078 C 
ATOM      3  C   UNL     1      33.297 -22.726 -16.333  0.00  0.00    +0.031 C 
ATOM      4  C   UNL     1      34.073 -23.380 -15.400  0.00  0.00    +0.023 C 
ATOM      5  C   UNL     1      31.945 -23.694 -14.519  0.00  0.00    +0.119 C 
ENDROOT
BRANCH   3   7
ATOM      6  F   UNL     1      34.875 -20.060 -20.963  0.00  0.00    -0.204 F 
ATOM      7  C   UNL     1      33.706 -22.036 -17.532  0.00  0.00    +0.006 C 
ATOM      8  C   UNL     1      35.055 -21.765 -17.755  0.00  0.00    +0.003 C 
ATOM      9  C   UNL     1      32.750 -21.639 -18.468  0.00  0.00    +0.003 C 
ATOM     10  C   UNL     1      35.451 -21.097 -18.914  0.00  0.00    +0.030 C 
ATOM     11  C   UNL     1      33.146 -20.971 -19.627  0.00  0.00    +0.030 C 
ATOM     12  C   UNL     1      34.496 -20.700 -19.850  0.00  0.00    +0.140 C 
ENDBRANCH   3   7
BRANCH   5  14
ATOM     13  O   UNL     1      29.913 -24.853 -14.016  0.00  0.00    -0.244 OA
ATOM     14  C   UNL     1      30.844 -24.081 -13.696  0.00  0.00    +0.345 C 
BRANCH  14  15
ATOM     15  O   UNL     1      30.870 -23.516 -12.447  0.00  0.00    -0.477 OA
ATOM     16  H   UNL     1      30.487 -22.672 -12.307  0.00  0.00    +0.295 HD
ENDBRANCH  14  15
ENDBRANCH   5  14
BRANCH   2  17
ATOM     17  N   UNL     1      33.857 -24.655 -13.279  0.00  0.00    -0.214 N 
ATOM     18  H   UNL     1      33.602 -25.600 -13.175  0.00  0.00    +0.174 HD
BRANCH  17  19
ATOM     19  S   UNL     1      34.955 -24.000 -12.148  0.00  0.00    +0.074 S 
ATOM     20  O   UNL     1      34.785 -24.660 -10.867  0.00  0.00    -0.150 OA
ATOM     21  O   UNL     1      34.940 -22.552 -12.237  0.00  0.00    -0.150 OA
BRANCH  19  22
ATOM     22  C   UNL     1      36.495 -24.551 -12.823  0.00  0.00    +0.125 C 
ATOM     23  C   UNL     1      37.658 -23.885 -12.479  0.00  0.00    +0.020 C 
ATOM     24  C   UNL     1      36.505 -25.636 -13.680  0.00  0.00    +0.020 C 
ATOM     25  C   UNL     1      38.902 -25.413 -13.877  0.00  0.00    -0.022 C 
ATOM     26  C   UNL     1      38.873 -24.320 -13.012  0.00  0.00    -0.003 C 
ATOM     27  C   UNL     1      37.719 -26.071 -14.212  0.00  0.00    -0.003 C 
ATOM     28  C   UNL     1      40.200 -25.879 -14.446  0.00  0.00    +0.031 C 
ENDBRANCH  19  22
ENDBRANCH  17  19
ENDBRANCH   2  17
TORSDOF 6
ENDMDL
MODEL 3
REMARK VINA RESULT:     -10.1      3.931      6.731
REMARK  Name = 9543495
REMARK  6 active torsions:
REMARK  status: ('A' for Active; 'I' for Inactive)
REMARK    1  A    between atoms: C_2  and  N_17
REMARK    2  A    between atoms: C_3  and  C_7
REMARK    3  A    between atoms: C_5  and  C_14
REMARK    4  A    between atoms: C_14  and  O_15
REMARK    5  A    between atoms: N_17  and  S_19
REMARK    6  A    between atoms: S_19  and  C_22
REMARK                            x       y       z     vdW  Elec       q    Type
REMARK                         _______ _______ _______ _____ _____    ______ ____
ROOT
ATOM      1  S   UNL     1      32.968 -20.499 -19.986  0.00  0.00    -0.079 S 
ATOM      2  C   UNL     1      35.119 -21.196 -18.768  0.00  0.00    +0.078 C 
ATOM      3  C   UNL     1      34.435 -19.750 -20.455  0.00  0.00    +0.031 C 
ATOM      4  C   UNL     1      35.507 -20.214 -19.724  0.00  0.00    +0.023 C 
ATOM      5  C   UNL     1      33.765 -21.446 -18.803  0.00  0.00    +0.119 C 
ENDROOT
BRANCH   3   7
ATOM      6  F   UNL     1      34.340 -15.941 -24.520  0.00  0.00    -0.204 F 
ATOM      7  C   UNL     1      34.410 -18.763 -21.508  0.00  0.00    +0.006 C 
ATOM      8  C   UNL     1      34.896 -17.478 -21.270  0.00  0.00    +0.003 C 
ATOM      9  C   UNL     1      33.900 -19.096 -22.763  0.00  0.00    +0.003 C 
ATOM     10  C   UNL     1      34.872 -16.524 -22.287  0.00  0.00    +0.030 C 
ATOM     11  C   UNL     1      33.877 -18.142 -23.780  0.00  0.00    +0.030 C 
ATOM     12  C   UNL     1      34.362 -16.856 -23.543  0.00  0.00    +0.140 C 
ENDBRANCH   3   7
BRANCH   5  14
ATOM     13  O   UNL     1      33.407 -23.389 -17.453  0.00  0.00    -0.244 OA
ATOM     14  C   UNL     1      32.991 -22.351 -18.015  0.00  0.00    +0.345 C 
BRANCH  14  15
ATOM     15  O   UNL     1      31.674 -21.989 -17.902  0.00  0.00    -0.477 OA
ATOM     16  H   UNL     1      31.279 -21.448 -18.557  0.00  0.00    +0.295 HD
ENDBRANCH  14  15
ENDBRANCH   5  14
BRANCH   2  17
ATOM     17  N   UNL     1      36.038 -21.818 -17.903  0.00  0.00    -0.214 N 
ATOM     18  H   UNL     1      36.497 -22.626 -18.228  0.00  0.00    +0.174 HD
BRANCH  17  19
ATOM     19  S   UNL     1      36.415 -21.270 -16.330  0.00  0.00    +0.074 S 
ATOM     20  O   UNL     1      35.193 -20.919 -15.632  0.00  0.00    -0.150 OA
ATOM     21  O   UNL     1      37.521 -20.333 -16.393  0.00  0.00    -0.150 OA
BRANCH  19  22
ATOM     22  C   UNL     1      37.030 -22.759 -15.599  0.00  0.00    +0.125 C 
ATOM     23  C   UNL     1      38.395 -22.986 -15.578  0.00  0.00    +0.020 C 
ATOM     24  C   UNL     1      36.134 -23.666 -15.063  0.00  0.00    +0.020 C 
ATOM     25  C   UNL     1      37.992 -25.086 -14.455  0.00  0.00    -0.022 C 
ATOM     26  C   UNL     1      38.879 -24.161 -15.001  0.00  0.00    -0.003 C 
ATOM     27  C   UNL     1      36.619 -24.840 -14.486  0.00  0.00    -0.003 C 
ATOM     28  C   UNL     1      38.510 -26.341 -13.837  0.00  0.00    +0.031 C 
ENDBRANCH  19  22
ENDBRANCH  17  19
ENDBRANCH   2  17
TORSDOF 6
ENDMDL
MODEL 4
REMARK VINA RESULT:     -10.1     10.017     12.755
REMARK  Name = 9543495
REMARK  6 active torsions:
REMARK  status: ('A' for Active; 'I' for Inactive)
REMARK    1  A    between atoms: C_2  and  N_17
REMARK    2  A    between atoms: C_3  and  C_7
REMARK    3  A    between atoms: C_5  and  C_14
REMARK    4  A    between atoms: C_14  and  O_15
REMARK    5  A    between atoms: N_17  and  S_19
REMARK    6  A    between atoms: S_19  and  C_22
REMARK                            x       y       z     vdW  Elec       q    Type
REMARK                         _______ _______ _______ _____ _____    ______ ____
ROOT
ATOM      1  S   UNL     1      33.977 -16.284 -23.898  0.00  0.00    -0.079 S 
ATOM      2  C   UNL     1      33.729 -14.071 -22.616  0.00  0.00    +0.078 C 
ATOM      3  C   UNL     1      34.352 -16.278 -22.226  0.00  0.00    +0.031 C 
ATOM      4  C   UNL     1      34.177 -15.032 -21.663  0.00  0.00    +0.023 C 
ATOM      5  C   UNL     1      33.579 -14.618 -23.871  0.00  0.00    +0.119 C 
ENDROOT
BRANCH   3   7
ATOM      6  F   UNL     1      36.038 -21.012 -19.823  0.00  0.00    -0.204 F 
ATOM      7  C   UNL     1      34.788 -17.504 -21.604  0.00  0.00    +0.006 C 
ATOM      8  C   UNL     1      33.850 -18.455 -21.204  0.00  0.00    +0.003 C 
ATOM      9  C   UNL     1      36.149 -17.737 -21.403  0.00  0.00    +0.003 C 
ATOM     10  C   UNL     1      34.272 -19.640 -20.602  0.00  0.00    +0.030 C 
ATOM     11  C   UNL     1      36.570 -18.923 -20.801  0.00  0.00    +0.030 C 
ATOM     12  C   UNL     1      35.633 -19.874 -20.400  0.00  0.00    +0.140 C 
ENDBRANCH   3   7
BRANCH   5  14
ATOM     13  O   UNL     1      33.120 -14.525 -26.218  0.00  0.00    -0.244 OA
ATOM     14  C   UNL     1      33.156 -13.995 -25.085  0.00  0.00    +0.345 C 
BRANCH  14  15
ATOM     15  O   UNL     1      32.763 -12.692 -24.922  0.00  0.00    -0.477 OA
ATOM     16  H   UNL     1      31.919 -12.498 -24.565  0.00  0.00    +0.295 HD
ENDBRANCH  14  15
ENDBRANCH   5  14
BRANCH   2  17
ATOM     17  N   UNL     1      33.480 -12.728 -22.279  0.00  0.00    -0.214 N 
ATOM     18  H   UNL     1      34.223 -12.089 -22.371  0.00  0.00    +0.174 HD
BRANCH  17  19
ATOM     19  S   UNL     1      31.981 -12.128 -21.723  0.00  0.00    +0.074 S 
ATOM     20  O   UNL     1      31.893 -12.298 -20.285  0.00  0.00    -0.150 OA
ATOM     21  O   UNL     1      30.916 -12.604 -22.586  0.00  0.00    -0.150 OA
BRANCH  19  22
ATOM     22  C   UNL     1      32.179 -10.398 -22.038  0.00  0.00    +0.125 C 
ATOM     23  C   UNL     1      31.432  -9.491 -21.307  0.00  0.00    +0.020 C 
ATOM     24  C   UNL     1      33.075  -9.988 -23.007  0.00  0.00    +0.020 C 
ATOM     25  C   UNL     1      32.488  -7.694 -22.529  0.00  0.00    -0.022 C 
ATOM     26  C   UNL     1      31.588  -8.127 -21.556  0.00  0.00    -0.003 C 
ATOM     27  C   UNL     1      33.231  -8.625 -23.255  0.00  0.00    -0.003 C 
ATOM     28  C   UNL     1      32.656  -6.236 -22.793  0.00  0.00    +0.031 C 
ENDBRANCH  19  22
ENDBRANCH  17  19
ENDBRANCH   2  17
TORSDOF 6
ENDMDL
MODEL 5
REMARK VINA RESULT:      -9.8      2.643      5.874
REMARK  Name = 9543495
REMARK  6 active torsions:
REMARK  status: ('A' for Active; 'I' for Inactive)
REMARK    1  A    between atoms: C_2  and  N_17
REMARK    2  A    between atoms: C_3  and  C_7
REMARK    3  A    between atoms: C_5  and  C_14
REMARK    4  A    between atoms: C_14  and  O_15
REMARK    5  A    between atoms: N_17  and  S_19
REMARK    6  A    between atoms: S_19  and  C_22
REMARK                            x       y       z     vdW  Elec       q    Type
REMARK                         _______ _______ _______ _____ _____    ______ ____
ROOT
ATOM      1  S   UNL     1      32.095 -21.178 -18.533  0.00  0.00    -0.079 S 
ATOM      2  C   UNL     1      33.527 -22.728 -17.067  0.00  0.00    +0.078 C 
ATOM      3  C   UNL     1      33.787 -21.200 -18.801  0.00  0.00    +0.031 C 
ATOM      4  C   UNL     1      34.432 -22.071 -17.949  0.00  0.00    +0.023 C 
ATOM      5  C   UNL     1      32.223 -22.334 -17.276  0.00  0.00    +0.119 C 
ENDROOT
BRANCH   3   7
ATOM      6  F   UNL     1      35.931 -17.940 -22.777  0.00  0.00    -0.204 F 
ATOM      7  C   UNL     1      34.342 -20.356 -19.831  0.00  0.00    +0.006 C 
ATOM      8  C   UNL     1      35.704 -20.057 -19.828  0.00  0.00    +0.003 C 
ATOM      9  C   UNL     1      33.516 -19.838 -20.828  0.00  0.00    +0.003 C 
ATOM     10  C   UNL     1      36.242 -19.241 -20.824  0.00  0.00    +0.030 C 
ATOM     11  C   UNL     1      34.053 -19.022 -21.823  0.00  0.00    +0.030 C 
ATOM     12  C   UNL     1      35.416 -18.723 -21.822  0.00  0.00    +0.140 C 
ENDBRANCH   3   7
BRANCH   5  14
ATOM     13  O   UNL     1      30.943 -23.663 -15.753  0.00  0.00    -0.244 OA
ATOM     14  C   UNL     1      31.033 -22.753 -16.607  0.00  0.00    +0.345 C 
BRANCH  14  15
ATOM     15  O   UNL     1      29.918 -22.050 -16.983  0.00  0.00    -0.477 OA
ATOM     16  H   UNL     1      29.697 -21.253 -16.543  0.00  0.00    +0.295 HD
ENDBRANCH  14  15
ENDBRANCH   5  14
BRANCH   2  17
ATOM     17  N   UNL     1      33.949 -23.663 -16.105  0.00  0.00    -0.214 N 
ATOM     18  H   UNL     1      33.955 -24.613 -16.363  0.00  0.00    +0.174 HD
BRANCH  17  19
ATOM     19  S   UNL     1      34.452 -23.268 -14.522  0.00  0.00    +0.074 S 
ATOM     20  O   UNL     1      33.668 -24.020 -13.561  0.00  0.00    -0.150 OA
ATOM     21  O   UNL     1      34.582 -21.828 -14.397  0.00  0.00    -0.150 OA
BRANCH  19  22
ATOM     22  C   UNL     1      36.087 -23.945 -14.514  0.00  0.00    +0.125 C 
ATOM     23  C   UNL     1      36.286 -25.219 -14.013  0.00  0.00    +0.020 C 
ATOM     24  C   UNL     1      37.132 -23.187 -15.009  0.00  0.00    +0.020 C 
ATOM     25  C   UNL     1      38.642 -25.004 -14.503  0.00  0.00    -0.022 C 
ATOM     26  C   UNL     1      37.576 -25.753 -14.008  0.00  0.00    -0.003 C 
ATOM     27  C   UNL     1      38.421 -23.720 -15.003  0.00  0.00    -0.003 C 
ATOM     28  C   UNL     1      40.020 -25.574 -14.498  0.00  0.00    +0.031 C 
ENDBRANCH  19  22
ENDBRANCH  17  19
ENDBRANCH   2  17
TORSDOF 6
ENDMDL
MODEL 6
REMARK VINA RESULT:      -9.7      8.547     11.239
REMARK  Name = 9543495
REMARK  6 active torsions:
REMARK  status: ('A' for Active; 'I' for Inactive)
REMARK    1  A    between atoms: C_2  and  N_17
REMARK    2  A    between atoms: C_3  and  C_7
REMARK    3  A    between atoms: C_5  and  C_14
REMARK    4  A    between atoms: C_14  and  O_15
REMARK    5  A    between atoms: N_17  and  S_19
REMARK    6  A    between atoms: S_19  and  C_22
REMARK                            x       y       z     vdW  Elec       q    Type
REMARK                         _______ _______ _______ _____ _____    ______ ____
ROOT
ATOM      1  S   UNL     1      34.104 -18.302 -23.101  0.00  0.00    -0.079 S 
ATOM      2  C   UNL     1      34.157 -15.895 -22.205  0.00  0.00    +0.078 C 
ATOM      3  C   UNL     1      34.344 -18.076 -21.420  0.00  0.00    +0.031 C 
ATOM      4  C   UNL     1      34.352 -16.741 -21.075  0.00  0.00    +0.023 C 
ATOM      5  C   UNL     1      34.009 -16.613 -23.371  0.00  0.00    +0.119 C 
ENDROOT
BRANCH   3   7
ATOM      6  F   UNL     1      34.970 -22.550 -18.159  0.00  0.00    -0.204 F 
ATOM      7  C   UNL     1      34.506 -19.235 -20.575  0.00  0.00    +0.006 C 
ATOM      8  C   UNL     1      33.387 -19.953 -20.156  0.00  0.00    +0.003 C 
ATOM      9  C   UNL     1      35.782 -19.635 -20.179  0.00  0.00    +0.003 C 
ATOM     10  C   UNL     1      33.543 -21.073 -19.340  0.00  0.00    +0.030 C 
ATOM     11  C   UNL     1      35.938 -20.755 -19.362  0.00  0.00    +0.030 C 
ATOM     12  C   UNL     1      34.819 -21.474 -18.942  0.00  0.00    +0.140 C 
ENDBRANCH   3   7
BRANCH   5  14
ATOM     13  O   UNL     1      32.814 -16.397 -25.432  0.00  0.00    -0.244 OA
ATOM     14  C   UNL     1      33.798 -16.143 -24.703  0.00  0.00    +0.345 C 
BRANCH  14  15
ATOM     15  O   UNL     1      34.808 -15.341 -25.166  0.00  0.00    -0.477 OA
ATOM     16  H   UNL     1      35.117 -15.436 -26.045  0.00  0.00    +0.295 HD
ENDBRANCH  14  15
ENDBRANCH   5  14
BRANCH   2  17
ATOM     17  N   UNL     1      34.127 -14.492 -22.105  0.00  0.00    -0.214 N 
ATOM     18  H   UNL     1      34.509 -13.973 -22.849  0.00  0.00    +0.174 HD
BRANCH  17  19
ATOM     19  S   UNL     1      33.473 -13.626 -20.787  0.00  0.00    +0.074 S 
ATOM     20  O   UNL     1      34.546 -13.171 -19.924  0.00  0.00    -0.150 OA
ATOM     21  O   UNL     1      32.346 -14.357 -20.235  0.00  0.00    -0.150 OA
BRANCH  19  22
ATOM     22  C   UNL     1      32.822 -12.204 -21.613  0.00  0.00    +0.125 C 
ATOM     23  C   UNL     1      33.335 -11.849 -22.848  0.00  0.00    +0.020 C 
ATOM     24  C   UNL     1      31.813 -11.477 -21.009  0.00  0.00    +0.020 C 
ATOM     25  C   UNL     1      31.803  -9.981 -22.907  0.00  0.00    -0.022 C 
ATOM     26  C   UNL     1      32.821 -10.727 -23.500  0.00  0.00    -0.003 C 
ATOM     27  C   UNL     1      31.299 -10.355 -21.661  0.00  0.00    -0.003 C 
ATOM     28  C   UNL     1      31.253  -8.783 -23.604  0.00  0.00    +0.031 C 
ENDBRANCH  19  22
ENDBRANCH  17  19
ENDBRANCH   2  17
TORSDOF 6
ENDMDL
MODEL 7
REMARK VINA RESULT:      -9.5      1.798      2.526
REMARK  Name = 9543495
REMARK  6 active torsions:
REMARK  status: ('A' for Active; 'I' for Inactive)
REMARK    1  A    between atoms: C_2  and  N_17
REMARK    2  A    between atoms: C_3  and  C_7
REMARK    3  A    between atoms: C_5  and  C_14
REMARK    4  A    between atoms: C_14  and  O_15
REMARK    5  A    between atoms: N_17  and  S_19
REMARK    6  A    between atoms: S_19  and  C_22
REMARK                            x       y       z     vdW  Elec       q    Type
REMARK                         _______ _______ _______ _____ _____    ______ ____
ROOT
ATOM      1  S   UNL     1      36.477 -21.123 -17.636  0.00  0.00    -0.079 S 
ATOM      2  C   UNL     1      34.445 -22.548 -16.972  0.00  0.00    +0.078 C 
ATOM      3  C   UNL     1      35.075 -21.029 -18.616  0.00  0.00    +0.031 C 
ATOM      4  C   UNL     1      34.064 -21.841 -18.149  0.00  0.00    +0.023 C 
ATOM      5  C   UNL     1      35.733 -22.251 -16.584  0.00  0.00    +0.119 C 
ENDROOT
BRANCH   3   7
ATOM      6  F   UNL     1      35.117 -17.676 -23.065  0.00  0.00    -0.204 F 
ATOM      7  C   UNL     1      35.086 -20.161 -19.768  0.00  0.00    +0.006 C 
ATOM      8  C   UNL     1      36.258 -19.498 -20.130  0.00  0.00    +0.003 C 
ATOM      9  C   UNL     1      33.924 -19.984 -20.519  0.00  0.00    +0.003 C 
ATOM     10  C   UNL     1      36.269 -18.658 -21.244  0.00  0.00    +0.030 C 
ATOM     11  C   UNL     1      33.935 -19.145 -21.633  0.00  0.00    +0.030 C 
ATOM     12  C   UNL     1      35.107 -18.481 -21.996  0.00  0.00    +0.140 C 
ENDBRANCH   3   7
BRANCH   5  14
ATOM     13  O   UNL     1      37.113 -22.059 -14.638  0.00  0.00    -0.244 OA
ATOM     14  C   UNL     1      36.478 -22.745 -15.470  0.00  0.00    +0.345 C 
BRANCH  14  15
ATOM     15  O   UNL     1      36.455 -24.111 -15.360  0.00  0.00    -0.477 OA
ATOM     16  H   UNL     1      35.726 -24.536 -14.953  0.00  0.00    +0.295 HD
ENDBRANCH  14  15
ENDBRANCH   5  14
BRANCH   2  17
ATOM     17  N   UNL     1      33.581 -23.439 -16.310  0.00  0.00    -0.214 N 
ATOM     18  H   UNL     1      33.289 -24.242 -16.800  0.00  0.00    +0.174 HD
BRANCH  17  19
ATOM     19  S   UNL     1      33.003 -23.229 -14.717  0.00  0.00    +0.074 S 
ATOM     20  O   UNL     1      33.540 -22.000 -14.164  0.00  0.00    -0.150 OA
ATOM     21  O   UNL     1      33.124 -24.478 -13.987  0.00  0.00    -0.150 OA
BRANCH  19  22
ATOM     22  C   UNL     1      31.281 -22.963 -15.021  0.00  0.00    +0.125 C 
ATOM     23  C   UNL     1      30.368 -23.250 -14.022  0.00  0.00    +0.020 C 
ATOM     24  C   UNL     1      30.882 -22.472 -16.250  0.00  0.00    +0.020 C 
ATOM     25  C   UNL     1      28.588 -22.545 -15.495  0.00  0.00    -0.022 C 
ATOM     26  C   UNL     1      29.009 -23.040 -14.262  0.00  0.00    -0.003 C 
ATOM     27  C   UNL     1      29.524 -22.262 -16.490  0.00  0.00    -0.003 C 
ATOM     28  C   UNL     1      27.136 -22.319 -15.752  0.00  0.00    +0.031 C 
ENDBRANCH  19  22
ENDBRANCH  17  19
ENDBRANCH   2  17
TORSDOF 6
ENDMDL
MODEL 8
REMARK VINA RESULT:      -9.5     13.338     16.247
REMARK  Name = 9543495
REMARK  6 active torsions:
REMARK  status: ('A' for Active; 'I' for Inactive)
REMARK    1  A    between atoms: C_2  and  N_17
REMARK    2  A    between atoms: C_3  and  C_7
REMARK    3  A    between atoms: C_5  and  C_14
REMARK    4  A    between atoms: C_14  and  O_15
REMARK    5  A    between atoms: N_17  and  S_19
REMARK    6  A    between atoms: S_19  and  C_22
REMARK                            x       y       z     vdW  Elec       q    Type
REMARK                         _______ _______ _______ _____ _____    ______ ____
ROOT
ATOM      1  S   UNL     1      31.848 -11.889 -21.327  0.00  0.00    -0.079 S 
ATOM      2  C   UNL     1      32.351  -9.893 -22.864  0.00  0.00    +0.078 C 
ATOM      3  C   UNL     1      32.778 -12.176 -22.736  0.00  0.00    +0.031 C 
ATOM      4  C   UNL     1      32.972 -11.024 -23.468  0.00  0.00    +0.023 C 
ATOM      5  C   UNL     1      31.704 -10.222 -21.693  0.00  0.00    +0.119 C 
ENDROOT
BRANCH   3   7
ATOM      6  F   UNL     1      34.566 -17.347 -23.783  0.00  0.00    -0.204 F 
ATOM      7  C   UNL     1      33.241 -13.515 -23.007  0.00  0.00    +0.006 C 
ATOM      8  C   UNL     1      33.022 -14.088 -24.260  0.00  0.00    +0.003 C 
ATOM      9  C   UNL     1      33.906 -14.236 -22.017  0.00  0.00    +0.003 C 
ATOM     10  C   UNL     1      33.469 -15.383 -24.522  0.00  0.00    +0.030 C 
ATOM     11  C   UNL     1      34.354 -15.531 -22.279  0.00  0.00    +0.030 C 
ATOM     12  C   UNL     1      34.136 -16.104 -23.532  0.00  0.00    +0.140 C 
ENDBRANCH   3   7
BRANCH   5  14
ATOM     13  O   UNL     1      30.475  -9.724 -19.701  0.00  0.00    -0.244 OA
ATOM     14  C   UNL     1      30.970  -9.385 -20.799  0.00  0.00    +0.345 C 
BRANCH  14  15
ATOM     15  O   UNL     1      30.829  -8.097 -21.248  0.00  0.00    -0.477 OA
ATOM     16  H   UNL     1      31.379  -7.420 -20.907  0.00  0.00    +0.295 HD
ENDBRANCH  14  15
ENDBRANCH   5  14
BRANCH   2  17
ATOM     17  N   UNL     1      32.411  -8.605 -23.425  0.00  0.00    -0.214 N 
ATOM     18  H   UNL     1      31.692  -8.343 -24.045  0.00  0.00    +0.174 HD
BRANCH  17  19
ATOM     19  S   UNL     1      33.640  -7.462 -23.107  0.00  0.00    +0.074 S 
ATOM     20  O   UNL     1      34.921  -7.998 -23.525  0.00  0.00    -0.150 OA
ATOM     21  O   UNL     1      33.469  -6.923 -21.771  0.00  0.00    -0.150 OA
BRANCH  19  22
ATOM     22  C   UNL     1      33.207  -6.182 -24.249  0.00  0.00    +0.125 C 
ATOM     23  C   UNL     1      32.068  -6.326 -25.022  0.00  0.00    +0.020 C 
ATOM     24  C   UNL     1      34.014  -5.064 -24.346  0.00  0.00    +0.020 C 
ATOM     25  C   UNL     1      32.529  -4.181 -26.033  0.00  0.00    -0.022 C 
ATOM     26  C   UNL     1      31.727  -5.315 -25.923  0.00  0.00    -0.003 C 
ATOM     27  C   UNL     1      33.673  -4.055 -25.246  0.00  0.00    -0.003 C 
ATOM     28  C   UNL     1      32.163  -3.100 -26.995  0.00  0.00    +0.031 C 
ENDBRANCH  19  22
ENDBRANCH  17  19
ENDBRANCH   2  17
TORSDOF 6
ENDMDL
MODEL 9
REMARK VINA RESULT:      -9.2     13.505     16.299
REMARK  Name = 9543495
REMARK  6 active torsions:
REMARK  status: ('A' for Active; 'I' for Inactive)
REMARK    1  A    between atoms: C_2  and  N_17
REMARK    2  A    between atoms: C_3  and  C_7
REMARK    3  A    between atoms: C_5  and  C_14
REMARK    4  A    between atoms: C_14  and  O_15
REMARK    5  A    between atoms: N_17  and  S_19
REMARK    6  A    between atoms: S_19  and  C_22
REMARK                            x       y       z     vdW  Elec       q    Type
REMARK                         _______ _______ _______ _____ _____    ______ ____
ROOT
ATOM      1  S   UNL     1      31.898 -11.745 -21.174  0.00  0.00    -0.079 S 
ATOM      2  C   UNL     1      32.235  -9.716 -22.715  0.00  0.00    +0.078 C 
ATOM      3  C   UNL     1      32.700 -11.994 -22.667  0.00  0.00    +0.031 C 
ATOM      4  C   UNL     1      32.813 -10.828 -23.393  0.00  0.00    +0.023 C 
ATOM      5  C   UNL     1      31.700 -10.074 -21.496  0.00  0.00    +0.119 C 
ENDROOT
BRANCH   3   7
ATOM      6  F   UNL     1      34.451 -17.122 -23.962  0.00  0.00    -0.204 F 
ATOM      7  C   UNL     1      33.153 -13.322 -23.002  0.00  0.00    +0.006 C 
ATOM      8  C   UNL     1      33.787 -14.106 -22.039  0.00  0.00    +0.003 C 
ATOM      9  C   UNL     1      32.958 -13.821 -24.290  0.00  0.00    +0.003 C 
ATOM     10  C   UNL     1      34.226 -15.390 -22.363  0.00  0.00    +0.030 C 
ATOM     11  C   UNL     1      33.396 -15.105 -24.614  0.00  0.00    +0.030 C 
ATOM     12  C   UNL     1      34.031 -15.890 -23.651  0.00  0.00    +0.140 C 
ENDBRANCH   3   7
BRANCH   5  14
ATOM     13  O   UNL     1      30.590  -9.643 -19.421  0.00  0.00    -0.244 OA
ATOM     14  C   UNL     1      31.039  -9.262 -20.525  0.00  0.00    +0.345 C 
BRANCH  14  15
ATOM     15  O   UNL     1      30.917  -7.949 -20.902  0.00  0.00    -0.477 OA
ATOM     16  H   UNL     1      31.668  -7.477 -21.203  0.00  0.00    +0.295 HD
ENDBRANCH  14  15
ENDBRANCH   5  14
BRANCH   2  17
ATOM     17  N   UNL     1      32.227  -8.418 -23.256  0.00  0.00    -0.214 N 
ATOM     18  H   UNL     1      31.464  -8.164 -23.824  0.00  0.00    +0.174 HD
BRANCH  17  19
ATOM     19  S   UNL     1      33.446  -7.251 -22.997  0.00  0.00    +0.074 S 
ATOM     20  O   UNL     1      34.657  -7.652 -23.686  0.00  0.00    -0.150 OA
ATOM     21  O   UNL     1      33.485  -6.891 -21.592  0.00  0.00    -0.150 OA
BRANCH  19  22
ATOM     22  C   UNL     1      32.774  -5.869 -23.874  0.00  0.00    +0.125 C 
ATOM     23  C   UNL     1      31.400  -5.718 -23.945  0.00  0.00    +0.020 C 
ATOM     24  C   UNL     1      33.635  -4.967 -24.471  0.00  0.00    +0.020 C 
ATOM     25  C   UNL     1      31.723  -3.708 -25.245  0.00  0.00    -0.022 C 
ATOM     26  C   UNL     1      30.871  -4.628 -24.637  0.00  0.00    -0.003 C 
ATOM     27  C   UNL     1      33.106  -3.877 -25.163  0.00  0.00    -0.003 C 
ATOM     28  C   UNL     1      31.157  -2.542 -25.983  0.00  0.00    +0.031 C 
ENDBRANCH  19  22
ENDBRANCH  17  19
ENDBRANCH   2  17
TORSDOF 6
ENDMDL
