MODEL 1
REMARK VINA RESULT:     -10.7      0.000      0.000
REMARK  Name = 5105
REMARK  10 active torsions:
REMARK  status: ('A' for Active; 'I' for Inactive)
REMARK    1  A    between atoms: C_1  and  C_20
REMARK    2  A    between atoms: C_4  and  O_7
REMARK    3  A    between atoms: O_7  and  C_8
REMARK    4  A    between atoms: C_8  and  C_9
REMARK    5  A    between atoms: C_9  and  C_10
REMARK    6  A    between atoms: C_10  and  N_12
REMARK    7  A    between atoms: C_13  and  C_15
REMARK    8  A    between atoms: C_15  and  O_16
REMARK    9  A    between atoms: O_16  and  C_18
REMARK   10  A    between atoms: C_20  and  N_21
REMARK                            x       y       z     vdW  Elec       q    Type
REMARK                         _______ _______ _______ _____ _____    ______ ____
ROOT
ATOM      1  C   UNL     1      34.492 -20.530 -19.781  0.00  0.00    -0.040 C 
ATOM      2  C   UNL     1      35.042 -21.322 -18.774  0.00  0.00    +0.031 C 
ATOM      3  C   UNL     1      33.106 -20.446 -19.925  0.00  0.00    -0.006 C 
ATOM      4  C   UNL     1      34.207 -22.030 -17.910  0.00  0.00    +0.138 C 
ATOM      5  C   UNL     1      32.273 -21.154 -19.060  0.00  0.00    +0.003 C 
ATOM      6  C   UNL     1      32.822 -21.946 -18.053  0.00  0.00    +0.037 C 
ENDROOT
BRANCH   4   7
ATOM      7  O   UNL     1      34.743 -22.801 -16.925  0.00  0.00    -0.475 OA
BRANCH   7   8
ATOM      8  C   UNL     1      34.758 -22.255 -15.607  0.00  0.00    +0.207 C 
BRANCH   8   9
ATOM      9  C   UNL     1      33.919 -23.144 -14.698  0.00  0.00    +0.069 C 
BRANCH   9  10
ATOM     10  C   UNL     1      34.285 -24.618 -14.810  0.00  0.00    +0.093 C 
BRANCH  10  12
ATOM     11  O   UNL     1      36.282 -26.562 -15.601  0.00  0.00    -0.271 OA
ATOM     12  N   UNL     1      35.510 -24.934 -14.128  0.00  0.00    -0.301 N 
ATOM     13  C   UNL     1      36.413 -25.887 -14.583  0.00  0.00    +0.267 C 
ATOM     14  H   UNL     1      35.719 -24.452 -13.296  0.00  0.00    +0.150 HD
BRANCH  13  15
ATOM     15  C   UNL     1      37.613 -26.012 -13.669  0.00  0.00    +0.292 C 
BRANCH  15  16
ATOM     16  O   UNL     1      38.712 -26.568 -14.359  0.00  0.00    -0.438 OA
BRANCH  16  18
ATOM     17  O   UNL     1      40.921 -26.463 -13.692  0.00  0.00    -0.250 OA
ATOM     18  C   UNL     1      39.921 -25.947 -14.171  0.00  0.00    +0.318 C 
ATOM     19  C   UNL     1      39.853 -24.526 -14.640  0.00  0.00    +0.121 C 
ENDBRANCH  16  18
ENDBRANCH  15  16
ENDBRANCH  13  15
ENDBRANCH  10  12
ENDBRANCH   9  10
ENDBRANCH   8   9
ENDBRANCH   7   8
ENDBRANCH   4   7
BRANCH   1  20
ATOM     20  C   UNL     1      35.393 -19.766 -20.715  0.00  0.00    -0.050 C 
BRANCH  20  21
ATOM     21  N   UNL     1      34.667 -18.723 -21.440  0.00  0.00    +0.390 N 
ATOM     22  C   UNL     1      35.297 -17.413 -21.225  0.00  0.00    -0.077 C 
ATOM     23  C   UNL     1      34.592 -19.047 -22.871  0.00  0.00    -0.077 C 
ATOM     24  C   UNL     1      34.521 -16.303 -21.936  0.00  0.00    -0.023 C 
ATOM     25  C   UNL     1      33.794 -17.992 -23.636  0.00  0.00    -0.023 C 
ATOM     26  C   UNL     1      34.372 -16.597 -23.425  0.00  0.00    -0.004 C 
ATOM     27  H   UNL     1      33.714 -18.676 -21.078  0.00  0.00    -0.079 HD
ENDBRANCH  20  21
ENDBRANCH   1  20
TORSDOF 10
ENDMDL
MODEL 2
REMARK VINA RESULT:     -10.6      1.631      2.078
REMARK  Name = 5105
REMARK  10 active torsions:
REMARK  status: ('A' for Active; 'I' for Inactive)
REMARK    1  A    between atoms: C_1  and  C_20
REMARK    2  A    between atoms: C_4  and  O_7
REMARK    3  A    between atoms: O_7  and  C_8
REMARK    4  A    between atoms: C_8  and  C_9
REMARK    5  A    between atoms: C_9  and  C_10
REMARK    6  A    between atoms: C_10  and  N_12
REMARK    7  A    between atoms: C_13  and  C_15
REMARK    8  A    between atoms: C_15  and  O_16
REMARK    9  A    between atoms: O_16  and  C_18
REMARK   10  A    between atoms: C_20  and  N_21
REMARK                            x       y       z     vdW  Elec       q    Type
REMARK                         _______ _______ _______ _____ _____    ______ ____
ROOT
ATOM      1  C   UNL     1      34.362 -19.773 -20.816  0.00  0.00    -0.040 C 
ATOM      2  C   UNL     1      35.131 -20.469 -19.885  0.00  0.00    +0.031 C 
ATOM      3  C   UNL     1      32.969 -19.826 -20.750  0.00  0.00    -0.006 C 
ATOM      4  C   UNL     1      34.508 -21.219 -18.888  0.00  0.00    +0.138 C 
ATOM      5  C   UNL     1      32.347 -20.576 -19.753  0.00  0.00    +0.003 C 
ATOM      6  C   UNL     1      33.116 -21.272 -18.821  0.00  0.00    +0.037 C 
ENDROOT
BRANCH   4   7
ATOM      7  O   UNL     1      35.259 -21.898 -17.978  0.00  0.00    -0.475 OA
BRANCH   7   8
ATOM      8  C   UNL     1      36.426 -21.244 -17.482  0.00  0.00    +0.207 C 
BRANCH   8   9
ATOM      9  C   UNL     1      36.904 -21.974 -16.233  0.00  0.00    +0.069 C 
BRANCH   9  10
ATOM     10  C   UNL     1      35.760 -22.566 -15.420  0.00  0.00    +0.093 C 
BRANCH  10  12
ATOM     11  O   UNL     1      37.130 -22.332 -12.877  0.00  0.00    -0.271 OA
ATOM     12  N   UNL     1      36.190 -23.636 -14.561  0.00  0.00    -0.301 N 
ATOM     13  C   UNL     1      36.844 -23.428 -13.352  0.00  0.00    +0.267 C 
ATOM     14  H   UNL     1      36.013 -24.561 -14.844  0.00  0.00    +0.150 HD
BRANCH  13  15
ATOM     15  C   UNL     1      37.179 -24.732 -12.659  0.00  0.00    +0.292 C 
BRANCH  15  16
ATOM     16  O   UNL     1      38.529 -25.080 -12.873  0.00  0.00    -0.438 OA
BRANCH  16  18
ATOM     17  O   UNL     1      38.255 -26.688 -14.509  0.00  0.00    -0.250 OA
ATOM     18  C   UNL     1      38.814 -25.694 -14.067  0.00  0.00    +0.318 C 
ATOM     19  C   UNL     1      39.921 -24.971 -14.772  0.00  0.00    +0.121 C 
ENDBRANCH  16  18
ENDBRANCH  15  16
ENDBRANCH  13  15
ENDBRANCH  10  12
ENDBRANCH   9  10
ENDBRANCH   8   9
ENDBRANCH   7   8
ENDBRANCH   4   7
BRANCH   1  20
ATOM     20  C   UNL     1      35.033 -18.962 -21.894  0.00  0.00    -0.050 C 
BRANCH  20  21
ATOM     21  N   UNL     1      34.366 -17.678 -22.105  0.00  0.00    +0.390 N 
ATOM     22  C   UNL     1      34.824 -16.691 -21.118  0.00  0.00    -0.077 C 
ATOM     23  C   UNL     1      34.591 -17.201 -23.477  0.00  0.00    -0.077 C 
ATOM     24  C   UNL     1      34.099 -15.356 -21.294  0.00  0.00    -0.023 C 
ATOM     25  C   UNL     1      33.859 -15.883 -23.731  0.00  0.00    -0.023 C 
ATOM     26  C   UNL     1      34.260 -14.821 -22.713  0.00  0.00    -0.004 C 
ATOM     27  H   UNL     1      33.362 -17.807 -21.979  0.00  0.00    -0.079 HD
ENDBRANCH  20  21
ENDBRANCH   1  20
TORSDOF 10
ENDMDL
MODEL 3
REMARK VINA RESULT:     -10.3      3.990      6.714
REMARK  Name = 5105
REMARK  10 active torsions:
REMARK  status: ('A' for Active; 'I' for Inactive)
REMARK    1  A    between atoms: C_1  and  C_20
REMARK    2  A    between atoms: C_4  and  O_7
REMARK    3  A    between atoms: O_7  and  C_8
REMARK    4  A    between atoms: C_8  and  C_9
REMARK    5  A    between atoms: C_9  and  C_10
REMARK    6  A    between atoms: C_10  and  N_12
REMARK    7  A    between atoms: C_13  and  C_15
REMARK    8  A    between atoms: C_15  and  O_16
REMARK    9  A    between atoms: O_16  and  C_18
REMARK   10  A    between atoms: C_20  and  N_21
REMARK                            x       y       z     vdW  Elec       q    Type
REMARK                         _______ _______ _______ _____ _____    ______ ____
ROOT
ATOM      1  C   UNL     1      34.337 -16.271 -22.836  0.00  0.00    -0.040 C 
ATOM      2  C   UNL     1      34.664 -17.059 -21.733  0.00  0.00    +0.031 C 
ATOM      3  C   UNL     1      33.886 -16.872 -24.012  0.00  0.00    -0.006 C 
ATOM      4  C   UNL     1      34.541 -18.446 -21.805  0.00  0.00    +0.138 C 
ATOM      5  C   UNL     1      33.763 -18.258 -24.084  0.00  0.00    +0.003 C 
ATOM      6  C   UNL     1      34.091 -19.046 -22.981  0.00  0.00    +0.037 C 
ENDROOT
BRANCH   4   7
ATOM      7  O   UNL     1      34.860 -19.214 -20.728  0.00  0.00    -0.475 OA
BRANCH   7   8
ATOM      8  C   UNL     1      33.851 -20.097 -20.239  0.00  0.00    +0.207 C 
BRANCH   8   9
ATOM      9  C   UNL     1      34.472 -21.023 -19.200  0.00  0.00    +0.069 C 
BRANCH   9  10
ATOM     10  C   UNL     1      33.852 -22.415 -19.204  0.00  0.00    +0.093 C 
BRANCH  10  12
ATOM     11  O   UNL     1      34.047 -23.219 -16.427  0.00  0.00    -0.271 OA
ATOM     12  N   UNL     1      32.778 -22.541 -18.256  0.00  0.00    -0.301 N 
ATOM     13  C   UNL     1      32.967 -22.936 -16.937  0.00  0.00    +0.267 C 
ATOM     14  H   UNL     1      31.863 -22.338 -18.557  0.00  0.00    +0.150 HD
BRANCH  13  15
ATOM     15  C   UNL     1      31.663 -22.981 -16.168  0.00  0.00    +0.292 C 
BRANCH  15  16
ATOM     16  O   UNL     1      30.647 -22.298 -16.868  0.00  0.00    -0.438 OA
BRANCH  16  18
ATOM     17  O   UNL     1      28.371 -21.909 -16.770  0.00  0.00    -0.250 OA
ATOM     18  C   UNL     1      29.430 -22.214 -16.239  0.00  0.00    +0.318 C 
ATOM     19  C   UNL     1      29.572 -22.554 -14.786  0.00  0.00    +0.121 C 
ENDBRANCH  16  18
ENDBRANCH  15  16
ENDBRANCH  13  15
ENDBRANCH  10  12
ENDBRANCH   9  10
ENDBRANCH   8   9
ENDBRANCH   7   8
ENDBRANCH   4   7
BRANCH   1  20
ATOM     20  C   UNL     1      34.469 -14.773 -22.759  0.00  0.00    -0.050 C 
BRANCH  20  21
ATOM     21  N   UNL     1      33.259 -14.146 -22.227  0.00  0.00    +0.390 N 
ATOM     22  C   UNL     1      33.326 -14.060 -20.762  0.00  0.00    -0.077 C 
ATOM     23  C   UNL     1      33.060 -12.820 -22.828  0.00  0.00    -0.077 C 
ATOM     24  C   UNL     1      32.046 -13.451 -20.185  0.00  0.00    -0.023 C 
ATOM     25  C   UNL     1      31.772 -12.171 -22.320  0.00  0.00    -0.023 C 
ATOM     26  C   UNL     1      31.757 -12.085 -20.798  0.00  0.00    -0.004 C 
ATOM     27  H   UNL     1      32.456 -14.725 -22.472  0.00  0.00    -0.079 HD
ENDBRANCH  20  21
ENDBRANCH   1  20
TORSDOF 10
ENDMDL
MODEL 4
REMARK VINA RESULT:     -10.2      2.853      4.692
REMARK  Name = 5105
REMARK  10 active torsions:
REMARK  status: ('A' for Active; 'I' for Inactive)
REMARK    1  A    between atoms: C_1  and  C_20
REMARK    2  A    between atoms: C_4  and  O_7
REMARK    3  A    between atoms: O_7  and  C_8
REMARK    4  A    between atoms: C_8  and  C_9
REMARK    5  A    between atoms: C_9  and  C_10
REMARK    6  A    between atoms: C_10  and  N_12
REMARK    7  A    between atoms: C_13  and  C_15
REMARK    8  A    between atoms: C_15  and  O_16
REMARK    9  A    between atoms: O_16  and  C_18
REMARK   10  A    between atoms: C_20  and  N_21
REMARK                            x       y       z     vdW  Elec       q    Type
REMARK                         _______ _______ _______ _____ _____    ______ ____
ROOT
ATOM      1  C   UNL     1      34.419 -19.836 -20.712  0.00  0.00    -0.040 C 
ATOM      2  C   UNL     1      35.174 -20.563 -19.792  0.00  0.00    +0.031 C 
ATOM      3  C   UNL     1      33.025 -19.869 -20.652  0.00  0.00    -0.006 C 
ATOM      4  C   UNL     1      34.536 -21.323 -18.812  0.00  0.00    +0.138 C 
ATOM      5  C   UNL     1      32.388 -20.629 -19.671  0.00  0.00    +0.003 C 
ATOM      6  C   UNL     1      33.143 -21.356 -18.751  0.00  0.00    +0.037 C 
ENDROOT
BRANCH   4   7
ATOM      7  O   UNL     1      35.272 -22.031 -17.913  0.00  0.00    -0.475 OA
BRANCH   7   8
ATOM      8  C   UNL     1      36.348 -21.347 -17.272  0.00  0.00    +0.207 C 
BRANCH   8   9
ATOM      9  C   UNL     1      36.387 -21.759 -15.806  0.00  0.00    +0.069 C 
BRANCH   9  10
ATOM     10  C   UNL     1      35.634 -23.055 -15.536  0.00  0.00    +0.093 C 
BRANCH  10  12
ATOM     11  O   UNL     1      34.013 -23.872 -13.278  0.00  0.00    -0.271 OA
ATOM     12  N   UNL     1      34.223 -22.844 -15.355  0.00  0.00    -0.301 N 
ATOM     13  C   UNL     1      33.525 -23.274 -14.232  0.00  0.00    +0.267 C 
ATOM     14  H   UNL     1      33.727 -22.372 -16.062  0.00  0.00    +0.150 HD
BRANCH  13  15
ATOM     15  C   UNL     1      32.056 -22.916 -14.309  0.00  0.00    +0.292 C 
BRANCH  15  16
ATOM     16  O   UNL     1      31.742 -22.361 -15.568  0.00  0.00    -0.438 OA
BRANCH  16  18
ATOM     17  O   UNL     1      29.953 -22.054 -16.997  0.00  0.00    -0.250 OA
ATOM     18  C   UNL     1      30.475 -22.602 -16.037  0.00  0.00    +0.318 C 
ATOM     19  C   UNL     1      29.802 -23.648 -15.201  0.00  0.00    +0.121 C 
ENDBRANCH  16  18
ENDBRANCH  15  16
ENDBRANCH  13  15
ENDBRANCH  10  12
ENDBRANCH   9  10
ENDBRANCH   8   9
ENDBRANCH   7   8
ENDBRANCH   4   7
BRANCH   1  20
ATOM     20  C   UNL     1      35.107 -19.015 -21.771  0.00  0.00    -0.050 C 
BRANCH  20  21
ATOM     21  N   UNL     1      34.414 -17.750 -22.015  0.00  0.00    +0.390 N 
ATOM     22  C   UNL     1      34.877 -16.720 -21.074  0.00  0.00    -0.077 C 
ATOM     23  C   UNL     1      34.603 -17.321 -23.407  0.00  0.00    -0.077 C 
ATOM     24  C   UNL     1      34.127 -15.404 -21.284  0.00  0.00    -0.023 C 
ATOM     25  C   UNL     1      33.844 -16.025 -23.694  0.00  0.00    -0.023 C 
ATOM     26  C   UNL     1      34.249 -14.920 -22.725  0.00  0.00    -0.004 C 
ATOM     27  H   UNL     1      33.415 -17.890 -21.862  0.00  0.00    -0.079 HD
ENDBRANCH  20  21
ENDBRANCH   1  20
TORSDOF 10
ENDMDL
MODEL 5
REMARK VINA RESULT:     -10.1      6.970     12.739
REMARK  Name = 5105
REMARK  10 active torsions:
REMARK  status: ('A' for Active; 'I' for Inactive)
REMARK    1  A    between atoms: C_1  and  C_20
REMARK    2  A    between atoms: C_4  and  O_7
REMARK    3  A    between atoms: O_7  and  C_8
REMARK    4  A    between atoms: C_8  and  C_9
REMARK    5  A    between atoms: C_9  and  C_10
REMARK    6  A    between atoms: C_10  and  N_12
REMARK    7  A    between atoms: C_13  and  C_15
REMARK    8  A    between atoms: C_15  and  O_16
REMARK    9  A    between atoms: O_16  and  C_18
REMARK   10  A    between atoms: C_20  and  N_21
REMARK                            x       y       z     vdW  Elec       q    Type
REMARK                         _______ _______ _______ _____ _____    ______ ____
ROOT
ATOM      1  C   UNL     1      34.992 -17.647 -21.856  0.00  0.00    -0.040 C 
ATOM      2  C   UNL     1      34.723 -16.623 -20.949  0.00  0.00    +0.031 C 
ATOM      3  C   UNL     1      34.756 -17.452 -23.218  0.00  0.00    -0.006 C 
ATOM      4  C   UNL     1      34.219 -15.404 -21.402  0.00  0.00    +0.138 C 
ATOM      5  C   UNL     1      34.252 -16.234 -23.670  0.00  0.00    +0.003 C 
ATOM      6  C   UNL     1      33.984 -15.209 -22.763  0.00  0.00    +0.037 C 
ENDROOT
BRANCH   4   7
ATOM      7  O   UNL     1      33.959 -14.404 -20.517  0.00  0.00    -0.475 OA
BRANCH   7   8
ATOM      8  C   UNL     1      33.720 -13.105 -21.056  0.00  0.00    +0.207 C 
BRANCH   8   9
ATOM      9  C   UNL     1      32.325 -12.650 -20.643  0.00  0.00    +0.069 C 
BRANCH   9  10
ATOM     10  C   UNL     1      31.454 -12.263 -21.830  0.00  0.00    +0.093 C 
BRANCH  10  12
ATOM     11  O   UNL     1      32.904 -10.224 -23.289  0.00  0.00    -0.271 OA
ATOM     12  N   UNL     1      31.171 -10.854 -21.870  0.00  0.00    -0.301 N 
ATOM     13  C   UNL     1      31.926  -9.945 -22.602  0.00  0.00    +0.267 C 
ATOM     14  H   UNL     1      30.405 -10.517 -21.352  0.00  0.00    +0.150 HD
BRANCH  13  15
ATOM     15  C   UNL     1      31.402  -8.532 -22.460  0.00  0.00    +0.292 C 
BRANCH  15  16
ATOM     16  O   UNL     1      31.046  -8.262 -21.122  0.00  0.00    -0.438 OA
BRANCH  16  18
ATOM     17  O   UNL     1      32.169  -7.694 -19.184  0.00  0.00    -0.250 OA
ATOM     18  C   UNL     1      31.964  -7.559 -20.382  0.00  0.00    +0.318 C 
ATOM     19  C   UNL     1      32.696  -6.584 -21.254  0.00  0.00    +0.121 C 
ENDBRANCH  16  18
ENDBRANCH  15  16
ENDBRANCH  13  15
ENDBRANCH  10  12
ENDBRANCH   9  10
ENDBRANCH   8   9
ENDBRANCH   7   8
ENDBRANCH   4   7
BRANCH   1  20
ATOM     20  C   UNL     1      35.537 -18.963 -21.368  0.00  0.00    -0.050 C 
BRANCH  20  21
ATOM     21  N   UNL     1      34.701 -19.542 -20.316  0.00  0.00    +0.390 N 
ATOM     22  C   UNL     1      33.351 -19.820 -20.826  0.00  0.00    -0.077 C 
ATOM     23  C   UNL     1      35.324 -20.757 -19.773  0.00  0.00    -0.077 C 
ATOM     24  C   UNL     1      32.449 -20.380 -19.725  0.00  0.00    -0.023 C 
ATOM     25  C   UNL     1      34.488 -21.347 -18.638  0.00  0.00    -0.023 C 
ATOM     26  C   UNL     1      33.058 -21.625 -19.089  0.00  0.00    -0.004 C 
ATOM     27  H   UNL     1      34.617 -18.866 -19.556  0.00  0.00    -0.079 HD
ENDBRANCH  20  21
ENDBRANCH   1  20
TORSDOF 10
ENDMDL
MODEL 6
REMARK VINA RESULT:     -10.0      2.820      4.689
REMARK  Name = 5105
REMARK  10 active torsions:
REMARK  status: ('A' for Active; 'I' for Inactive)
REMARK    1  A    between atoms: C_1  and  C_20
REMARK    2  A    between atoms: C_4  and  O_7
REMARK    3  A    between atoms: O_7  and  C_8
REMARK    4  A    between atoms: C_8  and  C_9
REMARK    5  A    between atoms: C_9  and  C_10
REMARK    6  A    between atoms: C_10  and  N_12
REMARK    7  A    between atoms: C_13  and  C_15
REMARK    8  A    between atoms: C_15  and  O_16
REMARK    9  A    between atoms: O_16  and  C_18
REMARK   10  A    between atoms: C_20  and  N_21
REMARK                            x       y       z     vdW  Elec       q    Type
REMARK                         _______ _______ _______ _____ _____    ______ ____
ROOT
ATOM      1  C   UNL     1      34.501 -16.571 -22.540  0.00  0.00    -0.040 C 
ATOM      2  C   UNL     1      34.906 -17.264 -21.400  0.00  0.00    +0.031 C 
ATOM      3  C   UNL     1      33.989 -17.269 -23.635  0.00  0.00    -0.006 C 
ATOM      4  C   UNL     1      34.799 -18.653 -21.353  0.00  0.00    +0.138 C 
ATOM      5  C   UNL     1      33.883 -18.658 -23.588  0.00  0.00    +0.003 C 
ATOM      6  C   UNL     1      34.288 -19.351 -22.447  0.00  0.00    +0.037 C 
ENDROOT
BRANCH   4   7
ATOM      7  O   UNL     1      35.193 -19.328 -20.240  0.00  0.00    -0.475 OA
BRANCH   7   8
ATOM      8  C   UNL     1      34.379 -20.423 -19.821  0.00  0.00    +0.207 C 
BRANCH   8   9
ATOM      9  C   UNL     1      35.278 -21.517 -19.258  0.00  0.00    +0.069 C 
BRANCH   9  10
ATOM     10  C   UNL     1      36.115 -21.044 -18.077  0.00  0.00    +0.093 C 
BRANCH  10  12
ATOM     11  O   UNL     1      37.961 -21.963 -16.042  0.00  0.00    -0.271 OA
ATOM     12  N   UNL     1      35.794 -21.741 -16.861  0.00  0.00    -0.301 N 
ATOM     13  C   UNL     1      36.751 -22.145 -15.938  0.00  0.00    +0.267 C 
ATOM     14  H   UNL     1      34.849 -21.941 -16.673  0.00  0.00    +0.150 HD
BRANCH  13  15
ATOM     15  C   UNL     1      36.130 -22.855 -14.753  0.00  0.00    +0.292 C 
BRANCH  15  16
ATOM     16  O   UNL     1      37.018 -22.869 -13.657  0.00  0.00    -0.438 OA
BRANCH  16  18
ATOM     17  O   UNL     1      38.888 -24.214 -13.478  0.00  0.00    -0.250 OA
ATOM     18  C   UNL     1      37.677 -24.051 -13.427  0.00  0.00    +0.318 C 
ATOM     19  C   UNL     1      36.697 -25.135 -13.097  0.00  0.00    +0.121 C 
ENDBRANCH  16  18
ENDBRANCH  15  16
ENDBRANCH  13  15
ENDBRANCH  10  12
ENDBRANCH   9  10
ENDBRANCH   8   9
ENDBRANCH   7   8
ENDBRANCH   4   7
BRANCH   1  20
ATOM     20  C   UNL     1      34.615 -15.070 -22.591  0.00  0.00    -0.050 C 
BRANCH  20  21
ATOM     21  N   UNL     1      33.393 -14.415 -22.126  0.00  0.00    +0.390 N 
ATOM     22  C   UNL     1      33.439 -14.213 -20.671  0.00  0.00    -0.077 C 
ATOM     23  C   UNL     1      33.191 -13.142 -22.832  0.00  0.00    -0.077 C 
ATOM     24  C   UNL     1      32.147 -13.573 -20.161  0.00  0.00    -0.023 C 
ATOM     25  C   UNL     1      31.891 -12.467 -22.393  0.00  0.00    -0.023 C 
ATOM     26  C   UNL     1      31.855 -12.262 -20.882  0.00  0.00    -0.004 C 
ATOM     27  H   UNL     1      32.598 -15.019 -22.334  0.00  0.00    -0.079 HD
ENDBRANCH  20  21
ENDBRANCH   1  20
TORSDOF 10
ENDMDL
MODEL 7
REMARK VINA RESULT:     -10.0      6.271     10.431
REMARK  Name = 5105
REMARK  10 active torsions:
REMARK  status: ('A' for Active; 'I' for Inactive)
REMARK    1  A    between atoms: C_1  and  C_20
REMARK    2  A    between atoms: C_4  and  O_7
REMARK    3  A    between atoms: O_7  and  C_8
REMARK    4  A    between atoms: C_8  and  C_9
REMARK    5  A    between atoms: C_9  and  C_10
REMARK    6  A    between atoms: C_10  and  N_12
REMARK    7  A    between atoms: C_13  and  C_15
REMARK    8  A    between atoms: C_15  and  O_16
REMARK    9  A    between atoms: O_16  and  C_18
REMARK   10  A    between atoms: C_20  and  N_21
REMARK                            x       y       z     vdW  Elec       q    Type
REMARK                         _______ _______ _______ _____ _____    ______ ____
ROOT
ATOM      1  C   UNL     1      32.111 -11.000 -22.443  0.00  0.00    -0.040 C 
ATOM      2  C   UNL     1      32.990 -11.936 -22.988  0.00  0.00    +0.031 C 
ATOM      3  C   UNL     1      31.496 -11.252 -21.216  0.00  0.00    -0.006 C 
ATOM      4  C   UNL     1      33.253 -13.124 -22.306  0.00  0.00    +0.138 C 
ATOM      5  C   UNL     1      31.760 -12.439 -20.536  0.00  0.00    +0.003 C 
ATOM      6  C   UNL     1      32.638 -13.376 -21.080  0.00  0.00    +0.037 C 
ENDROOT
BRANCH   4   7
ATOM      7  O   UNL     1      34.111 -14.037 -22.837  0.00  0.00    -0.475 OA
BRANCH   7   8
ATOM      8  C   UNL     1      33.590 -14.918 -23.831  0.00  0.00    +0.207 C 
BRANCH   8   9
ATOM      9  C   UNL     1      34.310 -16.256 -23.727  0.00  0.00    +0.069 C 
BRANCH   9  10
ATOM     10  C   UNL     1      34.874 -16.517 -22.337  0.00  0.00    +0.093 C 
BRANCH  10  12
ATOM     11  O   UNL     1      36.404 -18.116 -20.467  0.00  0.00    -0.271 OA
ATOM     12  N   UNL     1      34.555 -17.832 -21.851  0.00  0.00    -0.301 N 
ATOM     13  C   UNL     1      35.353 -18.527 -20.949  0.00  0.00    +0.267 C 
ATOM     14  H   UNL     1      33.731 -18.262 -22.173  0.00  0.00    +0.150 HD
BRANCH  13  15
ATOM     15  C   UNL     1      34.775 -19.886 -20.613  0.00  0.00    +0.292 C 
BRANCH  15  16
ATOM     16  O   UNL     1      33.366 -19.831 -20.567  0.00  0.00    -0.438 OA
BRANCH  16  18
ATOM     17  O   UNL     1      31.636 -20.430 -19.157  0.00  0.00    -0.250 OA
ATOM     18  C   UNL     1      32.762 -20.600 -19.603  0.00  0.00    +0.318 C 
ATOM     19  C   UNL     1      33.682 -21.697 -19.163  0.00  0.00    +0.121 C 
ENDBRANCH  16  18
ENDBRANCH  15  16
ENDBRANCH  13  15
ENDBRANCH  10  12
ENDBRANCH   9  10
ENDBRANCH   8   9
ENDBRANCH   7   8
ENDBRANCH   4   7
BRANCH   1  20
ATOM     20  C   UNL     1      31.826  -9.716 -23.179  0.00  0.00    -0.050 C 
BRANCH  20  21
ATOM     21  N   UNL     1      32.316  -8.549 -22.446  0.00  0.00    +0.390 N 
ATOM     22  C   UNL     1      33.216  -7.752 -23.290  0.00  0.00    -0.077 C 
ATOM     23  C   UNL     1      31.191  -7.740 -21.957  0.00  0.00    -0.077 C 
ATOM     24  C   UNL     1      33.776  -6.553 -22.522  0.00  0.00    -0.023 C 
ATOM     25  C   UNL     1      31.683  -6.541 -21.146  0.00  0.00    -0.023 C 
ATOM     26  C   UNL     1      32.657  -5.688 -21.952  0.00  0.00    -0.004 C 
ATOM     27  H   UNL     1      32.846  -8.870 -21.636  0.00  0.00    -0.079 HD
ENDBRANCH  20  21
ENDBRANCH   1  20
TORSDOF 10
ENDMDL
MODEL 8
REMARK VINA RESULT:     -10.0      6.799     12.401
REMARK  Name = 5105
REMARK  10 active torsions:
REMARK  status: ('A' for Active; 'I' for Inactive)
REMARK    1  A    between atoms: C_1  and  C_20
REMARK    2  A    between atoms: C_4  and  O_7
REMARK    3  A    between atoms: O_7  and  C_8
REMARK    4  A    between atoms: C_8  and  C_9
REMARK    5  A    between atoms: C_9  and  C_10
REMARK    6  A    between atoms: C_10  and  N_12
REMARK    7  A    between atoms: C_13  and  C_15
REMARK    8  A    between atoms: C_15  and  O_16
REMARK    9  A    between atoms: O_16  and  C_18
REMARK   10  A    between atoms: C_20  and  N_21
REMARK                            x       y       z     vdW  Elec       q    Type
REMARK                         _______ _______ _______ _____ _____    ______ ____
ROOT
ATOM      1  C   UNL     1      34.935 -18.249 -22.126  0.00  0.00    -0.040 C 
ATOM      2  C   UNL     1      35.053 -16.860 -22.087  0.00  0.00    +0.031 C 
ATOM      3  C   UNL     1      34.272 -18.862 -23.190  0.00  0.00    -0.006 C 
ATOM      4  C   UNL     1      34.509 -16.084 -23.109  0.00  0.00    +0.138 C 
ATOM      5  C   UNL     1      33.728 -18.086 -24.212  0.00  0.00    +0.003 C 
ATOM      6  C   UNL     1      33.846 -16.697 -24.173  0.00  0.00    +0.037 C 
ENDROOT
BRANCH   4   7
ATOM      7  O   UNL     1      34.625 -14.729 -23.071  0.00  0.00    -0.475 OA
BRANCH   7   8
ATOM      8  C   UNL     1      33.470 -13.988 -22.681  0.00  0.00    +0.207 C 
BRANCH   8   9
ATOM      9  C   UNL     1      33.543 -13.718 -21.184  0.00  0.00    +0.069 C 
BRANCH   9  10
ATOM     10  C   UNL     1      32.174 -13.478 -20.559  0.00  0.00    +0.093 C 
BRANCH  10  12
ATOM     11  O   UNL     1      31.656 -10.769 -19.674  0.00  0.00    -0.271 OA
ATOM     12  N   UNL     1      31.424 -12.465 -21.250  0.00  0.00    -0.301 N 
ATOM     13  C   UNL     1      31.226 -11.184 -20.746  0.00  0.00    +0.267 C 
ATOM     14  H   UNL     1      31.031 -12.688 -22.124  0.00  0.00    +0.150 HD
BRANCH  13  15
ATOM     15  C   UNL     1      30.401 -10.328 -21.683  0.00  0.00    +0.292 C 
BRANCH  15  16
ATOM     16  O   UNL     1      30.712  -8.962 -21.516  0.00  0.00    -0.438 OA
BRANCH  16  18
ATOM     17  O   UNL     1      32.362  -8.767 -23.121  0.00  0.00    -0.250 OA
ATOM     18  C   UNL     1      31.353  -8.355 -22.567  0.00  0.00    +0.318 C 
ATOM     19  C   UNL     1      30.638  -7.096 -22.953  0.00  0.00    +0.121 C 
ENDBRANCH  16  18
ENDBRANCH  15  16
ENDBRANCH  13  15
ENDBRANCH  10  12
ENDBRANCH   9  10
ENDBRANCH   8   9
ENDBRANCH   7   8
ENDBRANCH   4   7
BRANCH   1  20
ATOM     20  C   UNL     1      35.523 -19.087 -21.022  0.00  0.00    -0.050 C 
BRANCH  20  21
ATOM     21  N   UNL     1      34.611 -20.151 -20.602  0.00  0.00    +0.390 N 
ATOM     22  C   UNL     1      35.166 -20.880 -19.453  0.00  0.00    -0.077 C 
ATOM     23  C   UNL     1      33.285 -19.599 -20.291  0.00  0.00    -0.077 C 
ATOM     24  C   UNL     1      34.246 -22.028 -19.031  0.00  0.00    -0.023 C 
ATOM     25  C   UNL     1      32.305 -20.704 -19.898  0.00  0.00    -0.023 C 
ATOM     26  C   UNL     1      32.838 -21.529 -18.731  0.00  0.00    -0.004 C 
ATOM     27  H   UNL     1      34.504 -20.812 -21.371  0.00  0.00    -0.079 HD
ENDBRANCH  20  21
ENDBRANCH   1  20
TORSDOF 10
ENDMDL
MODEL 9
REMARK VINA RESULT:     -10.0      3.417      9.980
REMARK  Name = 5105
REMARK  10 active torsions:
REMARK  status: ('A' for Active; 'I' for Inactive)
REMARK    1  A    between atoms: C_1  and  C_20
REMARK    2  A    between atoms: C_4  and  O_7
REMARK    3  A    between atoms: O_7  and  C_8
REMARK    4  A    between atoms: C_8  and  C_9
REMARK    5  A    between atoms: C_9  and  C_10
REMARK    6  A    between atoms: C_10  and  N_12
REMARK    7  A    between atoms: C_13  and  C_15
REMARK    8  A    between atoms: C_15  and  O_16
REMARK    9  A    between atoms: O_16  and  C_18
REMARK   10  A    between atoms: C_20  and  N_21
REMARK                            x       y       z     vdW  Elec       q    Type
REMARK                         _______ _______ _______ _____ _____    ______ ____
ROOT
ATOM      1  C   UNL     1      34.277 -22.732 -15.354  0.00  0.00    -0.040 C 
ATOM      2  C   UNL     1      33.897 -22.495 -16.675  0.00  0.00    +0.031 C 
ATOM      3  C   UNL     1      33.305 -22.962 -14.379  0.00  0.00    -0.006 C 
ATOM      4  C   UNL     1      32.546 -22.488 -17.021  0.00  0.00    +0.138 C 
ATOM      5  C   UNL     1      31.955 -22.955 -14.726  0.00  0.00    +0.003 C 
ATOM      6  C   UNL     1      31.575 -22.718 -16.047  0.00  0.00    +0.037 C 
ENDROOT
BRANCH   4   7
ATOM      7  O   UNL     1      32.175 -22.259 -18.310  0.00  0.00    -0.475 OA
BRANCH   7   8
ATOM      8  C   UNL     1      33.219 -22.037 -19.257  0.00  0.00    +0.207 C 
BRANCH   8   9
ATOM      9  C   UNL     1      33.121 -20.605 -19.769  0.00  0.00    +0.069 C 
BRANCH   9  10
ATOM     10  C   UNL     1      34.437 -20.088 -20.335  0.00  0.00    +0.093 C 
BRANCH  10  12
ATOM     11  O   UNL     1      36.442 -18.011 -20.577  0.00  0.00    -0.271 OA
ATOM     12  N   UNL     1      34.295 -18.813 -20.982  0.00  0.00    -0.301 N 
ATOM     13  C   UNL     1      35.318 -17.873 -21.050  0.00  0.00    +0.267 C 
ATOM     14  H   UNL     1      33.431 -18.593 -21.398  0.00  0.00    +0.150 HD
BRANCH  13  15
ATOM     15  C   UNL     1      34.889 -16.623 -21.789  0.00  0.00    +0.292 C 
BRANCH  15  16
ATOM     16  O   UNL     1      34.295 -16.954 -23.026  0.00  0.00    -0.438 OA
BRANCH  16  18
ATOM     17  O   UNL     1      34.075 -16.050 -25.140  0.00  0.00    -0.250 OA
ATOM     18  C   UNL     1      34.161 -15.927 -23.926  0.00  0.00    +0.318 C 
ATOM     19  C   UNL     1      34.133 -14.610 -23.212  0.00  0.00    +0.121 C 
ENDBRANCH  16  18
ENDBRANCH  15  16
ENDBRANCH  13  15
ENDBRANCH  10  12
ENDBRANCH   9  10
ENDBRANCH   8   9
ENDBRANCH   7   8
ENDBRANCH   4   7
BRANCH   1  20
ATOM     20  C   UNL     1      35.736 -22.740 -14.980  0.00  0.00    -0.050 C 
BRANCH  20  21
ATOM     21  N   UNL     1      36.031 -23.748 -13.962  0.00  0.00    +0.390 N 
ATOM     22  C   UNL     1      36.568 -24.966 -14.585  0.00  0.00    -0.077 C 
ATOM     23  C   UNL     1      36.961 -23.210 -12.959  0.00  0.00    -0.077 C 
ATOM     24  C   UNL     1      36.837 -26.049 -13.538  0.00  0.00    -0.023 C 
ATOM     25  C   UNL     1      37.242 -24.235 -11.860  0.00  0.00    -0.023 C 
ATOM     26  C   UNL     1      37.767 -25.543 -12.442  0.00  0.00    -0.004 C 
ATOM     27  H   UNL     1      35.164 -23.996 -13.485  0.00  0.00    -0.079 HD
ENDBRANCH  20  21
ENDBRANCH   1  20
TORSDOF 10
ENDMDL
