MODEL 1
REMARK VINA RESULT:     -11.3      0.000      0.000
REMARK  Name = 5272139
REMARK  10 active torsions:
REMARK  status: ('A' for Active; 'I' for Inactive)
REMARK    1  A    between atoms: O_1  and  C_3
REMARK    2  A    between atoms: O_1  and  C_14
REMARK    3  A    between atoms: C_2  and  C_12
REMARK    4  A    between atoms: C_14  and  C_15
REMARK    5  A    between atoms: C_15  and  C_16
REMARK    6  A    between atoms: C_16  and  C_17
REMARK    7  A    between atoms: C_17  and  C_18
REMARK    8  A    between atoms: C_18  and  C_19
REMARK    9  A    between atoms: C_19  and  C_20
REMARK   10  A    between atoms: C_20  and  C_23
REMARK                            x       y       z     vdW  Elec       q    Type
REMARK                         _______ _______ _______ _____ _____    ______ ____
ROOT
ATOM      1  O   UNL     1      33.529 -23.022 -17.963  0.00  0.00    -0.475 OA
ENDROOT
BRANCH   1   3
ATOM      2  C   UNL     1      34.179 -19.748 -20.446  0.00  0.00    +0.053 C 
ATOM      3  C   UNL     1      33.743 -21.945 -18.783  0.00  0.00    +0.139 C 
ATOM      4  C   UNL     1      35.263 -20.445 -19.913  0.00  0.00    +0.008 C 
ATOM      5  C   UNL     1      32.877 -20.148 -20.147  0.00  0.00    +0.008 C 
ATOM      6  C   UNL     1      35.045 -21.543 -19.082  0.00  0.00    +0.037 C 
ATOM      7  C   UNL     1      32.659 -21.247 -19.316  0.00  0.00    +0.037 C 
BRANCH   2  12
ATOM      8  O   UNL     1      34.239 -18.838 -22.643  0.00  0.00    -0.458 OA
ATOM      9  N   UNL     1      34.741 -17.396 -20.940  0.00  0.00    -0.236 NA
ATOM     10  C   UNL     1      34.927 -16.674 -22.209  0.00  0.00    +0.150 C 
ATOM     11  C   UNL     1      34.262 -17.553 -23.249  0.00  0.00    +0.231 C 
ATOM     12  C   UNL     1      34.410 -18.590 -21.322  0.00  0.00    +0.220 C 
ATOM     13  C   UNL     1      34.320 -15.286 -22.119  0.00  0.00    +0.030 C 
ENDBRANCH   2  12
ENDBRANCH   1   3
BRANCH   1  14
ATOM     14  C   UNL     1      32.863 -22.768 -16.734  0.00  0.00    +0.205 C 
BRANCH  14  15
ATOM     15  C   UNL     1      33.883 -22.804 -15.605  0.00  0.00    +0.047 C 
BRANCH  15  16
ATOM     16  C   UNL     1      33.244 -23.213 -14.279  0.00  0.00    +0.004 C 
BRANCH  16  17
ATOM     17  C   UNL     1      31.733 -22.975 -14.293  0.00  0.00    +0.000 C 
BRANCH  17  18
ATOM     18  C   UNL     1      30.974 -24.191 -13.756  0.00  0.00    +0.000 C 
BRANCH  18  19
ATOM     19  C   UNL     1      29.463 -24.032 -13.953  0.00  0.00    +0.008 C 
BRANCH  19  20
ATOM     20  C   UNL     1      28.974 -24.542 -15.313  0.00  0.00    +0.067 C 
BRANCH  20  23
ATOM     21  O   UNL     1      27.599 -23.948 -17.238  0.00  0.00    -0.358 OA
ATOM     22  N   UNL     1      26.735 -22.975 -17.724  0.00  0.00    -0.082 NA
ATOM     23  C   UNL     1      28.020 -23.594 -15.997  0.00  0.00    +0.154 C 
ATOM     24  C   UNL     1      27.452 -22.400 -15.641  0.00  0.00    +0.054 C 
ATOM     25  C   UNL     1      26.662 -22.061 -16.753  0.00  0.00    +0.101 C 
ATOM     26  C   UNL     1      25.818 -20.868 -16.931  0.00  0.00    +0.056 C 
ENDBRANCH  20  23
ENDBRANCH  19  20
ENDBRANCH  18  19
ENDBRANCH  17  18
ENDBRANCH  16  17
ENDBRANCH  15  16
ENDBRANCH  14  15
ENDBRANCH   1  14
TORSDOF 10
ENDMDL
MODEL 2
REMARK VINA RESULT:     -11.1      3.670      6.212
REMARK  Name = 5272139
REMARK  10 active torsions:
REMARK  status: ('A' for Active; 'I' for Inactive)
REMARK    1  A    between atoms: O_1  and  C_3
REMARK    2  A    between atoms: O_1  and  C_14
REMARK    3  A    between atoms: C_2  and  C_12
REMARK    4  A    between atoms: C_14  and  C_15
REMARK    5  A    between atoms: C_15  and  C_16
REMARK    6  A    between atoms: C_16  and  C_17
REMARK    7  A    between atoms: C_17  and  C_18
REMARK    8  A    between atoms: C_18  and  C_19
REMARK    9  A    between atoms: C_19  and  C_20
REMARK   10  A    between atoms: C_20  and  C_23
REMARK                            x       y       z     vdW  Elec       q    Type
REMARK                         _______ _______ _______ _____ _____    ______ ____
ROOT
ATOM      1  O   UNL     1      33.851 -22.914 -18.111  0.00  0.00    -0.475 OA
ENDROOT
BRANCH   1   3
ATOM      2  C   UNL     1      34.316 -19.570 -20.542  0.00  0.00    +0.053 C 
ATOM      3  C   UNL     1      34.004 -21.814 -18.914  0.00  0.00    +0.139 C 
ATOM      4  C   UNL     1      35.439 -20.233 -20.046  0.00  0.00    +0.008 C 
ATOM      5  C   UNL     1      33.038 -20.028 -20.223  0.00  0.00    +0.008 C 
ATOM      6  C   UNL     1      35.283 -21.355 -19.232  0.00  0.00    +0.037 C 
ATOM      7  C   UNL     1      32.882 -21.150 -19.410  0.00  0.00    +0.037 C 
BRANCH   2  12
ATOM      8  O   UNL     1      34.332 -18.625 -22.725  0.00  0.00    -0.458 OA
ATOM      9  N   UNL     1      34.739 -17.182 -20.998  0.00  0.00    -0.236 NA
ATOM     10  C   UNL     1      34.888 -16.431 -22.255  0.00  0.00    +0.150 C 
ATOM     11  C   UNL     1      34.281 -17.333 -23.311  0.00  0.00    +0.231 C 
ATOM     12  C   UNL     1      34.481 -18.387 -21.399  0.00  0.00    +0.220 C 
ATOM     13  C   UNL     1      34.199 -15.084 -22.149  0.00  0.00    +0.030 C 
ENDBRANCH   2  12
ENDBRANCH   1   3
BRANCH   1  14
ATOM     14  C   UNL     1      32.875 -22.825 -17.082  0.00  0.00    +0.205 C 
BRANCH  14  15
ATOM     15  C   UNL     1      33.566 -22.974 -15.734  0.00  0.00    +0.047 C 
BRANCH  15  16
ATOM     16  C   UNL     1      32.580 -22.832 -14.576  0.00  0.00    +0.004 C 
BRANCH  16  17
ATOM     17  C   UNL     1      32.958 -23.743 -13.408  0.00  0.00    +0.000 C 
BRANCH  17  18
ATOM     18  C   UNL     1      34.442 -24.113 -13.448  0.00  0.00    +0.000 C 
BRANCH  18  19
ATOM     19  C   UNL     1      35.136 -23.763 -12.128  0.00  0.00    +0.008 C 
BRANCH  19  20
ATOM     20  C   UNL     1      36.099 -24.853 -11.644  0.00  0.00    +0.067 C 
BRANCH  20  23
ATOM     21  O   UNL     1      37.141 -26.432 -13.185  0.00  0.00    -0.358 OA
ATOM     22  N   UNL     1      38.194 -26.574 -14.080  0.00  0.00    -0.082 NA
ATOM     23  C   UNL     1      37.176 -25.185 -12.648  0.00  0.00    +0.154 C 
ATOM     24  C   UNL     1      38.234 -24.488 -13.168  0.00  0.00    +0.054 C 
ATOM     25  C   UNL     1      38.832 -25.401 -14.054  0.00  0.00    +0.101 C 
ATOM     26  C   UNL     1      40.019 -25.193 -14.899  0.00  0.00    +0.056 C 
ENDBRANCH  20  23
ENDBRANCH  19  20
ENDBRANCH  18  19
ENDBRANCH  17  18
ENDBRANCH  16  17
ENDBRANCH  15  16
ENDBRANCH  14  15
ENDBRANCH   1  14
TORSDOF 10
ENDMDL
MODEL 3
REMARK VINA RESULT:     -11.0      5.291      8.509
REMARK  Name = 5272139
REMARK  10 active torsions:
REMARK  status: ('A' for Active; 'I' for Inactive)
REMARK    1  A    between atoms: O_1  and  C_3
REMARK    2  A    between atoms: O_1  and  C_14
REMARK    3  A    between atoms: C_2  and  C_12
REMARK    4  A    between atoms: C_14  and  C_15
REMARK    5  A    between atoms: C_15  and  C_16
REMARK    6  A    between atoms: C_16  and  C_17
REMARK    7  A    between atoms: C_17  and  C_18
REMARK    8  A    between atoms: C_18  and  C_19
REMARK    9  A    between atoms: C_19  and  C_20
REMARK   10  A    between atoms: C_20  and  C_23
REMARK                            x       y       z     vdW  Elec       q    Type
REMARK                         _______ _______ _______ _____ _____    ______ ____
ROOT
ATOM      1  O   UNL     1      34.945 -16.055 -22.544  0.00  0.00    -0.475 OA
ENDROOT
BRANCH   1   3
ATOM      2  C   UNL     1      32.664 -12.608 -22.078  0.00  0.00    +0.053 C 
ATOM      3  C   UNL     1      34.192 -14.921 -22.391  0.00  0.00    +0.139 C 
ATOM      4  C   UNL     1      33.000 -13.054 -23.356  0.00  0.00    +0.008 C 
ATOM      5  C   UNL     1      33.092 -13.318 -20.956  0.00  0.00    +0.008 C 
ATOM      6  C   UNL     1      33.763 -14.210 -23.512  0.00  0.00    +0.037 C 
ATOM      7  C   UNL     1      33.856 -14.474 -21.113  0.00  0.00    +0.037 C 
BRANCH   2  12
ATOM      8  O   UNL     1      31.164 -11.323 -20.752  0.00  0.00    -0.458 OA
ATOM      9  N   UNL     1      31.776 -10.408 -22.757  0.00  0.00    -0.236 NA
ATOM     10  C   UNL     1      30.781  -9.515 -22.142  0.00  0.00    +0.150 C 
ATOM     11  C   UNL     1      30.683  -9.987 -20.705  0.00  0.00    +0.231 C 
ATOM     12  C   UNL     1      31.859 -11.389 -21.914  0.00  0.00    +0.220 C 
ATOM     13  C   UNL     1      31.221  -8.069 -22.269  0.00  0.00    +0.030 C 
ENDBRANCH   2  12
ENDBRANCH   1   3
BRANCH   1  14
ATOM     14  C   UNL     1      34.314 -17.163 -23.171  0.00  0.00    +0.205 C 
BRANCH  14  15
ATOM     15  C   UNL     1      34.648 -18.426 -22.390  0.00  0.00    +0.047 C 
BRANCH  15  16
ATOM     16  C   UNL     1      35.758 -18.182 -21.370  0.00  0.00    +0.004 C 
BRANCH  16  17
ATOM     17  C   UNL     1      36.032 -19.434 -20.535  0.00  0.00    +0.000 C 
BRANCH  17  18
ATOM     18  C   UNL     1      34.737 -20.184 -20.215  0.00  0.00    +0.000 C 
BRANCH  18  19
ATOM     19  C   UNL     1      34.957 -21.224 -19.112  0.00  0.00    +0.008 C 
BRANCH  19  20
ATOM     20  C   UNL     1      36.138 -20.890 -18.194  0.00  0.00    +0.067 C 
BRANCH  20  23
ATOM     21  O   UNL     1      35.132 -22.561 -16.728  0.00  0.00    -0.358 OA
ATOM     22  N   UNL     1      35.359 -23.306 -15.578  0.00  0.00    -0.082 NA
ATOM     23  C   UNL     1      36.212 -21.775 -16.973  0.00  0.00    +0.154 C 
ATOM     24  C   UNL     1      37.160 -21.979 -16.006  0.00  0.00    +0.054 C 
ATOM     25  C   UNL     1      36.576 -22.941 -15.164  0.00  0.00    +0.101 C 
ATOM     26  C   UNL     1      37.148 -23.544 -13.949  0.00  0.00    +0.056 C 
ENDBRANCH  20  23
ENDBRANCH  19  20
ENDBRANCH  18  19
ENDBRANCH  17  18
ENDBRANCH  16  17
ENDBRANCH  15  16
ENDBRANCH  14  15
ENDBRANCH   1  14
TORSDOF 10
ENDMDL
MODEL 4
REMARK VINA RESULT:     -11.0      3.686      7.327
REMARK  Name = 5272139
REMARK  10 active torsions:
REMARK  status: ('A' for Active; 'I' for Inactive)
REMARK    1  A    between atoms: O_1  and  C_3
REMARK    2  A    between atoms: O_1  and  C_14
REMARK    3  A    between atoms: C_2  and  C_12
REMARK    4  A    between atoms: C_14  and  C_15
REMARK    5  A    between atoms: C_15  and  C_16
REMARK    6  A    between atoms: C_16  and  C_17
REMARK    7  A    between atoms: C_17  and  C_18
REMARK    8  A    between atoms: C_18  and  C_19
REMARK    9  A    between atoms: C_19  and  C_20
REMARK   10  A    between atoms: C_20  and  C_23
REMARK                            x       y       z     vdW  Elec       q    Type
REMARK                         _______ _______ _______ _____ _____    ______ ____
ROOT
ATOM      1  O   UNL     1      34.672 -16.462 -22.122  0.00  0.00    -0.475 OA
ENDROOT
BRANCH   1   3
ATOM      2  C   UNL     1      32.902 -12.704 -22.352  0.00  0.00    +0.053 C 
ATOM      3  C   UNL     1      34.086 -15.225 -22.198  0.00  0.00    +0.139 C 
ATOM      4  C   UNL     1      33.152 -13.429 -23.517  0.00  0.00    +0.008 C 
ATOM      5  C   UNL     1      33.243 -13.239 -21.110  0.00  0.00    +0.008 C 
ATOM      6  C   UNL     1      33.745 -14.689 -23.440  0.00  0.00    +0.037 C 
ATOM      7  C   UNL     1      33.835 -14.499 -21.033  0.00  0.00    +0.037 C 
BRANCH   2  12
ATOM      8  O   UNL     1      31.201 -11.206 -21.629  0.00  0.00    -0.458 OA
ATOM      9  N   UNL     1      32.669 -10.392 -23.182  0.00  0.00    -0.236 NA
ATOM     10  C   UNL     1      31.650  -9.357 -22.942  0.00  0.00    +0.150 C 
ATOM     11  C   UNL     1      30.934  -9.812 -21.687  0.00  0.00    +0.231 C 
ATOM     12  C   UNL     1      32.277 -11.375 -22.435  0.00  0.00    +0.220 C 
ATOM     13  C   UNL     1      32.305  -7.996 -22.798  0.00  0.00    +0.030 C 
ENDBRANCH   2  12
ENDBRANCH   1   3
BRANCH   1  14
ATOM     14  C   UNL     1      34.394 -17.368 -23.180  0.00  0.00    +0.205 C 
BRANCH  14  15
ATOM     15  C   UNL     1      34.807 -18.768 -22.751  0.00  0.00    +0.047 C 
BRANCH  15  16
ATOM     16  C   UNL     1      35.357 -18.782 -21.326  0.00  0.00    +0.004 C 
BRANCH  16  17
ATOM     17  C   UNL     1      34.766 -19.934 -20.512  0.00  0.00    +0.000 C 
BRANCH  17  18
ATOM     18  C   UNL     1      35.804 -20.532 -19.559  0.00  0.00    +0.000 C 
BRANCH  18  19
ATOM     19  C   UNL     1      35.147 -21.465 -18.538  0.00  0.00    +0.008 C 
BRANCH  19  20
ATOM     20  C   UNL     1      33.817 -22.052 -19.024  0.00  0.00    +0.067 C 
BRANCH  20  23
ATOM     21  O   UNL     1      31.595 -21.765 -18.060  0.00  0.00    -0.358 OA
ATOM     22  N   UNL     1      30.818 -22.083 -16.953  0.00  0.00    -0.082 NA
ATOM     23  C   UNL     1      32.833 -22.301 -17.908  0.00  0.00    +0.154 C 
ATOM     24  C   UNL     1      32.900 -22.974 -16.717  0.00  0.00    +0.054 C 
ATOM     25  C   UNL     1      31.619 -22.805 -16.165  0.00  0.00    +0.101 C 
ATOM     26  C   UNL     1      31.114 -23.319 -14.881  0.00  0.00    +0.056 C 
ENDBRANCH  20  23
ENDBRANCH  19  20
ENDBRANCH  18  19
ENDBRANCH  17  18
ENDBRANCH  16  17
ENDBRANCH  15  16
ENDBRANCH  14  15
ENDBRANCH   1  14
TORSDOF 10
ENDMDL
MODEL 5
REMARK VINA RESULT:     -11.0      5.588      8.014
REMARK  Name = 5272139
REMARK  10 active torsions:
REMARK  status: ('A' for Active; 'I' for Inactive)
REMARK    1  A    between atoms: O_1  and  C_3
REMARK    2  A    between atoms: O_1  and  C_14
REMARK    3  A    between atoms: C_2  and  C_12
REMARK    4  A    between atoms: C_14  and  C_15
REMARK    5  A    between atoms: C_15  and  C_16
REMARK    6  A    between atoms: C_16  and  C_17
REMARK    7  A    between atoms: C_17  and  C_18
REMARK    8  A    between atoms: C_18  and  C_19
REMARK    9  A    between atoms: C_19  and  C_20
REMARK   10  A    between atoms: C_20  and  C_23
REMARK                            x       y       z     vdW  Elec       q    Type
REMARK                         _______ _______ _______ _____ _____    ______ ____
ROOT
ATOM      1  O   UNL     1      35.202 -17.653 -22.478  0.00  0.00    -0.475 OA
ENDROOT
BRANCH   1   3
ATOM      2  C   UNL     1      33.447 -13.887 -22.269  0.00  0.00    +0.053 C 
ATOM      3  C   UNL     1      34.626 -16.412 -22.409  0.00  0.00    +0.139 C 
ATOM      4  C   UNL     1      33.778 -14.568 -21.098  0.00  0.00    +0.008 C 
ATOM      5  C   UNL     1      33.706 -14.468 -23.510  0.00  0.00    +0.008 C 
ATOM      6  C   UNL     1      34.367 -15.830 -21.168  0.00  0.00    +0.037 C 
ATOM      7  C   UNL     1      34.295 -15.730 -23.580  0.00  0.00    +0.037 C 
BRANCH   2  12
ATOM      8  O   UNL     1      33.234 -11.688 -23.151  0.00  0.00    -0.458 OA
ATOM      9  N   UNL     1      31.946 -12.172 -21.324  0.00  0.00    -0.236 NA
ATOM     10  C   UNL     1      31.743 -10.752 -21.652  0.00  0.00    +0.150 C 
ATOM     11  C   UNL     1      32.337 -10.592 -23.037  0.00  0.00    +0.231 C 
ATOM     12  C   UNL     1      32.825 -12.557 -22.194  0.00  0.00    +0.220 C 
ATOM     13  C   UNL     1      30.269 -10.401 -21.588  0.00  0.00    +0.030 C 
ENDBRANCH   2  12
ENDBRANCH   1   3
BRANCH   1  14
ATOM     14  C   UNL     1      36.352 -17.871 -21.673  0.00  0.00    +0.205 C 
BRANCH  14  15
ATOM     15  C   UNL     1      36.159 -19.153 -20.875  0.00  0.00    +0.047 C 
BRANCH  15  16
ATOM     16  C   UNL     1      34.695 -19.590 -20.856  0.00  0.00    +0.004 C 
BRANCH  16  17
ATOM     17  C   UNL     1      34.420 -20.565 -19.710  0.00  0.00    +0.000 C 
BRANCH  17  18
ATOM     18  C   UNL     1      35.723 -21.108 -19.117  0.00  0.00    +0.000 C 
BRANCH  18  19
ATOM     19  C   UNL     1      35.518 -21.589 -17.677  0.00  0.00    +0.008 C 
BRANCH  19  20
ATOM     20  C   UNL     1      36.700 -21.266 -16.758  0.00  0.00    +0.067 C 
BRANCH  20  23
ATOM     21  O   UNL     1      38.324 -22.670 -15.599  0.00  0.00    -0.358 OA
ATOM     22  N   UNL     1      38.438 -23.701 -14.676  0.00  0.00    -0.082 NA
ATOM     23  C   UNL     1      37.012 -22.371 -15.778  0.00  0.00    +0.154 C 
ATOM     24  C   UNL     1      36.242 -23.184 -14.989  0.00  0.00    +0.054 C 
ATOM     25  C   UNL     1      37.182 -23.991 -14.325  0.00  0.00    +0.101 C 
ATOM     26  C   UNL     1      36.921 -25.057 -13.343  0.00  0.00    +0.056 C 
ENDBRANCH  20  23
ENDBRANCH  19  20
ENDBRANCH  18  19
ENDBRANCH  17  18
ENDBRANCH  16  17
ENDBRANCH  15  16
ENDBRANCH  14  15
ENDBRANCH   1  14
TORSDOF 10
ENDMDL
MODEL 6
REMARK VINA RESULT:     -10.9      5.251     11.267
REMARK  Name = 5272139
REMARK  10 active torsions:
REMARK  status: ('A' for Active; 'I' for Inactive)
REMARK    1  A    between atoms: O_1  and  C_3
REMARK    2  A    between atoms: O_1  and  C_14
REMARK    3  A    between atoms: C_2  and  C_12
REMARK    4  A    between atoms: C_14  and  C_15
REMARK    5  A    between atoms: C_15  and  C_16
REMARK    6  A    between atoms: C_16  and  C_17
REMARK    7  A    between atoms: C_17  and  C_18
REMARK    8  A    between atoms: C_18  and  C_19
REMARK    9  A    between atoms: C_19  and  C_20
REMARK   10  A    between atoms: C_20  and  C_23
REMARK                            x       y       z     vdW  Elec       q    Type
REMARK                         _______ _______ _______ _____ _____    ______ ____
ROOT
ATOM      1  O   UNL     1      34.078 -15.597 -24.034  0.00  0.00    -0.475 OA
ENDROOT
BRANCH   1   3
ATOM      2  C   UNL     1      34.548 -18.763 -21.376  0.00  0.00    +0.053 C 
ATOM      3  C   UNL     1      34.235 -16.641 -23.159  0.00  0.00    +0.139 C 
ATOM      4  C   UNL     1      34.076 -19.001 -22.667  0.00  0.00    +0.008 C 
ATOM      5  C   UNL     1      34.863 -17.465 -20.976  0.00  0.00    +0.008 C 
ATOM      6  C   UNL     1      33.920 -17.940 -23.558  0.00  0.00    +0.037 C 
ATOM      7  C   UNL     1      34.706 -16.404 -21.868  0.00  0.00    +0.037 C 
BRANCH   2  12
ATOM      8  O   UNL     1      35.937 -19.962 -19.861  0.00  0.00    -0.458 OA
ATOM      9  N   UNL     1      33.808 -20.756 -20.124  0.00  0.00    -0.236 NA
ATOM     10  C   UNL     1      34.526 -21.682 -19.232  0.00  0.00    +0.150 C 
ATOM     11  C   UNL     1      35.781 -20.931 -18.835  0.00  0.00    +0.231 C 
ATOM     12  C   UNL     1      34.712 -19.882 -20.437  0.00  0.00    +0.220 C 
ATOM     13  C   UNL     1      33.653 -22.058 -18.049  0.00  0.00    +0.030 C 
ENDBRANCH   2  12
ENDBRANCH   1   3
BRANCH   1  14
ATOM     14  C   UNL     1      34.123 -14.288 -23.484  0.00  0.00    +0.205 C 
BRANCH  14  15
ATOM     15  C   UNL     1      32.924 -13.499 -23.991  0.00  0.00    +0.047 C 
BRANCH  15  16
ATOM     16  C   UNL     1      32.347 -12.591 -22.907  0.00  0.00    +0.004 C 
BRANCH  16  17
ATOM     17  C   UNL     1      32.729 -13.080 -21.509  0.00  0.00    +0.000 C 
BRANCH  17  18
ATOM     18  C   UNL     1      31.784 -12.516 -20.445  0.00  0.00    +0.000 C 
BRANCH  18  19
ATOM     19  C   UNL     1      31.280 -11.123 -20.835  0.00  0.00    +0.008 C 
BRANCH  19  20
ATOM     20  C   UNL     1      31.245 -10.142 -19.658  0.00  0.00    +0.067 C 
BRANCH  20  23
ATOM     21  O   UNL     1      31.998  -7.903 -19.050  0.00  0.00    -0.358 OA
ATOM     22  N   UNL     1      32.276  -6.647 -19.576  0.00  0.00    -0.082 NA
ATOM     23  C   UNL     1      31.593  -8.727 -20.050  0.00  0.00    +0.154 C 
ATOM     24  C   UNL     1      31.596  -8.046 -21.239  0.00  0.00    +0.054 C 
ATOM     25  C   UNL     1      32.029  -6.757 -20.884  0.00  0.00    +0.101 C 
ATOM     26  C   UNL     1      32.223  -5.595 -21.767  0.00  0.00    +0.056 C 
ENDBRANCH  20  23
ENDBRANCH  19  20
ENDBRANCH  18  19
ENDBRANCH  17  18
ENDBRANCH  16  17
ENDBRANCH  15  16
ENDBRANCH  14  15
ENDBRANCH   1  14
TORSDOF 10
ENDMDL
MODEL 7
REMARK VINA RESULT:     -10.7      4.589      9.618
REMARK  Name = 5272139
REMARK  10 active torsions:
REMARK  status: ('A' for Active; 'I' for Inactive)
REMARK    1  A    between atoms: O_1  and  C_3
REMARK    2  A    between atoms: O_1  and  C_14
REMARK    3  A    between atoms: C_2  and  C_12
REMARK    4  A    between atoms: C_14  and  C_15
REMARK    5  A    between atoms: C_15  and  C_16
REMARK    6  A    between atoms: C_16  and  C_17
REMARK    7  A    between atoms: C_17  and  C_18
REMARK    8  A    between atoms: C_18  and  C_19
REMARK    9  A    between atoms: C_19  and  C_20
REMARK   10  A    between atoms: C_20  and  C_23
REMARK                            x       y       z     vdW  Elec       q    Type
REMARK                         _______ _______ _______ _____ _____    ______ ____
ROOT
ATOM      1  O   UNL     1      35.149 -20.883 -19.310  0.00  0.00    -0.475 OA
ENDROOT
BRANCH   1   3
ATOM      2  C   UNL     1      35.831 -22.427 -15.508  0.00  0.00    +0.053 C 
ATOM      3  C   UNL     1      35.374 -21.393 -18.058  0.00  0.00    +0.139 C 
ATOM      4  C   UNL     1      34.620 -22.674 -16.153  0.00  0.00    +0.008 C 
ATOM      5  C   UNL     1      36.815 -21.664 -16.137  0.00  0.00    +0.008 C 
ATOM      6  C   UNL     1      34.392 -22.157 -17.428  0.00  0.00    +0.037 C 
ATOM      7  C   UNL     1      36.586 -21.147 -17.412  0.00  0.00    +0.037 C 
BRANCH   2  12
ATOM      8  O   UNL     1      37.214 -22.540 -13.574  0.00  0.00    -0.458 OA
ATOM      9  N   UNL     1      35.300 -23.792 -13.522  0.00  0.00    -0.236 NA
ATOM     10  C   UNL     1      36.054 -24.073 -12.290  0.00  0.00    +0.150 C 
ATOM     11  C   UNL     1      37.105 -22.982 -12.229  0.00  0.00    +0.231 C 
ATOM     12  C   UNL     1      36.072 -22.971 -14.163  0.00  0.00    +0.220 C 
ATOM     13  C   UNL     1      35.123 -24.075 -11.091  0.00  0.00    +0.030 C 
ENDBRANCH   2  12
ENDBRANCH   1   3
BRANCH   1  14
ATOM     14  C   UNL     1      33.796 -20.634 -19.666  0.00  0.00    +0.205 C 
BRANCH  14  15
ATOM     15  C   UNL     1      33.761 -19.577 -20.760  0.00  0.00    +0.047 C 
BRANCH  15  16
ATOM     16  C   UNL     1      35.133 -18.940 -20.974  0.00  0.00    +0.004 C 
BRANCH  16  17
ATOM     17  C   UNL     1      35.370 -18.608 -22.448  0.00  0.00    +0.000 C 
BRANCH  17  18
ATOM     18  C   UNL     1      34.051 -18.542 -23.222  0.00  0.00    +0.000 C 
BRANCH  18  19
ATOM     19  C   UNL     1      33.856 -17.167 -23.867  0.00  0.00    +0.008 C 
BRANCH  19  20
ATOM     20  C   UNL     1      34.809 -16.100 -23.316  0.00  0.00    +0.067 C 
BRANCH  20  23
ATOM     21  O   UNL     1      34.386 -15.421 -21.012  0.00  0.00    -0.358 OA
ATOM     22  N   UNL     1      33.713 -14.483 -20.240  0.00  0.00    -0.082 NA
ATOM     23  C   UNL     1      34.152 -15.170 -22.326  0.00  0.00    +0.154 C 
ATOM     24  C   UNL     1      33.334 -14.078 -22.448  0.00  0.00    +0.054 C 
ATOM     25  C   UNL     1      33.093 -13.691 -21.119  0.00  0.00    +0.101 C 
ATOM     26  C   UNL     1      32.272 -12.566 -20.642  0.00  0.00    +0.056 C 
ENDBRANCH  20  23
ENDBRANCH  19  20
ENDBRANCH  18  19
ENDBRANCH  17  18
ENDBRANCH  16  17
ENDBRANCH  15  16
ENDBRANCH  14  15
ENDBRANCH   1  14
TORSDOF 10
ENDMDL
MODEL 8
REMARK VINA RESULT:     -10.7      3.846     10.038
REMARK  Name = 5272139
REMARK  10 active torsions:
REMARK  status: ('A' for Active; 'I' for Inactive)
REMARK    1  A    between atoms: O_1  and  C_3
REMARK    2  A    between atoms: O_1  and  C_14
REMARK    3  A    between atoms: C_2  and  C_12
REMARK    4  A    between atoms: C_14  and  C_15
REMARK    5  A    between atoms: C_15  and  C_16
REMARK    6  A    between atoms: C_16  and  C_17
REMARK    7  A    between atoms: C_17  and  C_18
REMARK    8  A    between atoms: C_18  and  C_19
REMARK    9  A    between atoms: C_19  and  C_20
REMARK   10  A    between atoms: C_20  and  C_23
REMARK                            x       y       z     vdW  Elec       q    Type
REMARK                         _______ _______ _______ _____ _____    ______ ____
ROOT
ATOM      1  O   UNL     1      35.378 -19.065 -21.880  0.00  0.00    -0.475 OA
ENDROOT
BRANCH   1   3
ATOM      2  C   UNL     1      33.558 -21.291 -18.874  0.00  0.00    +0.053 C 
ATOM      3  C   UNL     1      34.779 -19.796 -20.888  0.00  0.00    +0.139 C 
ATOM      4  C   UNL     1      34.943 -21.334 -19.032  0.00  0.00    +0.008 C 
ATOM      5  C   UNL     1      32.783 -20.502 -19.723  0.00  0.00    +0.008 C 
ATOM      6  C   UNL     1      35.553 -20.586 -20.039  0.00  0.00    +0.037 C 
ATOM      7  C   UNL     1      33.394 -19.754 -20.730  0.00  0.00    +0.037 C 
BRANCH   2  12
ATOM      8  O   UNL     1      33.771 -22.796 -17.043  0.00  0.00    -0.458 OA
ATOM      9  N   UNL     1      31.645 -22.132 -17.562  0.00  0.00    -0.236 NA
ATOM     10  C   UNL     1      31.553 -23.124 -16.479  0.00  0.00    +0.150 C 
ATOM     11  C   UNL     1      32.972 -23.256 -15.963  0.00  0.00    +0.231 C 
ATOM     12  C   UNL     1      32.915 -22.080 -17.813  0.00  0.00    +0.220 C 
ATOM     13  C   UNL     1      30.572 -22.658 -15.419  0.00  0.00    +0.030 C 
ENDBRANCH   2  12
ENDBRANCH   1   3
BRANCH   1  14
ATOM     14  C   UNL     1      34.535 -18.221 -22.652  0.00  0.00    +0.205 C 
BRANCH  14  15
ATOM     15  C   UNL     1      34.742 -16.779 -22.208  0.00  0.00    +0.047 C 
BRANCH  15  16
ATOM     16  C   UNL     1      34.479 -15.795 -23.346  0.00  0.00    +0.004 C 
BRANCH  16  17
ATOM     17  C   UNL     1      34.010 -14.440 -22.814  0.00  0.00    +0.000 C 
BRANCH  17  18
ATOM     18  C   UNL     1      33.849 -14.466 -21.293  0.00  0.00    +0.000 C 
BRANCH  18  19
ATOM     19  C   UNL     1      33.502 -13.077 -20.749  0.00  0.00    +0.008 C 
BRANCH  19  20
ATOM     20  C   UNL     1      31.994 -12.826 -20.649  0.00  0.00    +0.067 C 
BRANCH  20  23
ATOM     21  O   UNL     1      31.132 -10.628 -20.035  0.00  0.00    -0.358 OA
ATOM     22  N   UNL     1      30.812  -9.379 -20.553  0.00  0.00    -0.082 NA
ATOM     23  C   UNL     1      31.597 -11.422 -21.034  0.00  0.00    +0.154 C 
ATOM     24  C   UNL     1      31.595 -10.727 -22.214  0.00  0.00    +0.054 C 
ATOM     25  C   UNL     1      31.097  -9.462 -21.855  0.00  0.00    +0.101 C 
ATOM     26  C   UNL     1      30.877  -8.298 -22.730  0.00  0.00    +0.056 C 
ENDBRANCH  20  23
ENDBRANCH  19  20
ENDBRANCH  18  19
ENDBRANCH  17  18
ENDBRANCH  16  17
ENDBRANCH  15  16
ENDBRANCH  14  15
ENDBRANCH   1  14
TORSDOF 10
ENDMDL
MODEL 9
REMARK VINA RESULT:     -10.7      1.442      2.461
REMARK  Name = 5272139
REMARK  10 active torsions:
REMARK  status: ('A' for Active; 'I' for Inactive)
REMARK    1  A    between atoms: O_1  and  C_3
REMARK    2  A    between atoms: O_1  and  C_14
REMARK    3  A    between atoms: C_2  and  C_12
REMARK    4  A    between atoms: C_14  and  C_15
REMARK    5  A    between atoms: C_15  and  C_16
REMARK    6  A    between atoms: C_16  and  C_17
REMARK    7  A    between atoms: C_17  and  C_18
REMARK    8  A    between atoms: C_18  and  C_19
REMARK    9  A    between atoms: C_19  and  C_20
REMARK   10  A    between atoms: C_20  and  C_23
REMARK                            x       y       z     vdW  Elec       q    Type
REMARK                         _______ _______ _______ _____ _____    ______ ____
ROOT
ATOM      1  O   UNL     1      35.564 -21.262 -19.588  0.00  0.00    -0.475 OA
ENDROOT
BRANCH   1   3
ATOM      2  C   UNL     1      34.776 -17.874 -21.870  0.00  0.00    +0.053 C 
ATOM      3  C   UNL     1      35.304 -20.144 -20.338  0.00  0.00    +0.139 C 
ATOM      4  C   UNL     1      33.795 -18.852 -21.714  0.00  0.00    +0.008 C 
ATOM      5  C   UNL     1      36.021 -18.030 -21.262  0.00  0.00    +0.008 C 
ATOM      6  C   UNL     1      34.059 -19.988 -20.947  0.00  0.00    +0.037 C 
ATOM      7  C   UNL     1      36.285 -19.165 -20.496  0.00  0.00    +0.037 C 
BRANCH   2  12
ATOM      8  O   UNL     1      34.167 -16.931 -23.968  0.00  0.00    -0.458 OA
ATOM      9  N   UNL     1      34.534 -15.450 -22.265  0.00  0.00    -0.236 NA
ATOM     10  C   UNL     1      34.268 -14.673 -23.486  0.00  0.00    +0.150 C 
ATOM     11  C   UNL     1      33.706 -15.683 -24.466  0.00  0.00    +0.231 C 
ATOM     12  C   UNL     1      34.498 -16.678 -22.679  0.00  0.00    +0.220 C 
ATOM     13  C   UNL     1      33.312 -13.533 -23.187  0.00  0.00    +0.030 C 
ENDBRANCH   2  12
ENDBRANCH   1   3
BRANCH   1  14
ATOM     14  C   UNL     1      34.844 -21.398 -18.371  0.00  0.00    +0.205 C 
BRANCH  14  15
ATOM     15  C   UNL     1      33.741 -22.429 -18.565  0.00  0.00    +0.047 C 
BRANCH  15  16
ATOM     16  C   UNL     1      32.426 -21.973 -17.935  0.00  0.00    +0.004 C 
BRANCH  16  17
ATOM     17  C   UNL     1      32.079 -22.812 -16.703  0.00  0.00    +0.000 C 
BRANCH  17  18
ATOM     18  C   UNL     1      30.691 -22.459 -16.164  0.00  0.00    +0.000 C 
BRANCH  18  19
ATOM     19  C   UNL     1      30.349 -23.295 -14.927  0.00  0.00    +0.008 C 
BRANCH  19  20
ATOM     20  C   UNL     1      28.972 -23.963 -15.011  0.00  0.00    +0.067 C 
BRANCH  20  23
ATOM     21  O   UNL     1      27.740 -23.662 -17.094  0.00  0.00    -0.358 OA
ATOM     22  N   UNL     1      26.817 -22.839 -17.726  0.00  0.00    -0.082 NA
ATOM     23  C   UNL     1      27.983 -23.187 -15.846  0.00  0.00    +0.154 C 
ATOM     24  C   UNL     1      27.239 -22.058 -15.629  0.00  0.00    +0.054 C 
ATOM     25  C   UNL     1      26.532 -21.888 -16.832  0.00  0.00    +0.101 C 
ATOM     26  C   UNL     1      25.569 -20.827 -17.171  0.00  0.00    +0.056 C 
ENDBRANCH  20  23
ENDBRANCH  19  20
ENDBRANCH  18  19
ENDBRANCH  17  18
ENDBRANCH  16  17
ENDBRANCH  15  16
ENDBRANCH  14  15
ENDBRANCH   1  14
TORSDOF 10
ENDMDL
