MODEL 1
REMARK VINA RESULT:     -11.7      0.000      0.000
REMARK  Name = 4369491
REMARK  2 active torsions:
REMARK  status: ('A' for Active; 'I' for Inactive)
REMARK    1  A    between atoms: C_10  and  C_21
REMARK    2  A    between atoms: C_17  and  O_27
REMARK                            x       y       z     vdW  Elec       q    Type
REMARK                         _______ _______ _______ _____ _____    ______ ____
ROOT
ATOM      1  O   UNL     1      31.181 -22.527 -16.641  0.00  0.00    -0.270 OA
ATOM      2  O   UNL     1      33.470 -24.330 -13.080  0.00  0.00    -0.270 OA
ATOM      3  N   UNL     1      36.078 -21.298 -18.147  0.00  0.00    -0.353 N 
ATOM      4  N   UNL     1      31.998 -23.541 -14.708  0.00  0.00    -0.248 N 
ATOM      5  C   UNL     1      34.191 -21.993 -17.169  0.00  0.00    +0.022 A 
ATOM      6  C   UNL     1      33.511 -22.630 -16.124  0.00  0.00    +0.060 C 
ATOM      7  C   UNL     1      35.589 -21.952 -17.043  0.00  0.00    +0.057 A 
ATOM      8  C   UNL     1      33.858 -21.333 -18.399  0.00  0.00    +0.020 A 
ATOM      9  C   UNL     1      34.199 -23.179 -15.043  0.00  0.00    +0.058 C 
ATOM     10  C   UNL     1      35.571 -23.133 -14.929  0.00  0.00    +0.006 C 
ATOM     11  C   UNL     1      35.057 -20.912 -18.981  0.00  0.00    +0.057 A 
ATOM     12  C   UNL     1      36.290 -22.506 -15.949  0.00  0.00    +0.017 C 
ATOM     13  C   UNL     1      32.085 -22.867 -15.904  0.00  0.00    +0.252 C 
ATOM     14  C   UNL     1      33.222 -23.766 -14.128  0.00  0.00    +0.252 C 
ATOM     15  C   UNL     1      32.658 -21.043 -19.086  0.00  0.00    +0.038 C 
ATOM     16  C   UNL     1      35.116 -20.226 -20.201  0.00  0.00    +0.020 C 
ATOM     17  C   UNL     1      32.701 -20.357 -20.306  0.00  0.00    +0.134 C 
ATOM     18  C   UNL     1      33.914 -19.955 -20.855  0.00  0.00    +0.038 C 
ATOM     19  H   UNL     1      37.032 -21.128 -18.318  0.00  0.00    +0.166 HD
ATOM     20  H   UNL     1      31.146 -23.831 -14.309  0.00  0.00    +0.158 HD
ENDROOT
BRANCH  10  21
ATOM     21  C   UNL     1      36.282 -23.702 -13.806  0.00  0.00    +0.000 C 
ATOM     22  C   UNL     1      36.561 -22.918 -12.686  0.00  0.00    +0.000 C 
ATOM     23  C   UNL     1      36.691 -25.036 -13.842  0.00  0.00    +0.000 C 
ATOM     24  C   UNL     1      37.248 -23.467 -11.604  0.00  0.00    +0.000 C 
ATOM     25  C   UNL     1      37.377 -25.585 -12.759  0.00  0.00    +0.000 C 
ATOM     26  C   UNL     1      37.656 -24.799 -11.640  0.00  0.00    +0.000 C 
ENDBRANCH  10  21
BRANCH  17  27
ATOM     27  O   UNL     1      31.538 -20.082 -20.963  0.00  0.00    -0.506 OA
ATOM     28  H   UNL     1      31.504 -20.136 -21.897  0.00  0.00    +0.292 HD
ENDBRANCH  17  27
TORSDOF 2
ENDMDL
MODEL 2
REMARK VINA RESULT:     -11.6      2.599      6.957
REMARK  Name = 4369491
REMARK  2 active torsions:
REMARK  status: ('A' for Active; 'I' for Inactive)
REMARK    1  A    between atoms: C_10  and  C_21
REMARK    2  A    between atoms: C_17  and  O_27
REMARK                            x       y       z     vdW  Elec       q    Type
REMARK                         _______ _______ _______ _____ _____    ______ ____
ROOT
ATOM      1  O   UNL     1      35.787 -22.364 -17.157  0.00  0.00    -0.270 OA
ATOM      2  O   UNL     1      31.242 -21.943 -17.734  0.00  0.00    -0.270 OA
ATOM      3  N   UNL     1      34.212 -24.503 -12.606  0.00  0.00    -0.353 N 
ATOM      4  N   UNL     1      33.573 -21.994 -17.783  0.00  0.00    -0.248 N 
ATOM      5  C   UNL     1      34.464 -23.546 -14.611  0.00  0.00    +0.022 A 
ATOM      6  C   UNL     1      33.935 -22.971 -15.774  0.00  0.00    +0.060 C 
ATOM      7  C   UNL     1      33.517 -23.972 -13.665  0.00  0.00    +0.057 A 
ATOM      8  C   UNL     1      35.761 -23.844 -14.075  0.00  0.00    +0.020 A 
ATOM      9  C   UNL     1      32.560 -22.841 -15.955  0.00  0.00    +0.058 C 
ATOM     10  C   UNL     1      31.640 -23.262 -15.020  0.00  0.00    +0.006 C 
ATOM     11  C   UNL     1      35.566 -24.439 -12.826  0.00  0.00    +0.057 A 
ATOM     12  C   UNL     1      32.122 -23.842 -13.844  0.00  0.00    +0.017 C 
ATOM     13  C   UNL     1      34.589 -22.421 -16.961  0.00  0.00    +0.252 C 
ATOM     14  C   UNL     1      32.326 -22.209 -17.252  0.00  0.00    +0.252 C 
ATOM     15  C   UNL     1      37.091 -23.670 -14.519  0.00  0.00    +0.038 C 
ATOM     16  C   UNL     1      36.621 -24.864 -12.008  0.00  0.00    +0.020 C 
ATOM     17  C   UNL     1      38.157 -24.090 -13.713  0.00  0.00    +0.134 C 
ATOM     18  C   UNL     1      37.923 -24.679 -12.475  0.00  0.00    +0.038 C 
ATOM     19  H   UNL     1      33.796 -24.880 -11.798  0.00  0.00    +0.166 HD
ATOM     20  H   UNL     1      33.725 -21.577 -18.661  0.00  0.00    +0.158 HD
ENDROOT
BRANCH  10  21
ATOM     21  C   UNL     1      30.213 -23.125 -15.209  0.00  0.00    +0.000 C 
ATOM     22  C   UNL     1      29.559 -21.969 -14.782  0.00  0.00    +0.000 C 
ATOM     23  C   UNL     1      29.488 -24.150 -15.819  0.00  0.00    +0.000 C 
ATOM     24  C   UNL     1      28.183 -21.838 -14.964  0.00  0.00    +0.000 C 
ATOM     25  C   UNL     1      28.112 -24.018 -16.002  0.00  0.00    +0.000 C 
ATOM     26  C   UNL     1      27.459 -22.862 -15.574  0.00  0.00    +0.000 C 
ENDBRANCH  10  21
BRANCH  17  27
ATOM     27  O   UNL     1      39.436 -23.919 -14.149  0.00  0.00    -0.506 OA
ATOM     28  H   UNL     1      39.738 -24.378 -14.908  0.00  0.00    +0.292 HD
ENDBRANCH  17  27
TORSDOF 2
ENDMDL
MODEL 3
REMARK VINA RESULT:     -11.5      1.703      7.203
REMARK  Name = 4369491
REMARK  2 active torsions:
REMARK  status: ('A' for Active; 'I' for Inactive)
REMARK    1  A    between atoms: C_10  and  C_21
REMARK    2  A    between atoms: C_17  and  O_27
REMARK                            x       y       z     vdW  Elec       q    Type
REMARK                         _______ _______ _______ _____ _____    ______ ____
ROOT
ATOM      1  O   UNL     1      32.011 -22.851 -16.786  0.00  0.00    -0.270 OA
ATOM      2  O   UNL     1      31.947 -20.180 -20.532  0.00  0.00    -0.270 OA
ATOM      3  N   UNL     1      37.142 -21.673 -17.003  0.00  0.00    -0.353 N 
ATOM      4  N   UNL     1      31.605 -21.568 -18.688  0.00  0.00    -0.248 N 
ATOM      5  C   UNL     1      34.936 -21.930 -17.260  0.00  0.00    +0.022 A 
ATOM      6  C   UNL     1      33.740 -21.677 -17.944  0.00  0.00    +0.060 C 
ATOM      7  C   UNL     1      36.079 -21.317 -17.797  0.00  0.00    +0.057 A 
ATOM      8  C   UNL     1      35.357 -22.673 -16.107  0.00  0.00    +0.020 A 
ATOM      9  C   UNL     1      33.714 -20.868 -19.079  0.00  0.00    +0.058 C 
ATOM     10  C   UNL     1      34.842 -20.272 -19.597  0.00  0.00    +0.006 C 
ATOM     11  C   UNL     1      36.736 -22.491 -15.978  0.00  0.00    +0.057 A 
ATOM     12  C   UNL     1      36.058 -20.497 -18.946  0.00  0.00    +0.017 C 
ATOM     13  C   UNL     1      32.372 -22.129 -17.694  0.00  0.00    +0.252 C 
ATOM     14  C   UNL     1      32.336 -20.799 -19.560  0.00  0.00    +0.252 C 
ATOM     15  C   UNL     1      34.710 -23.489 -15.151  0.00  0.00    +0.038 C 
ATOM     16  C   UNL     1      37.492 -23.076 -14.954  0.00  0.00    +0.020 C 
ATOM     17  C   UNL     1      35.453 -24.081 -14.122  0.00  0.00    +0.134 C 
ATOM     18  C   UNL     1      36.824 -23.876 -14.026  0.00  0.00    +0.038 C 
ATOM     19  H   UNL     1      38.070 -21.382 -17.150  0.00  0.00    +0.166 HD
ATOM     20  H   UNL     1      30.634 -21.704 -18.768  0.00  0.00    +0.158 HD
ENDROOT
BRANCH  10  21
ATOM     21  C   UNL     1      34.813 -19.434 -20.775  0.00  0.00    +0.000 C 
ATOM     22  C   UNL     1      34.452 -19.975 -22.009  0.00  0.00    +0.000 C 
ATOM     23  C   UNL     1      35.147 -18.082 -20.679  0.00  0.00    +0.000 C 
ATOM     24  C   UNL     1      34.424 -19.167 -23.145  0.00  0.00    +0.000 C 
ATOM     25  C   UNL     1      35.119 -17.273 -21.815  0.00  0.00    +0.000 C 
ATOM     26  C   UNL     1      34.758 -17.817 -23.048  0.00  0.00    +0.000 C 
ENDBRANCH  10  21
BRANCH  17  27
ATOM     27  O   UNL     1      34.821 -24.866 -13.205  0.00  0.00    -0.506 OA
ATOM     28  H   UNL     1      34.429 -25.675 -13.470  0.00  0.00    +0.292 HD
ENDBRANCH  17  27
TORSDOF 2
ENDMDL
MODEL 4
REMARK VINA RESULT:     -11.2      1.759      2.781
REMARK  Name = 4369491
REMARK  2 active torsions:
REMARK  status: ('A' for Active; 'I' for Inactive)
REMARK    1  A    between atoms: C_10  and  C_21
REMARK    2  A    between atoms: C_17  and  O_27
REMARK                            x       y       z     vdW  Elec       q    Type
REMARK                         _______ _______ _______ _____ _____    ______ ____
ROOT
ATOM      1  O   UNL     1      32.008 -21.599 -19.866  0.00  0.00    -0.270 OA
ATOM      2  O   UNL     1      33.418 -23.562 -15.951  0.00  0.00    -0.270 OA
ATOM      3  N   UNL     1      36.788 -19.404 -19.560  0.00  0.00    -0.353 N 
ATOM      4  N   UNL     1      32.383 -22.765 -17.883  0.00  0.00    -0.248 N 
ATOM      5  C   UNL     1      34.869 -20.528 -19.326  0.00  0.00    +0.022 A 
ATOM      6  C   UNL     1      34.044 -21.420 -18.629  0.00  0.00    +0.060 C 
ATOM      7  C   UNL     1      36.126 -20.291 -18.747  0.00  0.00    +0.057 A 
ATOM      8  C   UNL     1      34.802 -19.743 -20.525  0.00  0.00    +0.020 A 
ATOM      9  C   UNL     1      34.466 -22.017 -17.443  0.00  0.00    +0.058 C 
ATOM     10  C   UNL     1      35.701 -21.778 -16.884  0.00  0.00    +0.006 C 
ATOM     11  C   UNL     1      36.013 -19.055 -20.639  0.00  0.00    +0.057 A 
ATOM     12  C   UNL     1      36.558 -20.895 -17.545  0.00  0.00    +0.017 C 
ATOM     13  C   UNL     1      32.694 -21.906 -18.911  0.00  0.00    +0.252 C 
ATOM     14  C   UNL     1      33.393 -22.886 -16.961  0.00  0.00    +0.252 C 
ATOM     15  C   UNL     1      33.833 -19.538 -21.534  0.00  0.00    +0.038 C 
ATOM     16  C   UNL     1      36.302 -18.185 -21.698  0.00  0.00    +0.020 C 
ATOM     17  C   UNL     1      34.108 -18.670 -22.599  0.00  0.00    +0.134 C 
ATOM     18  C   UNL     1      35.326 -18.004 -22.678  0.00  0.00    +0.038 C 
ATOM     19  H   UNL     1      37.696 -19.063 -19.392  0.00  0.00    +0.166 HD
ATOM     20  H   UNL     1      31.526 -23.243 -17.815  0.00  0.00    +0.158 HD
ENDROOT
BRANCH  10  21
ATOM     21  C   UNL     1      36.137 -22.399 -15.653  0.00  0.00    +0.000 C 
ATOM     22  C   UNL     1      35.395 -22.229 -14.483  0.00  0.00    +0.000 C 
ATOM     23  C   UNL     1      37.301 -23.169 -15.633  0.00  0.00    +0.000 C 
ATOM     24  C   UNL     1      35.815 -22.827 -13.296  0.00  0.00    +0.000 C 
ATOM     25  C   UNL     1      37.720 -23.769 -14.445  0.00  0.00    +0.000 C 
ATOM     26  C   UNL     1      36.977 -23.597 -13.277  0.00  0.00    +0.000 C 
ENDBRANCH  10  21
BRANCH  17  27
ATOM     27  O   UNL     1      33.169 -18.480 -23.568  0.00  0.00    -0.506 OA
ATOM     28  H   UNL     1      32.442 -19.066 -23.638  0.00  0.00    +0.292 HD
ENDBRANCH  17  27
TORSDOF 2
ENDMDL
MODEL 5
REMARK VINA RESULT:     -10.7      2.263      4.627
REMARK  Name = 4369491
REMARK  2 active torsions:
REMARK  status: ('A' for Active; 'I' for Inactive)
REMARK    1  A    between atoms: C_10  and  C_21
REMARK    2  A    between atoms: C_17  and  O_27
REMARK                            x       y       z     vdW  Elec       q    Type
REMARK                         _______ _______ _______ _____ _____    ______ ____
ROOT
ATOM      1  O   UNL     1      32.439 -22.074 -17.851  0.00  0.00    -0.270 OA
ATOM      2  O   UNL     1      36.513 -22.461 -15.748  0.00  0.00    -0.270 OA
ATOM      3  N   UNL     1      30.810 -24.352 -13.388  0.00  0.00    -0.353 N 
ATOM      4  N   UNL     1      34.644 -22.106 -17.098  0.00  0.00    -0.248 N 
ATOM      5  C   UNL     1      31.888 -23.411 -15.107  0.00  0.00    +0.022 A 
ATOM      6  C   UNL     1      33.063 -22.961 -15.723  0.00  0.00    +0.060 C 
ATOM      7  C   UNL     1      32.054 -23.973 -13.830  0.00  0.00    +0.057 A 
ATOM      8  C   UNL     1      30.489 -23.469 -15.416  0.00  0.00    +0.020 A 
ATOM      9  C   UNL     1      34.300 -23.076 -15.090  0.00  0.00    +0.058 C 
ATOM     10  C   UNL     1      34.451 -23.628 -13.838  0.00  0.00    +0.006 C 
ATOM     11  C   UNL     1      29.848 -24.061 -14.324  0.00  0.00    +0.057 A 
ATOM     12  C   UNL     1      33.305 -24.091 -13.186  0.00  0.00    +0.017 C 
ATOM     13  C   UNL     1      33.290 -22.333 -17.023  0.00  0.00    +0.252 C 
ATOM     14  C   UNL     1      35.321 -22.524 -15.979  0.00  0.00    +0.252 C 
ATOM     15  C   UNL     1      29.689 -23.081 -16.515  0.00  0.00    +0.038 C 
ATOM     16  C   UNL     1      28.465 -24.281 -14.276  0.00  0.00    +0.020 C 
ATOM     17  C   UNL     1      28.306 -23.294 -16.481  0.00  0.00    +0.134 C 
ATOM     18  C   UNL     1      27.703 -23.885 -15.377  0.00  0.00    +0.038 C 
ATOM     19  H   UNL     1      30.631 -24.775 -12.518  0.00  0.00    +0.166 HD
ATOM     20  H   UNL     1      35.083 -21.688 -17.873  0.00  0.00    +0.158 HD
ENDROOT
BRANCH  10  21
ATOM     21  C   UNL     1      35.735 -23.747 -13.184  0.00  0.00    +0.000 C 
ATOM     22  C   UNL     1      36.181 -22.736 -12.332  0.00  0.00    +0.000 C 
ATOM     23  C   UNL     1      36.530 -24.873 -13.405  0.00  0.00    +0.000 C 
ATOM     24  C   UNL     1      37.419 -22.850 -11.702  0.00  0.00    +0.000 C 
ATOM     25  C   UNL     1      37.768 -24.987 -12.773  0.00  0.00    +0.000 C 
ATOM     26  C   UNL     1      38.213 -23.975 -11.923  0.00  0.00    +0.000 C 
ENDBRANCH  10  21
BRANCH  17  27
ATOM     27  O   UNL     1      27.542 -22.916 -17.545  0.00  0.00    -0.506 OA
ATOM     28  H   UNL     1      26.658 -22.637 -17.412  0.00  0.00    +0.292 HD
ENDBRANCH  17  27
TORSDOF 2
ENDMDL
MODEL 6
REMARK VINA RESULT:     -10.6      1.368      6.793
REMARK  Name = 4369491
REMARK  2 active torsions:
REMARK  status: ('A' for Active; 'I' for Inactive)
REMARK    1  A    between atoms: C_10  and  C_21
REMARK    2  A    between atoms: C_17  and  O_27
REMARK                            x       y       z     vdW  Elec       q    Type
REMARK                         _______ _______ _______ _____ _____    ______ ____
ROOT
ATOM      1  O   UNL     1      32.693 -24.281 -14.072  0.00  0.00    -0.270 OA
ATOM      2  O   UNL     1      31.593 -21.939 -17.876  0.00  0.00    -0.270 OA
ATOM      3  N   UNL     1      37.543 -22.834 -15.539  0.00  0.00    -0.353 N 
ATOM      4  N   UNL     1      31.777 -23.186 -15.913  0.00  0.00    -0.248 N 
ATOM      5  C   UNL     1      35.361 -23.237 -15.264  0.00  0.00    +0.022 A 
ATOM      6  C   UNL     1      34.026 -23.110 -15.672  0.00  0.00    +0.060 C 
ATOM      7  C   UNL     1      36.306 -22.607 -16.090  0.00  0.00    +0.057 A 
ATOM      8  C   UNL     1      36.083 -23.856 -14.191  0.00  0.00    +0.020 A 
ATOM      9  C   UNL     1      33.687 -22.402 -16.823  0.00  0.00    +0.058 C 
ATOM     10  C   UNL     1      34.622 -21.788 -17.626  0.00  0.00    +0.006 C 
ATOM     11  C   UNL     1      37.439 -23.586 -14.394  0.00  0.00    +0.057 A 
ATOM     12  C   UNL     1      35.966 -21.888 -17.257  0.00  0.00    +0.017 C 
ATOM     13  C   UNL     1      32.787 -23.617 -15.085  0.00  0.00    +0.252 C 
ATOM     14  C   UNL     1      32.234 -22.451 -16.979  0.00  0.00    +0.252 C 
ATOM     15  C   UNL     1      35.730 -24.626 -13.059  0.00  0.00    +0.038 C 
ATOM     16  C   UNL     1      38.447 -24.040 -13.533  0.00  0.00    +0.020 C 
ATOM     17  C   UNL     1      36.726 -25.086 -12.189  0.00  0.00    +0.134 C 
ATOM     18  C   UNL     1      38.065 -24.796 -12.424  0.00  0.00    +0.038 C 
ATOM     19  H   UNL     1      38.391 -22.504 -15.914  0.00  0.00    +0.166 HD
ATOM     20  H   UNL     1      30.826 -23.383 -15.758  0.00  0.00    +0.158 HD
ENDROOT
BRANCH  10  21
ATOM     21  C   UNL     1      34.268 -21.054 -18.820  0.00  0.00    +0.000 C 
ATOM     22  C   UNL     1      35.266 -20.501 -19.622  0.00  0.00    +0.000 C 
ATOM     23  C   UNL     1      32.926 -20.898 -19.171  0.00  0.00    +0.000 C 
ATOM     24  C   UNL     1      34.925 -19.793 -20.774  0.00  0.00    +0.000 C 
ATOM     25  C   UNL     1      32.584 -20.191 -20.324  0.00  0.00    +0.000 C 
ATOM     26  C   UNL     1      33.584 -19.637 -21.125  0.00  0.00    +0.000 C 
ENDBRANCH  10  21
BRANCH  17  27
ATOM     27  O   UNL     1      36.377 -25.827 -11.100  0.00  0.00    -0.506 OA
ATOM     28  H   UNL     1      36.838 -25.719 -10.292  0.00  0.00    +0.292 HD
ENDBRANCH  17  27
TORSDOF 2
ENDMDL
MODEL 7
REMARK VINA RESULT:     -10.6      2.620      4.469
REMARK  Name = 4369491
REMARK  2 active torsions:
REMARK  status: ('A' for Active; 'I' for Inactive)
REMARK    1  A    between atoms: C_10  and  C_21
REMARK    2  A    between atoms: C_17  and  O_27
REMARK                            x       y       z     vdW  Elec       q    Type
REMARK                         _______ _______ _______ _____ _____    ______ ____
ROOT
ATOM      1  O   UNL     1      36.672 -21.799 -17.098  0.00  0.00    -0.270 OA
ATOM      2  O   UNL     1      33.929 -23.912 -14.068  0.00  0.00    -0.270 OA
ATOM      3  N   UNL     1      32.038 -20.796 -19.396  0.00  0.00    -0.353 N 
ATOM      4  N   UNL     1      35.604 -22.953 -15.378  0.00  0.00    -0.248 N 
ATOM      5  C   UNL     1      33.770 -21.424 -18.128  0.00  0.00    +0.022 A 
ATOM      6  C   UNL     1      34.300 -22.069 -17.004  0.00  0.00    +0.060 C 
ATOM      7  C   UNL     1      32.372 -21.474 -18.249  0.00  0.00    +0.057 A 
ATOM      8  C   UNL     1      34.265 -20.686 -19.255  0.00  0.00    +0.020 A 
ATOM      9  C   UNL     1      33.474 -22.710 -16.082  0.00  0.00    +0.058 C 
ATOM     10  C   UNL     1      32.104 -22.753 -16.210  0.00  0.00    +0.006 C 
ATOM     11  C   UNL     1      33.159 -20.311 -20.023  0.00  0.00    +0.057 A 
ATOM     12  C   UNL     1      31.531 -22.122 -17.317  0.00  0.00    +0.017 C 
ATOM     13  C   UNL     1      35.679 -22.228 -16.545  0.00  0.00    +0.252 C 
ATOM     14  C   UNL     1      34.316 -23.282 -15.033  0.00  0.00    +0.252 C 
ATOM     15  C   UNL     1      35.544 -20.294 -19.710  0.00  0.00    +0.038 C 
ATOM     16  C   UNL     1      33.267 -19.573 -21.209  0.00  0.00    +0.020 C 
ATOM     17  C   UNL     1      35.667 -19.555 -20.894  0.00  0.00    +0.134 C 
ATOM     18  C   UNL     1      34.543 -19.200 -21.631  0.00  0.00    +0.038 C 
ATOM     19  H   UNL     1      31.119 -20.674 -19.725  0.00  0.00    +0.166 HD
ATOM     20  H   UNL     1      36.391 -23.211 -14.847  0.00  0.00    +0.158 HD
ENDROOT
BRANCH  10  21
ATOM     21  C   UNL     1      31.249 -23.420 -15.254  0.00  0.00    +0.000 C 
ATOM     22  C   UNL     1      30.545 -24.566 -15.625  0.00  0.00    +0.000 C 
ATOM     23  C   UNL     1      31.126 -22.917 -13.957  0.00  0.00    +0.000 C 
ATOM     24  C   UNL     1      29.721 -25.208 -14.702  0.00  0.00    +0.000 C 
ATOM     25  C   UNL     1      30.302 -23.560 -13.034  0.00  0.00    +0.000 C 
ATOM     26  C   UNL     1      29.598 -24.706 -13.407  0.00  0.00    +0.000 C 
ENDBRANCH  10  21
BRANCH  17  27
ATOM     27  O   UNL     1      36.904 -19.180 -21.325  0.00  0.00    -0.506 OA
ATOM     28  H   UNL     1      37.275 -19.579 -22.087  0.00  0.00    +0.292 HD
ENDBRANCH  17  27
TORSDOF 2
ENDMDL
MODEL 8
REMARK VINA RESULT:     -10.6      7.704     11.062
REMARK  Name = 4369491
REMARK  2 active torsions:
REMARK  status: ('A' for Active; 'I' for Inactive)
REMARK    1  A    between atoms: C_10  and  C_21
REMARK    2  A    between atoms: C_17  and  O_27
REMARK                            x       y       z     vdW  Elec       q    Type
REMARK                         _______ _______ _______ _____ _____    ______ ____
ROOT
ATOM      1  O   UNL     1      32.518 -12.794 -25.098  0.00  0.00    -0.270 OA
ATOM      2  O   UNL     1      34.539 -16.877 -24.454  0.00  0.00    -0.270 OA
ATOM      3  N   UNL     1      32.602 -12.811 -19.830  0.00  0.00    -0.353 N 
ATOM      4  N   UNL     1      33.548 -14.884 -25.151  0.00  0.00    -0.248 N 
ATOM      5  C   UNL     1      32.754 -13.184 -22.029  0.00  0.00    +0.022 A 
ATOM      6  C   UNL     1      33.132 -13.981 -23.118  0.00  0.00    +0.060 C 
ATOM      7  C   UNL     1      33.036 -13.721 -20.763  0.00  0.00    +0.057 A 
ATOM      8  C   UNL     1      32.129 -11.910 -21.819  0.00  0.00    +0.020 A 
ATOM      9  C   UNL     1      33.744 -15.218 -22.929  0.00  0.00    +0.058 C 
ATOM     10  C   UNL     1      34.017 -15.735 -21.682  0.00  0.00    +0.006 C 
ATOM     11  C   UNL     1      32.050 -11.710 -20.438  0.00  0.00    +0.057 A 
ATOM     12  C   UNL     1      33.657 -14.974 -20.567  0.00  0.00    +0.017 C 
ATOM     13  C   UNL     1      33.006 -13.767 -24.559  0.00  0.00    +0.252 C 
ATOM     14  C   UNL     1      34.012 -15.802 -24.242  0.00  0.00    +0.252 C 
ATOM     15  C   UNL     1      31.615 -10.897 -22.659  0.00  0.00    +0.038 C 
ATOM     16  C   UNL     1      31.491 -10.562 -19.862  0.00  0.00    +0.020 C 
ATOM     17  C   UNL     1      31.053  -9.743 -22.098  0.00  0.00    +0.134 C 
ATOM     18  C   UNL     1      30.993  -9.580 -20.719  0.00  0.00    +0.038 C 
ATOM     19  H   UNL     1      32.676 -12.931 -18.856  0.00  0.00    +0.166 HD
ATOM     20  H   UNL     1      33.597 -15.012 -26.125  0.00  0.00    +0.158 HD
ENDROOT
BRANCH  10  21
ATOM     21  C   UNL     1      34.652 -17.019 -21.488  0.00  0.00    +0.000 C 
ATOM     22  C   UNL     1      36.020 -17.164 -21.717  0.00  0.00    +0.000 C 
ATOM     23  C   UNL     1      33.896 -18.116 -21.071  0.00  0.00    +0.000 C 
ATOM     24  C   UNL     1      36.633 -18.403 -21.531  0.00  0.00    +0.000 C 
ATOM     25  C   UNL     1      34.509 -19.355 -20.884  0.00  0.00    +0.000 C 
ATOM     26  C   UNL     1      35.877 -19.498 -21.115  0.00  0.00    +0.000 C 
ENDBRANCH  10  21
BRANCH  17  27
ATOM     27  O   UNL     1      30.561  -8.770 -22.916  0.00  0.00    -0.506 OA
ATOM     28  H   UNL     1      30.800  -7.876 -22.776  0.00  0.00    +0.292 HD
ENDBRANCH  17  27
TORSDOF 2
ENDMDL
MODEL 9
REMARK VINA RESULT:      -9.6     12.630     16.873
REMARK  Name = 4369491
REMARK  2 active torsions:
REMARK  status: ('A' for Active; 'I' for Inactive)
REMARK    1  A    between atoms: C_10  and  C_21
REMARK    2  A    between atoms: C_17  and  O_27
REMARK                            x       y       z     vdW  Elec       q    Type
REMARK                         _______ _______ _______ _____ _____    ______ ____
ROOT
ATOM      1  O   UNL     1      31.481  -9.139 -18.692  0.00  0.00    -0.270 OA
ATOM      2  O   UNL     1      31.335  -4.918 -20.517  0.00  0.00    -0.270 OA
ATOM      3  N   UNL     1      32.227 -10.437 -23.744  0.00  0.00    -0.353 N 
ATOM      4  N   UNL     1      31.353  -6.882 -19.260  0.00  0.00    -0.248 N 
ATOM      5  C   UNL     1      31.893  -9.487 -21.747  0.00  0.00    +0.022 A 
ATOM      6  C   UNL     1      31.693  -8.360 -20.940  0.00  0.00    +0.060 C 
ATOM      7  C   UNL     1      32.042  -9.228 -23.120  0.00  0.00    +0.057 A 
ATOM      8  C   UNL     1      31.997 -10.907 -21.572  0.00  0.00    +0.020 A 
ATOM      9  C   UNL     1      31.649  -7.079 -21.488  0.00  0.00    +0.058 C 
ATOM     10  C   UNL     1      31.795  -6.836 -22.835  0.00  0.00    +0.006 C 
ATOM     11  C   UNL     1      32.204 -11.467 -22.835  0.00  0.00    +0.057 A 
ATOM     12  C   UNL     1      31.997  -7.932 -23.678  0.00  0.00    +0.017 C 
ATOM     13  C   UNL     1      31.502  -8.229 -19.497  0.00  0.00    +0.252 C 
ATOM     14  C   UNL     1      31.428  -6.125 -20.402  0.00  0.00    +0.252 C 
ATOM     15  C   UNL     1      31.934 -11.786 -20.467  0.00  0.00    +0.038 C 
ATOM     16  C   UNL     1      32.351 -12.844 -23.047  0.00  0.00    +0.020 C 
ATOM     17  C   UNL     1      32.079 -13.165 -20.663  0.00  0.00    +0.134 C 
ATOM     18  C   UNL     1      32.285 -13.685 -21.936  0.00  0.00    +0.038 C 
ATOM     19  H   UNL     1      32.359 -10.551 -24.712  0.00  0.00    +0.166 HD
ATOM     20  H   UNL     1      31.208  -6.501 -18.364  0.00  0.00    +0.158 HD
ENDROOT
BRANCH  10  21
ATOM     21  C   UNL     1      31.748  -5.506 -23.401  0.00  0.00    +0.000 C 
ATOM     22  C   UNL     1      32.930  -4.854 -23.753  0.00  0.00    +0.000 C 
ATOM     23  C   UNL     1      30.519  -4.874 -23.596  0.00  0.00    +0.000 C 
ATOM     24  C   UNL     1      32.884  -3.571 -24.298  0.00  0.00    +0.000 C 
ATOM     25  C   UNL     1      30.473  -3.591 -24.142  0.00  0.00    +0.000 C 
ATOM     26  C   UNL     1      31.656  -2.940 -24.492  0.00  0.00    +0.000 C 
ENDBRANCH  10  21
BRANCH  17  27
ATOM     27  O   UNL     1      32.019 -14.006 -19.592  0.00  0.00    -0.506 OA
ATOM     28  H   UNL     1      32.216 -13.686 -18.734  0.00  0.00    +0.292 HD
ENDBRANCH  17  27
TORSDOF 2
ENDMDL
