MODEL 1
REMARK VINA RESULT:     -12.0      0.000      0.000
REMARK  Name = 44129603
REMARK  3 active torsions:
REMARK  status: ('A' for Active; 'I' for Inactive)
REMARK    1  A    between atoms: N_5  and  C_17
REMARK    2  A    between atoms: C_12  and  C_24
REMARK    3  A    between atoms: C_24  and  O_25
REMARK                            x       y       z     vdW  Elec       q    Type
REMARK                         _______ _______ _______ _____ _____    ______ ____
ROOT
ATOM      1  N   UNL     1      36.199 -22.477 -14.908  0.00  0.00    -0.246 N 
ATOM      2  N   UNL     1      37.188 -22.545 -13.995  0.00  0.00    -0.163 NA
ATOM      3  N   UNL     1      33.583 -22.415 -16.308  0.00  0.00    -0.336 NA
ATOM      4  N   UNL     1      31.274 -23.124 -16.285  0.00  0.00    -0.170 NA
ATOM      5  N   UNL     1      32.164 -21.959 -18.118  0.00  0.00    -0.247 N 
ATOM      6  C   UNL     1      34.088 -23.671 -12.228  0.00  0.00    +0.035 C 
ATOM      7  C   UNL     1      35.200 -23.219 -13.107  0.00  0.00    +0.024 A 
ATOM      8  C   UNL     1      32.921 -24.276 -13.056  0.00  0.00    +0.035 C 
ATOM      9  C   UNL     1      34.992 -22.877 -14.424  0.00  0.00    +0.106 A 
ATOM     10  C   UNL     1      32.681 -23.605 -14.392  0.00  0.00    +0.030 C 
ATOM     11  C   UNL     1      33.711 -22.966 -15.087  0.00  0.00    +0.158 C 
ATOM     12  C   UNL     1      36.570 -22.995 -12.895  0.00  0.00    +0.174 A 
ATOM     13  C   UNL     1      31.474 -23.661 -15.060  0.00  0.00    +0.110 C 
ATOM     14  C   UNL     1      36.513 -21.987 -16.230  0.00  0.00    +0.154 C 
ATOM     15  C   UNL     1      32.351 -22.528 -16.839  0.00  0.00    +0.149 C 
ATOM     16  H   UNL     1      31.250 -22.063 -18.468  0.00  0.00    +0.165 HD
ENDROOT
BRANCH   5  17
ATOM     17  C   UNL     1      33.028 -21.272 -18.990  0.00  0.00    +0.058 C 
ATOM     18  C   UNL     1      32.520 -20.304 -19.855  0.00  0.00    +0.015 C 
ATOM     19  C   UNL     1      34.393 -21.560 -18.988  0.00  0.00    +0.015 C 
ATOM     20  C   UNL     1      33.377 -19.621 -20.720  0.00  0.00    +0.001 C 
ATOM     21  C   UNL     1      35.250 -20.877 -19.853  0.00  0.00    +0.001 C 
ATOM     22  C   UNL     1      34.742 -19.909 -20.718  0.00  0.00    +0.000 C 
ENDBRANCH   5  17
BRANCH  12  24
ATOM     23  O   UNL     1      37.288 -24.214 -10.966  0.00  0.00    -0.243 OA
ATOM     24  C   UNL     1      37.322 -23.200 -11.690  0.00  0.00    +0.357 C 
BRANCH  24  25
ATOM     25  O   UNL     1      38.128 -22.141 -11.370  0.00  0.00    -0.476 OA
ATOM     26  H   UNL     1      38.222 -21.426 -11.969  0.00  0.00    +0.295 HD
ENDBRANCH  24  25
ENDBRANCH  12  24
TORSDOF 3
ENDMDL
MODEL 2
REMARK VINA RESULT:     -11.1      8.333     11.787
REMARK  Name = 44129603
REMARK  3 active torsions:
REMARK  status: ('A' for Active; 'I' for Inactive)
REMARK    1  A    between atoms: N_5  and  C_17
REMARK    2  A    between atoms: C_12  and  C_24
REMARK    3  A    between atoms: C_24  and  O_25
REMARK                            x       y       z     vdW  Elec       q    Type
REMARK                         _______ _______ _______ _____ _____    ______ ____
ROOT
ATOM      1  N   UNL     1      34.117 -14.919 -20.975  0.00  0.00    -0.246 N 
ATOM      2  N   UNL     1      34.601 -15.998 -20.327  0.00  0.00    -0.163 NA
ATOM      3  N   UNL     1      32.920 -13.052 -22.946  0.00  0.00    -0.336 NA
ATOM      4  N   UNL     1      32.517 -12.581 -25.281  0.00  0.00    -0.170 NA
ATOM      5  N   UNL     1      31.918 -11.040 -23.614  0.00  0.00    -0.247 N 
ATOM      6  C   UNL     1      34.176 -17.053 -23.892  0.00  0.00    +0.035 C 
ATOM      7  C   UNL     1      34.291 -16.438 -22.542  0.00  0.00    +0.024 A 
ATOM      8  C   UNL     1      34.212 -15.975 -25.010  0.00  0.00    +0.035 C 
ATOM      9  C   UNL     1      33.922 -15.133 -22.304  0.00  0.00    +0.106 A 
ATOM     10  C   UNL     1      33.535 -14.670 -24.650  0.00  0.00    +0.030 C 
ATOM     11  C   UNL     1      33.442 -14.232 -23.327  0.00  0.00    +0.158 C 
ATOM     12  C   UNL     1      34.701 -16.924 -21.290  0.00  0.00    +0.174 A 
ATOM     13  C   UNL     1      33.059 -13.780 -25.593  0.00  0.00    +0.110 C 
ATOM     14  C   UNL     1      33.851 -13.720 -20.214  0.00  0.00    +0.154 C 
ATOM     15  C   UNL     1      32.481 -12.287 -23.964  0.00  0.00    +0.149 C 
ATOM     16  H   UNL     1      31.608 -10.515 -24.387  0.00  0.00    +0.165 HD
ENDROOT
BRANCH   5  17
ATOM     17  C   UNL     1      31.712 -10.401 -22.378  0.00  0.00    +0.058 C 
ATOM     18  C   UNL     1      31.808  -9.013 -22.286  0.00  0.00    +0.015 C 
ATOM     19  C   UNL     1      31.410 -11.157 -21.245  0.00  0.00    +0.015 C 
ATOM     20  C   UNL     1      31.602  -8.379 -21.060  0.00  0.00    +0.001 C 
ATOM     21  C   UNL     1      31.205 -10.522 -20.019  0.00  0.00    +0.001 C 
ATOM     22  C   UNL     1      31.301  -9.134 -19.927  0.00  0.00    +0.000 C 
ENDBRANCH   5  17
BRANCH  12  24
ATOM     23  O   UNL     1      34.551 -19.298 -21.040  0.00  0.00    -0.243 OA
ATOM     24  C   UNL     1      35.194 -18.233 -20.970  0.00  0.00    +0.357 C 
BRANCH  24  25
ATOM     25  O   UNL     1      36.499 -18.232 -20.557  0.00  0.00    -0.476 OA
ATOM     26  H   UNL     1      37.098 -17.596 -20.897  0.00  0.00    +0.295 HD
ENDBRANCH  24  25
ENDBRANCH  12  24
TORSDOF 3
ENDMDL
MODEL 3
REMARK VINA RESULT:     -10.8      3.614      6.695
REMARK  Name = 44129603
REMARK  3 active torsions:
REMARK  status: ('A' for Active; 'I' for Inactive)
REMARK    1  A    between atoms: N_5  and  C_17
REMARK    2  A    between atoms: C_12  and  C_24
REMARK    3  A    between atoms: C_24  and  O_25
REMARK                            x       y       z     vdW  Elec       q    Type
REMARK                         _______ _______ _______ _____ _____    ______ ____
ROOT
ATOM      1  N   UNL     1      35.954 -21.300 -17.786  0.00  0.00    -0.246 N 
ATOM      2  N   UNL     1      36.280 -20.526 -18.841  0.00  0.00    -0.163 NA
ATOM      3  N   UNL     1      34.608 -23.122 -15.869  0.00  0.00    -0.336 NA
ATOM      4  N   UNL     1      32.502 -23.969 -15.042  0.00  0.00    -0.170 NA
ATOM      5  N   UNL     1      34.532 -24.577 -14.032  0.00  0.00    -0.247 N 
ATOM      6  C   UNL     1      32.640 -21.302 -19.230  0.00  0.00    +0.035 C 
ATOM      7  C   UNL     1      34.073 -21.093 -18.887  0.00  0.00    +0.024 A 
ATOM      8  C   UNL     1      31.800 -21.646 -17.970  0.00  0.00    +0.035 C 
ATOM      9  C   UNL     1      34.641 -21.659 -17.767  0.00  0.00    +0.106 A 
ATOM     10  C   UNL     1      32.521 -22.491 -16.941  0.00  0.00    +0.030 C 
ATOM     11  C   UNL     1      33.912 -22.455 -16.808  0.00  0.00    +0.158 C 
ATOM     12  C   UNL     1      35.127 -20.407 -19.512  0.00  0.00    +0.174 A 
ATOM     13  C   UNL     1      31.866 -23.268 -16.006  0.00  0.00    +0.110 C 
ATOM     14  C   UNL     1      36.992 -21.664 -16.850  0.00  0.00    +0.154 C 
ATOM     15  C   UNL     1      33.847 -23.852 -15.031  0.00  0.00    +0.149 C 
ATOM     16  H   UNL     1      33.939 -25.098 -13.443  0.00  0.00    +0.165 HD
ENDROOT
BRANCH   5  17
ATOM     17  C   UNL     1      35.897 -24.703 -13.713  0.00  0.00    +0.058 C 
ATOM     18  C   UNL     1      36.455 -23.908 -12.712  0.00  0.00    +0.015 C 
ATOM     19  C   UNL     1      36.691 -25.623 -14.397  0.00  0.00    +0.015 C 
ATOM     20  C   UNL     1      37.808 -24.033 -12.395  0.00  0.00    +0.001 C 
ATOM     21  C   UNL     1      38.044 -25.748 -14.080  0.00  0.00    +0.001 C 
ATOM     22  C   UNL     1      38.602 -24.953 -13.079  0.00  0.00    +0.000 C 
ENDBRANCH   5  17
BRANCH  12  24
ATOM     23  O   UNL     1      34.343 -19.843 -21.700  0.00  0.00    -0.243 OA
ATOM     24  C   UNL     1      35.083 -19.633 -20.719  0.00  0.00    +0.357 C 
BRANCH  24  25
ATOM     25  O   UNL     1      35.962 -18.584 -20.720  0.00  0.00    -0.476 OA
ATOM     26  H   UNL     1      35.815 -17.848 -20.158  0.00  0.00    +0.295 HD
ENDBRANCH  24  25
ENDBRANCH  12  24
TORSDOF 3
ENDMDL
MODEL 4
REMARK VINA RESULT:     -10.7      3.563      7.070
REMARK  Name = 44129603
REMARK  3 active torsions:
REMARK  status: ('A' for Active; 'I' for Inactive)
REMARK    1  A    between atoms: N_5  and  C_17
REMARK    2  A    between atoms: C_12  and  C_24
REMARK    3  A    between atoms: C_24  and  O_25
REMARK                            x       y       z     vdW  Elec       q    Type
REMARK                         _______ _______ _______ _____ _____    ______ ____
ROOT
ATOM      1  N   UNL     1      31.970 -23.498 -14.946  0.00  0.00    -0.246 N 
ATOM      2  N   UNL     1      30.624 -23.573 -14.923  0.00  0.00    -0.163 NA
ATOM      3  N   UNL     1      34.797 -22.800 -15.515  0.00  0.00    -0.336 NA
ATOM      4  N   UNL     1      36.367 -21.940 -17.137  0.00  0.00    -0.170 NA
ATOM      5  N   UNL     1      37.097 -22.756 -15.060  0.00  0.00    -0.247 N 
ATOM      6  C   UNL     1      31.483 -21.545 -17.948  0.00  0.00    +0.035 C 
ATOM      7  C   UNL     1      31.352 -22.381 -16.725  0.00  0.00    +0.024 A 
ATOM      8  C   UNL     1      32.870 -21.735 -18.619  0.00  0.00    +0.035 C 
ATOM      9  C   UNL     1      32.451 -22.800 -16.010  0.00  0.00    +0.106 A 
ATOM     10  C   UNL     1      34.015 -21.945 -17.651  0.00  0.00    +0.030 C 
ATOM     11  C   UNL     1      33.816 -22.518 -16.392  0.00  0.00    +0.158 C 
ATOM     12  C   UNL     1      30.252 -22.885 -16.010  0.00  0.00    +0.174 A 
ATOM     13  C   UNL     1      35.334 -21.688 -17.971  0.00  0.00    +0.110 C 
ATOM     14  C   UNL     1      32.714 -24.119 -13.874  0.00  0.00    +0.154 C 
ATOM     15  C   UNL     1      36.033 -22.485 -15.949  0.00  0.00    +0.149 C 
ATOM     16  H   UNL     1      37.981 -22.510 -15.416  0.00  0.00    +0.165 HD
ENDROOT
BRANCH   5  17
ATOM     17  C   UNL     1      37.141 -23.307 -13.767  0.00  0.00    +0.058 C 
ATOM     18  C   UNL     1      36.706 -22.558 -12.674  0.00  0.00    +0.015 C 
ATOM     19  C   UNL     1      37.620 -24.604 -13.579  0.00  0.00    +0.015 C 
ATOM     20  C   UNL     1      36.749 -23.106 -11.391  0.00  0.00    +0.001 C 
ATOM     21  C   UNL     1      37.663 -25.151 -12.296  0.00  0.00    +0.001 C 
ATOM     22  C   UNL     1      37.228 -24.403 -11.203  0.00  0.00    +0.000 C 
ENDBRANCH   5  17
BRANCH  12  24
ATOM     23  O   UNL     1      28.285 -21.698 -16.674  0.00  0.00    -0.243 OA
ATOM     24  C   UNL     1      28.859 -22.747 -16.323  0.00  0.00    +0.357 C 
BRANCH  24  25
ATOM     25  O   UNL     1      28.160 -23.918 -16.203  0.00  0.00    -0.476 OA
ATOM     26  H   UNL     1      28.360 -24.643 -16.763  0.00  0.00    +0.295 HD
ENDBRANCH  24  25
ENDBRANCH  12  24
TORSDOF 3
ENDMDL
MODEL 5
REMARK VINA RESULT:     -10.7      8.382     11.881
REMARK  Name = 44129603
REMARK  3 active torsions:
REMARK  status: ('A' for Active; 'I' for Inactive)
REMARK    1  A    between atoms: N_5  and  C_17
REMARK    2  A    between atoms: C_12  and  C_24
REMARK    3  A    between atoms: C_24  and  O_25
REMARK                            x       y       z     vdW  Elec       q    Type
REMARK                         _______ _______ _______ _____ _____    ______ ____
ROOT
ATOM      1  N   UNL     1      32.558 -13.659 -20.701  0.00  0.00    -0.246 N 
ATOM      2  N   UNL     1      32.086 -12.643 -19.949  0.00  0.00    -0.163 NA
ATOM      3  N   UNL     1      33.701 -15.341 -22.861  0.00  0.00    -0.336 NA
ATOM      4  N   UNL     1      34.020 -15.613 -25.240  0.00  0.00    -0.170 NA
ATOM      5  N   UNL     1      34.701 -17.276 -23.729  0.00  0.00    -0.247 N 
ATOM      6  C   UNL     1      32.363 -11.295 -23.428  0.00  0.00    +0.035 C 
ATOM      7  C   UNL     1      32.306 -12.020 -22.130  0.00  0.00    +0.024 A 
ATOM      8  C   UNL     1      32.297 -12.278 -24.629  0.00  0.00    +0.035 C 
ATOM      9  C   UNL     1      32.699 -13.334 -22.014  0.00  0.00    +0.106 A 
ATOM     10  C   UNL     1      33.003 -13.598 -24.403  0.00  0.00    +0.030 C 
ATOM     11  C   UNL     1      33.151 -14.141 -23.124  0.00  0.00    +0.158 C 
ATOM     12  C   UNL     1      31.939 -11.644 -20.828  0.00  0.00    +0.174 A 
ATOM     13  C   UNL     1      33.453 -14.402 -25.433  0.00  0.00    +0.110 C 
ATOM     14  C   UNL     1      32.867 -14.912 -20.051  0.00  0.00    +0.154 C 
ATOM     15  C   UNL     1      34.110 -16.013 -23.954  0.00  0.00    +0.149 C 
ATOM     16  H   UNL     1      34.987 -17.731 -24.554  0.00  0.00    +0.165 HD
ENDROOT
BRANCH   5  17
ATOM     17  C   UNL     1      34.962 -18.011 -22.558  0.00  0.00    +0.058 C 
ATOM     18  C   UNL     1      33.981 -18.847 -22.026  0.00  0.00    +0.015 C 
ATOM     19  C   UNL     1      36.202 -17.903 -21.930  0.00  0.00    +0.015 C 
ATOM     20  C   UNL     1      34.240 -19.576 -20.865  0.00  0.00    +0.001 C 
ATOM     21  C   UNL     1      36.462 -18.632 -20.769  0.00  0.00    +0.001 C 
ATOM     22  C   UNL     1      35.481 -19.468 -20.237  0.00  0.00    +0.000 C 
ENDBRANCH   5  17
BRANCH  12  24
ATOM     23  O   UNL     1      30.938  -9.488 -21.102  0.00  0.00    -0.243 OA
ATOM     24  C   UNL     1      31.443 -10.373 -20.384  0.00  0.00    +0.357 C 
BRANCH  24  25
ATOM     25  O   UNL     1      31.569 -10.186 -19.033  0.00  0.00    -0.476 OA
ATOM     26  H   UNL     1      31.499  -9.325 -18.670  0.00  0.00    +0.295 HD
ENDBRANCH  24  25
ENDBRANCH  12  24
TORSDOF 3
ENDMDL
MODEL 6
REMARK VINA RESULT:     -10.4      3.643      6.725
REMARK  Name = 44129603
REMARK  3 active torsions:
REMARK  status: ('A' for Active; 'I' for Inactive)
REMARK    1  A    between atoms: N_5  and  C_17
REMARK    2  A    between atoms: C_12  and  C_24
REMARK    3  A    between atoms: C_24  and  O_25
REMARK                            x       y       z     vdW  Elec       q    Type
REMARK                         _______ _______ _______ _____ _____    ______ ____
ROOT
ATOM      1  N   UNL     1      35.819 -21.440 -17.730  0.00  0.00    -0.246 N 
ATOM      2  N   UNL     1      36.047 -20.681 -18.821  0.00  0.00    -0.163 NA
ATOM      3  N   UNL     1      34.660 -23.245 -15.679  0.00  0.00    -0.336 NA
ATOM      4  N   UNL     1      32.642 -24.104 -14.668  0.00  0.00    -0.170 NA
ATOM      5  N   UNL     1      34.756 -24.667 -13.817  0.00  0.00    -0.247 N 
ATOM      6  C   UNL     1      32.399 -21.512 -18.898  0.00  0.00    +0.035 C 
ATOM      7  C   UNL     1      33.851 -21.279 -18.677  0.00  0.00    +0.024 A 
ATOM      8  C   UNL     1      31.669 -21.844 -17.568  0.00  0.00    +0.035 C 
ATOM      9  C   UNL     1      34.518 -21.816 -17.598  0.00  0.00    +0.106 A 
ATOM     10  C   UNL     1      32.484 -22.661 -16.588  0.00  0.00    +0.030 C 
ATOM     11  C   UNL     1      33.880 -22.604 -16.569  0.00  0.00    +0.158 C 
ATOM     12  C   UNL     1      34.841 -20.590 -19.397  0.00  0.00    +0.174 A 
ATOM     13  C   UNL     1      31.919 -23.430 -15.589  0.00  0.00    +0.110 C 
ATOM     14  C   UNL     1      36.935 -21.773 -16.875  0.00  0.00    +0.154 C 
ATOM     15  C   UNL     1      33.981 -23.969 -14.769  0.00  0.00    +0.149 C 
ATOM     16  H   UNL     1      34.220 -25.185 -13.173  0.00  0.00    +0.165 HD
ENDROOT
BRANCH   5  17
ATOM     17  C   UNL     1      36.144 -24.768 -13.608  0.00  0.00    +0.058 C 
ATOM     18  C   UNL     1      36.908 -25.624 -14.400  0.00  0.00    +0.015 C 
ATOM     19  C   UNL     1      36.754 -24.011 -12.608  0.00  0.00    +0.015 C 
ATOM     20  C   UNL     1      38.284 -25.723 -14.194  0.00  0.00    +0.001 C 
ATOM     21  C   UNL     1      38.131 -24.111 -12.401  0.00  0.00    +0.001 C 
ATOM     22  C   UNL     1      38.895 -24.967 -13.193  0.00  0.00    +0.000 C 
ENDBRANCH   5  17
BRANCH  12  24
ATOM     23  O   UNL     1      35.596 -19.259 -21.236  0.00  0.00    -0.243 OA
ATOM     24  C   UNL     1      34.687 -19.839 -20.610  0.00  0.00    +0.357 C 
BRANCH  24  25
ATOM     25  O   UNL     1      33.395 -19.799 -21.060  0.00  0.00    -0.476 OA
ATOM     26  H   UNL     1      33.205 -19.449 -21.909  0.00  0.00    +0.295 HD
ENDBRANCH  24  25
ENDBRANCH  12  24
TORSDOF 3
ENDMDL
MODEL 7
REMARK VINA RESULT:     -10.2      1.817      4.431
REMARK  Name = 44129603
REMARK  3 active torsions:
REMARK  status: ('A' for Active; 'I' for Inactive)
REMARK    1  A    between atoms: N_5  and  C_17
REMARK    2  A    between atoms: C_12  and  C_24
REMARK    3  A    between atoms: C_24  and  O_25
REMARK                            x       y       z     vdW  Elec       q    Type
REMARK                         _______ _______ _______ _____ _____    ______ ____
ROOT
ATOM      1  N   UNL     1      34.528 -23.476 -13.307  0.00  0.00    -0.246 N 
ATOM      2  N   UNL     1      35.432 -23.813 -12.366  0.00  0.00    -0.163 NA
ATOM      3  N   UNL     1      33.140 -22.778 -15.835  0.00  0.00    -0.336 NA
ATOM      4  N   UNL     1      33.346 -21.820 -18.043  0.00  0.00    -0.170 NA
ATOM      5  N   UNL     1      31.257 -22.482 -17.201  0.00  0.00    -0.247 N 
ATOM      6  C   UNL     1      37.415 -22.884 -15.400  0.00  0.00    +0.035 C 
ATOM      7  C   UNL     1      36.456 -23.189 -14.305  0.00  0.00    +0.024 A 
ATOM      8  C   UNL     1      36.795 -21.914 -16.442  0.00  0.00    +0.035 C 
ATOM      9  C   UNL     1      35.094 -23.089 -14.482  0.00  0.00    +0.106 A 
ATOM     10  C   UNL     1      35.315 -22.115 -16.690  0.00  0.00    +0.030 C 
ATOM     11  C   UNL     1      34.472 -22.642 -15.708  0.00  0.00    +0.158 C 
ATOM     12  C   UNL     1      36.608 -23.640 -12.983  0.00  0.00    +0.174 A 
ATOM     13  C   UNL     1      34.678 -21.706 -17.845  0.00  0.00    +0.110 C 
ATOM     14  C   UNL     1      33.124 -23.581 -12.984  0.00  0.00    +0.154 C 
ATOM     15  C   UNL     1      32.651 -22.353 -17.016  0.00  0.00    +0.149 C 
ATOM     16  H   UNL     1      30.943 -22.162 -18.078  0.00  0.00    +0.165 HD
ENDROOT
BRANCH   5  17
ATOM     17  C   UNL     1      30.229 -22.980 -16.380  0.00  0.00    +0.058 C 
ATOM     18  C   UNL     1      28.969 -22.383 -16.401  0.00  0.00    +0.015 C 
ATOM     19  C   UNL     1      30.471 -24.070 -15.545  0.00  0.00    +0.015 C 
ATOM     20  C   UNL     1      27.949 -22.877 -15.587  0.00  0.00    +0.001 C 
ATOM     21  C   UNL     1      29.450 -24.564 -14.730  0.00  0.00    +0.001 C 
ATOM     22  C   UNL     1      28.190 -23.967 -14.752  0.00  0.00    +0.000 C 
ENDBRANCH   5  17
BRANCH  12  24
ATOM     23  O   UNL     1      38.975 -23.907 -12.765  0.00  0.00    -0.243 OA
ATOM     24  C   UNL     1      37.829 -23.905 -12.277  0.00  0.00    +0.357 C 
BRANCH  24  25
ATOM     25  O   UNL     1      37.636 -24.171 -10.948  0.00  0.00    -0.476 OA
ATOM     26  H   UNL     1      38.364 -24.407 -10.407  0.00  0.00    +0.295 HD
ENDBRANCH  24  25
ENDBRANCH  12  24
TORSDOF 3
ENDMDL
MODEL 8
REMARK VINA RESULT:     -10.1      2.599      4.399
REMARK  Name = 44129603
REMARK  3 active torsions:
REMARK  status: ('A' for Active; 'I' for Inactive)
REMARK    1  A    between atoms: N_5  and  C_17
REMARK    2  A    between atoms: C_12  and  C_24
REMARK    3  A    between atoms: C_24  and  O_25
REMARK                            x       y       z     vdW  Elec       q    Type
REMARK                         _______ _______ _______ _____ _____    ______ ____
ROOT
ATOM      1  N   UNL     1      31.807 -22.691 -15.998  0.00  0.00    -0.246 N 
ATOM      2  N   UNL     1      30.725 -23.243 -15.413  0.00  0.00    -0.163 NA
ATOM      3  N   UNL     1      34.555 -21.997 -16.877  0.00  0.00    -0.336 NA
ATOM      4  N   UNL     1      36.904 -21.993 -16.314  0.00  0.00    -0.170 NA
ATOM      5  N   UNL     1      36.132 -20.995 -18.294  0.00  0.00    -0.247 N 
ATOM      6  C   UNL     1      33.683 -24.560 -13.538  0.00  0.00    +0.035 C 
ATOM      7  C   UNL     1      32.647 -23.914 -14.388  0.00  0.00    +0.024 A 
ATOM      8  C   UNL     1      34.998 -23.734 -13.521  0.00  0.00    +0.035 C 
ATOM      9  C   UNL     1      32.980 -23.058 -15.414  0.00  0.00    +0.106 A 
ATOM     10  C   UNL     1      35.331 -23.051 -14.830  0.00  0.00    +0.030 C 
ATOM     11  C   UNL     1      34.335 -22.672 -15.733  0.00  0.00    +0.158 C 
ATOM     12  C   UNL     1      31.246 -23.992 -14.433  0.00  0.00    +0.174 A 
ATOM     13  C   UNL     1      36.611 -22.665 -15.179  0.00  0.00    +0.110 C 
ATOM     14  C   UNL     1      31.610 -21.830 -17.142  0.00  0.00    +0.154 C 
ATOM     15  C   UNL     1      35.849 -21.696 -17.101  0.00  0.00    +0.149 C 
ATOM     16  H   UNL     1      37.088 -20.797 -18.419  0.00  0.00    +0.165 HD
ENDROOT
BRANCH   5  17
ATOM     17  C   UNL     1      35.316 -20.523 -19.338  0.00  0.00    +0.058 C 
ATOM     18  C   UNL     1      33.970 -20.882 -19.388  0.00  0.00    +0.015 C 
ATOM     19  C   UNL     1      35.855 -19.696 -20.324  0.00  0.00    +0.015 C 
ATOM     20  C   UNL     1      33.161 -20.413 -20.424  0.00  0.00    +0.001 C 
ATOM     21  C   UNL     1      35.046 -19.227 -21.359  0.00  0.00    +0.001 C 
ATOM     22  C   UNL     1      33.700 -19.586 -21.410  0.00  0.00    +0.000 C 
ENDBRANCH   5  17
BRANCH  12  24
ATOM     23  O   UNL     1      30.216 -24.566 -12.351  0.00  0.00    -0.243 OA
ATOM     24  C   UNL     1      30.376 -24.745 -13.574  0.00  0.00    +0.357 C 
BRANCH  24  25
ATOM     25  O   UNL     1      29.693 -25.733 -14.230  0.00  0.00    -0.476 OA
ATOM     26  H   UNL     1      29.729 -26.615 -13.917  0.00  0.00    +0.295 HD
ENDBRANCH  24  25
ENDBRANCH  12  24
TORSDOF 3
ENDMDL
MODEL 9
REMARK VINA RESULT:      -9.8     11.038     14.021
REMARK  Name = 44129603
REMARK  3 active torsions:
REMARK  status: ('A' for Active; 'I' for Inactive)
REMARK    1  A    between atoms: N_5  and  C_17
REMARK    2  A    between atoms: C_12  and  C_24
REMARK    3  A    between atoms: C_24  and  O_25
REMARK                            x       y       z     vdW  Elec       q    Type
REMARK                         _______ _______ _______ _____ _____    ______ ____
ROOT
ATOM      1  N   UNL     1      32.884 -12.536 -24.139  0.00  0.00    -0.246 N 
ATOM      2  N   UNL     1      33.390 -13.664 -24.676  0.00  0.00    -0.163 NA
ATOM      3  N   UNL     1      31.990 -10.377 -22.310  0.00  0.00    -0.336 NA
ATOM      4  N   UNL     1      31.229  -9.812 -20.088  0.00  0.00    -0.170 NA
ATOM      5  N   UNL     1      31.298  -8.197 -21.791  0.00  0.00    -0.247 N 
ATOM      6  C   UNL     1      33.150 -14.302 -20.997  0.00  0.00    +0.035 C 
ATOM      7  C   UNL     1      33.146 -13.864 -22.418  0.00  0.00    +0.024 A 
ATOM      8  C   UNL     1      32.110 -13.511 -20.157  0.00  0.00    +0.035 C 
ATOM      9  C   UNL     1      32.714 -12.611 -22.791  0.00  0.00    +0.106 A 
ATOM     10  C   UNL     1      31.943 -12.062 -20.561  0.00  0.00    +0.030 C 
ATOM     11  C   UNL     1      32.188 -11.632 -21.868  0.00  0.00    +0.158 C 
ATOM     12  C   UNL     1      33.552 -14.470 -23.618  0.00  0.00    +0.174 A 
ATOM     13  C   UNL     1      31.447 -11.092 -19.712  0.00  0.00    +0.110 C 
ATOM     14  C   UNL     1      32.614 -11.417 -25.013  0.00  0.00    +0.154 C 
ATOM     15  C   UNL     1      31.516  -9.529 -21.376  0.00  0.00    +0.149 C 
ATOM     16  H   UNL     1      30.954  -7.612 -21.078  0.00  0.00    +0.165 HD
ENDROOT
BRANCH   5  17
ATOM     17  C   UNL     1      31.476  -7.542 -23.023  0.00  0.00    +0.058 C 
ATOM     18  C   UNL     1      30.393  -7.369 -23.884  0.00  0.00    +0.015 C 
ATOM     19  C   UNL     1      32.736  -7.064 -23.382  0.00  0.00    +0.015 C 
ATOM     20  C   UNL     1      30.569  -6.718 -25.105  0.00  0.00    +0.001 C 
ATOM     21  C   UNL     1      32.912  -6.412 -24.603  0.00  0.00    +0.001 C 
ATOM     22  C   UNL     1      31.829  -6.240 -25.464  0.00  0.00    +0.000 C 
ENDBRANCH   5  17
BRANCH  12  24
ATOM     23  O   UNL     1      33.683 -16.631 -24.634  0.00  0.00    -0.243 OA
ATOM     24  C   UNL     1      34.080 -15.791 -23.805  0.00  0.00    +0.357 C 
BRANCH  24  25
ATOM     25  O   UNL     1      35.115 -16.083 -22.957  0.00  0.00    -0.476 OA
ATOM     26  H   UNL     1      35.257 -16.967 -22.679  0.00  0.00    +0.295 HD
ENDBRANCH  24  25
ENDBRANCH  12  24
TORSDOF 3
ENDMDL
