MODEL 1
REMARK VINA RESULT:     -12.6      0.000      0.000
REMARK  Name = 11609586
REMARK  6 active torsions:
REMARK  status: ('A' for Active; 'I' for Inactive)
REMARK    1  A    between atoms: N_1  and  C_3
REMARK    2  A    between atoms: N_1  and  C_17
REMARK    3  A    between atoms: C_6  and  N_9
REMARK    4  A    between atoms: N_9  and  C_12
REMARK    5  A    between atoms: C_17  and  C_18
REMARK    6  A    between atoms: C_18  and  C_20
REMARK                            x       y       z     vdW  Elec       q    Type
REMARK                         _______ _______ _______ _____ _____    ______ ____
ROOT
ATOM      1  N   UNL     1      34.956 -15.621 -22.919  0.00  0.00    -0.332 N 
ATOM      2  H   UNL     1      35.910 -15.403 -22.799  0.00  0.00    +0.147 HD
ENDROOT
BRANCH   1   3
ATOM      3  C   UNL     1      34.017 -14.688 -22.500  0.00  0.00    +0.045 C 
ATOM      4  C   UNL     1      33.789 -14.463 -21.131  0.00  0.00    +0.016 C 
ATOM      5  C   UNL     1      33.272 -13.946 -23.434  0.00  0.00    +0.016 C 
ATOM      6  C   UNL     1      32.116 -12.798 -21.651  0.00  0.00    +0.048 C 
ATOM      7  C   UNL     1      32.845 -13.526 -20.710  0.00  0.00    +0.016 C 
ATOM      8  C   UNL     1      32.330 -13.009 -23.013  0.00  0.00    +0.016 C 
BRANCH   6   9
ATOM      9  N   UNL     1      31.164 -11.849 -21.224  0.00  0.00    -0.312 N 
ATOM     10  H   UNL     1      30.269 -12.229 -21.067  0.00  0.00    +0.152 HD
BRANCH   9  12
ATOM     11  N   UNL     1      31.395  -7.715 -20.492  0.00  0.00    -0.242 NA
ATOM     12  C   UNL     1      31.241 -10.464 -20.979  0.00  0.00    +0.051 C 
ATOM     13  C   UNL     1      31.229  -9.984 -19.674  0.00  0.00    +0.035 C 
ATOM     14  C   UNL     1      31.331  -9.570 -22.041  0.00  0.00    +0.035 C 
ATOM     15  C   UNL     1      31.307  -8.613 -19.485  0.00  0.00    +0.100 C 
ATOM     16  C   UNL     1      31.405  -8.218 -21.747  0.00  0.00    +0.100 C 
ENDBRANCH   9  12
ENDBRANCH   6   9
ENDBRANCH   1   3
BRANCH   1  17
ATOM     17  C   UNL     1      34.620 -16.884 -23.518  0.00  0.00    +0.092 C 
BRANCH  17  18
ATOM     18  C   UNL     1      33.914 -17.826 -22.527  0.00  0.00    +0.049 C 
BRANCH  18  20
ATOM     19  N   UNL     1      36.654 -19.053 -20.449  0.00  0.00    -0.312 N 
ATOM     20  C   UNL     1      34.827 -18.497 -21.579  0.00  0.00    -0.005 C 
ATOM     21  C   UNL     1      34.489 -19.540 -20.672  0.00  0.00    +0.011 C 
ATOM     22  C   UNL     1      35.654 -19.870 -19.975  0.00  0.00    +0.048 C 
ATOM     23  C   UNL     1      36.165 -18.220 -21.419  0.00  0.00    +0.058 C 
ATOM     24  C   UNL     1      33.302 -20.237 -20.375  0.00  0.00    +0.001 C 
ATOM     25  C   UNL     1      35.690 -20.866 -18.993  0.00  0.00    +0.015 C 
ATOM     26  C   UNL     1      33.323 -21.236 -19.395  0.00  0.00    +0.000 C 
ATOM     27  C   UNL     1      34.500 -21.544 -18.715  0.00  0.00    +0.001 C 
ATOM     28  H   UNL     1      37.588 -19.065 -20.137  0.00  0.00    +0.152 HD
ENDBRANCH  18  20
ENDBRANCH  17  18
ENDBRANCH   1  17
TORSDOF 6
ENDMDL
MODEL 2
REMARK VINA RESULT:     -12.5      3.065      9.641
REMARK  Name = 11609586
REMARK  6 active torsions:
REMARK  status: ('A' for Active; 'I' for Inactive)
REMARK    1  A    between atoms: N_1  and  C_3
REMARK    2  A    between atoms: N_1  and  C_17
REMARK    3  A    between atoms: C_6  and  N_9
REMARK    4  A    between atoms: N_9  and  C_12
REMARK    5  A    between atoms: C_17  and  C_18
REMARK    6  A    between atoms: C_18  and  C_20
REMARK                            x       y       z     vdW  Elec       q    Type
REMARK                         _______ _______ _______ _____ _____    ______ ____
ROOT
ATOM      1  N   UNL     1      35.196 -18.895 -21.077  0.00  0.00    -0.332 N 
ATOM      2  H   UNL     1      36.129 -18.653 -20.872  0.00  0.00    +0.147 HD
ENDROOT
BRANCH   1   3
ATOM      3  C   UNL     1      34.586 -19.865 -20.292  0.00  0.00    +0.045 C 
ATOM      4  C   UNL     1      33.186 -19.989 -20.260  0.00  0.00    +0.016 C 
ATOM      5  C   UNL     1      35.355 -20.746 -19.510  0.00  0.00    +0.016 C 
ATOM      6  C   UNL     1      33.352 -21.829 -18.704  0.00  0.00    +0.048 C 
ATOM      7  C   UNL     1      32.574 -20.963 -19.471  0.00  0.00    +0.016 C 
ATOM      8  C   UNL     1      34.743 -21.720 -18.723  0.00  0.00    +0.016 C 
BRANCH   6   9
ATOM      9  N   UNL     1      32.733 -22.815 -17.908  0.00  0.00    -0.312 N 
ATOM     10  H   UNL     1      32.552 -23.656 -18.388  0.00  0.00    +0.152 HD
BRANCH   9  12
ATOM     11  N   UNL     1      31.505 -22.871 -13.887  0.00  0.00    -0.242 NA
ATOM     12  C   UNL     1      32.322 -22.834 -16.561  0.00  0.00    +0.051 C 
ATOM     13  C   UNL     1      30.998 -22.564 -16.231  0.00  0.00    +0.035 C 
ATOM     14  C   UNL     1      33.237 -23.122 -15.554  0.00  0.00    +0.035 C 
ATOM     15  C   UNL     1      30.643 -22.595 -14.891  0.00  0.00    +0.100 C 
ATOM     16  C   UNL     1      32.783 -23.129 -14.246  0.00  0.00    +0.100 C 
ENDBRANCH   9  12
ENDBRANCH   6   9
ENDBRANCH   1   3
BRANCH   1  17
ATOM     17  C   UNL     1      34.546 -18.222 -22.169  0.00  0.00    +0.092 C 
BRANCH  17  18
ATOM     18  C   UNL     1      35.276 -16.927 -22.569  0.00  0.00    +0.049 C 
BRANCH  18  20
ATOM     19  N   UNL     1      33.196 -14.762 -24.648  0.00  0.00    -0.312 N 
ATOM     20  C   UNL     1      34.398 -15.903 -23.171  0.00  0.00    -0.005 C 
ATOM     21  C   UNL     1      33.811 -14.791 -22.504  0.00  0.00    +0.011 C 
ATOM     22  C   UNL     1      33.062 -14.091 -23.453  0.00  0.00    +0.048 C 
ATOM     23  C   UNL     1      34.001 -15.858 -24.488  0.00  0.00    +0.058 C 
ATOM     24  C   UNL     1      33.846 -14.311 -21.180  0.00  0.00    +0.001 C 
ATOM     25  C   UNL     1      32.344 -12.932 -23.143  0.00  0.00    +0.015 C 
ATOM     26  C   UNL     1      33.132 -13.151 -20.856  0.00  0.00    +0.000 C 
ATOM     27  C   UNL     1      32.393 -12.474 -21.824  0.00  0.00    +0.001 C 
ATOM     28  H   UNL     1      32.774 -14.493 -25.496  0.00  0.00    +0.152 HD
ENDBRANCH  18  20
ENDBRANCH  17  18
ENDBRANCH   1  17
TORSDOF 6
ENDMDL
MODEL 3
REMARK VINA RESULT:     -12.2      2.833      9.739
REMARK  Name = 11609586
REMARK  6 active torsions:
REMARK  status: ('A' for Active; 'I' for Inactive)
REMARK    1  A    between atoms: N_1  and  C_3
REMARK    2  A    between atoms: N_1  and  C_17
REMARK    3  A    between atoms: C_6  and  N_9
REMARK    4  A    between atoms: N_9  and  C_12
REMARK    5  A    between atoms: C_17  and  C_18
REMARK    6  A    between atoms: C_18  and  C_20
REMARK                            x       y       z     vdW  Elec       q    Type
REMARK                         _______ _______ _______ _____ _____    ______ ____
ROOT
ATOM      1  N   UNL     1      33.678 -19.107 -21.777  0.00  0.00    -0.332 N 
ATOM      2  H   UNL     1      32.778 -18.858 -22.089  0.00  0.00    +0.147 HD
ENDROOT
BRANCH   1   3
ATOM      3  C   UNL     1      33.777 -19.926 -20.660  0.00  0.00    +0.045 C 
ATOM      4  C   UNL     1      32.624 -20.383 -19.998  0.00  0.00    +0.016 C 
ATOM      5  C   UNL     1      35.034 -20.318 -20.164  0.00  0.00    +0.016 C 
ATOM      6  C   UNL     1      33.978 -21.584 -18.398  0.00  0.00    +0.048 C 
ATOM      7  C   UNL     1      32.724 -21.205 -18.875  0.00  0.00    +0.016 C 
ATOM      8  C   UNL     1      35.134 -21.140 -19.043  0.00  0.00    +0.016 C 
BRANCH   6   9
ATOM      9  N   UNL     1      34.079 -22.417 -17.265  0.00  0.00    -0.312 N 
ATOM     10  H   UNL     1      33.389 -23.118 -17.225  0.00  0.00    +0.152 HD
BRANCH   9  12
ATOM     11  N   UNL     1      36.750 -22.494 -14.017  0.00  0.00    -0.242 NA
ATOM     12  C   UNL     1      34.973 -22.443 -16.177  0.00  0.00    +0.051 C 
ATOM     13  C   UNL     1      36.309 -22.102 -16.362  0.00  0.00    +0.035 C 
ATOM     14  C   UNL     1      34.526 -22.810 -14.911  0.00  0.00    +0.035 C 
ATOM     15  C   UNL     1      37.149 -22.143 -15.261  0.00  0.00    +0.100 C 
ATOM     16  C   UNL     1      35.445 -22.819 -13.875  0.00  0.00    +0.100 C 
ENDBRANCH   9  12
ENDBRANCH   6   9
ENDBRANCH   1   3
BRANCH   1  17
ATOM     17  C   UNL     1      34.810 -18.603 -22.505  0.00  0.00    +0.092 C 
BRANCH  17  18
ATOM     18  C   UNL     1      35.157 -17.157 -22.111  0.00  0.00    +0.049 C 
BRANCH  18  20
ATOM     19  N   UNL     1      33.488 -15.043 -24.576  0.00  0.00    -0.312 N 
ATOM     20  C   UNL     1      34.433 -16.131 -22.888  0.00  0.00    -0.005 C 
ATOM     21  C   UNL     1      33.872 -14.924 -22.382  0.00  0.00    +0.011 C 
ATOM     22  C   UNL     1      33.286 -14.260 -23.462  0.00  0.00    +0.048 C 
ATOM     23  C   UNL     1      34.180 -16.175 -24.239  0.00  0.00    +0.058 C 
ATOM     24  C   UNL     1      33.807 -14.330 -21.107  0.00  0.00    +0.001 C 
ATOM     25  C   UNL     1      32.635 -13.029 -23.329  0.00  0.00    +0.015 C 
ATOM     26  C   UNL     1      33.160 -13.098 -20.958  0.00  0.00    +0.000 C 
ATOM     27  C   UNL     1      32.583 -12.459 -22.054  0.00  0.00    +0.001 C 
ATOM     28  H   UNL     1      33.180 -14.822 -25.485  0.00  0.00    +0.152 HD
ENDBRANCH  18  20
ENDBRANCH  17  18
ENDBRANCH   1  17
TORSDOF 6
ENDMDL
MODEL 4
REMARK VINA RESULT:     -12.1      3.041      9.680
REMARK  Name = 11609586
REMARK  6 active torsions:
REMARK  status: ('A' for Active; 'I' for Inactive)
REMARK    1  A    between atoms: N_1  and  C_3
REMARK    2  A    between atoms: N_1  and  C_17
REMARK    3  A    between atoms: C_6  and  N_9
REMARK    4  A    between atoms: N_9  and  C_12
REMARK    5  A    between atoms: C_17  and  C_18
REMARK    6  A    between atoms: C_18  and  C_20
REMARK                            x       y       z     vdW  Elec       q    Type
REMARK                         _______ _______ _______ _____ _____    ______ ____
ROOT
ATOM      1  N   UNL     1      35.459 -18.847 -21.195  0.00  0.00    -0.332 N 
ATOM      2  H   UNL     1      36.149 -19.164 -21.822  0.00  0.00    +0.147 HD
ENDROOT
BRANCH   1   3
ATOM      3  C   UNL     1      34.782 -19.793 -20.436  0.00  0.00    +0.045 C 
ATOM      4  C   UNL     1      35.486 -20.710 -19.636  0.00  0.00    +0.016 C 
ATOM      5  C   UNL     1      33.377 -19.855 -20.450  0.00  0.00    +0.016 C 
ATOM      6  C   UNL     1      33.412 -21.707 -18.899  0.00  0.00    +0.048 C 
ATOM      7  C   UNL     1      34.805 -21.660 -18.875  0.00  0.00    +0.016 C 
ATOM      8  C   UNL     1      32.697 -20.804 -19.687  0.00  0.00    +0.016 C 
BRANCH   6   9
ATOM      9  N   UNL     1      32.725 -22.666 -18.127  0.00  0.00    -0.312 N 
ATOM     10  H   UNL     1      32.434 -23.454 -18.640  0.00  0.00    +0.152 HD
BRANCH   9  12
ATOM     11  N   UNL     1      31.672 -22.821 -14.058  0.00  0.00    -0.242 NA
ATOM     12  C   UNL     1      32.372 -22.718 -16.764  0.00  0.00    +0.051 C 
ATOM     13  C   UNL     1      31.054 -22.510 -16.375  0.00  0.00    +0.035 C 
ATOM     14  C   UNL     1      33.342 -22.977 -15.800  0.00  0.00    +0.035 C 
ATOM     15  C   UNL     1      30.757 -22.572 -15.022  0.00  0.00    +0.100 C 
ATOM     16  C   UNL     1      32.943 -23.019 -14.474  0.00  0.00    +0.100 C 
ENDBRANCH   9  12
ENDBRANCH   6   9
ENDBRANCH   1   3
BRANCH   1  17
ATOM     17  C   UNL     1      35.213 -17.432 -21.119  0.00  0.00    +0.092 C 
BRANCH  17  18
ATOM     18  C   UNL     1      34.640 -16.872 -22.433  0.00  0.00    +0.049 C 
BRANCH  18  20
ATOM     19  N   UNL     1      33.617 -13.490 -21.511  0.00  0.00    -0.312 N 
ATOM     20  C   UNL     1      34.165 -15.476 -22.335  0.00  0.00    -0.005 C 
ATOM     21  C   UNL     1      33.680 -14.669 -23.403  0.00  0.00    +0.011 C 
ATOM     22  C   UNL     1      33.343 -13.428 -22.859  0.00  0.00    +0.048 C 
ATOM     23  C   UNL     1      34.113 -14.723 -21.186  0.00  0.00    +0.058 C 
ATOM     24  C   UNL     1      33.495 -14.876 -24.784  0.00  0.00    +0.001 C 
ATOM     25  C   UNL     1      32.828 -12.380 -23.629  0.00  0.00    +0.015 C 
ATOM     26  C   UNL     1      32.981 -13.836 -25.567  0.00  0.00    +0.000 C 
ATOM     27  C   UNL     1      32.654 -12.608 -24.997  0.00  0.00    +0.001 C 
ATOM     28  H   UNL     1      33.475 -12.754 -20.872  0.00  0.00    +0.152 HD
ENDBRANCH  18  20
ENDBRANCH  17  18
ENDBRANCH   1  17
TORSDOF 6
ENDMDL
MODEL 5
REMARK VINA RESULT:     -11.9      1.958      3.128
REMARK  Name = 11609586
REMARK  6 active torsions:
REMARK  status: ('A' for Active; 'I' for Inactive)
REMARK    1  A    between atoms: N_1  and  C_3
REMARK    2  A    between atoms: N_1  and  C_17
REMARK    3  A    between atoms: C_6  and  N_9
REMARK    4  A    between atoms: N_9  and  C_12
REMARK    5  A    between atoms: C_17  and  C_18
REMARK    6  A    between atoms: C_18  and  C_20
REMARK                            x       y       z     vdW  Elec       q    Type
REMARK                         _______ _______ _______ _____ _____    ______ ____
ROOT
ATOM      1  N   UNL     1      34.983 -17.579 -20.742  0.00  0.00    -0.332 N 
ATOM      2  H   UNL     1      35.644 -17.527 -20.014  0.00  0.00    +0.147 HD
ENDROOT
BRANCH   1   3
ATOM      3  C   UNL     1      34.591 -16.395 -21.353  0.00  0.00    +0.045 C 
ATOM      4  C   UNL     1      34.119 -15.314 -20.588  0.00  0.00    +0.016 C 
ATOM      5  C   UNL     1      34.657 -16.250 -22.750  0.00  0.00    +0.016 C 
ATOM      6  C   UNL     1      33.798 -13.998 -22.589  0.00  0.00    +0.048 C 
ATOM      7  C   UNL     1      33.725 -14.125 -21.203  0.00  0.00    +0.016 C 
ATOM      8  C   UNL     1      34.264 -15.061 -23.364  0.00  0.00    +0.016 C 
BRANCH   6   9
ATOM      9  N   UNL     1      33.402 -12.794 -23.209  0.00  0.00    -0.312 N 
ATOM     10  H   UNL     1      33.777 -12.670 -24.111  0.00  0.00    +0.152 HD
BRANCH   9  12
ATOM     11  N   UNL     1      30.931  -9.629 -21.960  0.00  0.00    -0.242 NA
ATOM     12  C   UNL     1      32.575 -11.734 -22.791  0.00  0.00    +0.051 C 
ATOM     13  C   UNL     1      31.551 -11.965 -21.879  0.00  0.00    +0.035 C 
ATOM     14  C   UNL     1      32.777 -10.450 -23.288  0.00  0.00    +0.035 C 
ATOM     15  C   UNL     1      30.764 -10.889 -21.498  0.00  0.00    +0.100 C 
ATOM     16  C   UNL     1      31.936  -9.443 -22.844  0.00  0.00    +0.100 C 
ENDBRANCH   9  12
ENDBRANCH   6   9
ENDBRANCH   1   3
BRANCH   1  17
ATOM     17  C   UNL     1      34.481 -18.875 -21.109  0.00  0.00    +0.092 C 
BRANCH  17  18
ATOM     18  C   UNL     1      35.278 -20.015 -20.449  0.00  0.00    +0.049 C 
BRANCH  18  20
ATOM     19  N   UNL     1      32.811 -21.951 -18.577  0.00  0.00    -0.312 N 
ATOM     20  C   UNL     1      34.489 -20.832 -19.504  0.00  0.00    -0.005 C 
ATOM     21  C   UNL     1      34.944 -21.375 -18.270  0.00  0.00    +0.011 C 
ATOM     22  C   UNL     1      33.872 -22.073 -17.708  0.00  0.00    +0.048 C 
ATOM     23  C   UNL     1      33.174 -21.203 -19.664  0.00  0.00    +0.058 C 
ATOM     24  C   UNL     1      36.169 -21.341 -17.574  0.00  0.00    +0.001 C 
ATOM     25  C   UNL     1      33.964 -22.740 -16.482  0.00  0.00    +0.015 C 
ATOM     26  C   UNL     1      36.275 -22.004 -16.346  0.00  0.00    +0.000 C 
ATOM     27  C   UNL     1      35.188 -22.693 -15.810  0.00  0.00    +0.001 C 
ATOM     28  H   UNL     1      31.919 -22.344 -18.437  0.00  0.00    +0.152 HD
ENDBRANCH  18  20
ENDBRANCH  17  18
ENDBRANCH   1  17
TORSDOF 6
ENDMDL
MODEL 6
REMARK VINA RESULT:     -11.9      1.574      9.041
REMARK  Name = 11609586
REMARK  6 active torsions:
REMARK  status: ('A' for Active; 'I' for Inactive)
REMARK    1  A    between atoms: N_1  and  C_3
REMARK    2  A    between atoms: N_1  and  C_17
REMARK    3  A    between atoms: C_6  and  N_9
REMARK    4  A    between atoms: N_9  and  C_12
REMARK    5  A    between atoms: C_17  and  C_18
REMARK    6  A    between atoms: C_18  and  C_20
REMARK                            x       y       z     vdW  Elec       q    Type
REMARK                         _______ _______ _______ _____ _____    ______ ____
ROOT
ATOM      1  N   UNL     1      33.961 -15.600 -24.513  0.00  0.00    -0.332 N 
ATOM      2  H   UNL     1      34.356 -15.686 -25.411  0.00  0.00    +0.147 HD
ENDROOT
BRANCH   1   3
ATOM      3  C   UNL     1      34.206 -16.611 -23.592  0.00  0.00    +0.045 C 
ATOM      4  C   UNL     1      33.914 -17.951 -23.901  0.00  0.00    +0.016 C 
ATOM      5  C   UNL     1      34.752 -16.318 -22.330  0.00  0.00    +0.016 C 
ATOM      6  C   UNL     1      34.703 -18.657 -21.729  0.00  0.00    +0.048 C 
ATOM      7  C   UNL     1      34.160 -18.966 -22.976  0.00  0.00    +0.016 C 
ATOM      8  C   UNL     1      34.999 -17.332 -21.406  0.00  0.00    +0.016 C 
BRANCH   6   9
ATOM      9  N   UNL     1      34.953 -19.684 -20.796  0.00  0.00    -0.312 N 
ATOM     10  H   UNL     1      35.904 -19.928 -20.721  0.00  0.00    +0.152 HD
BRANCH   9  12
ATOM     11  N   UNL     1      32.436 -21.909 -18.268  0.00  0.00    -0.242 NA
ATOM     12  C   UNL     1      34.110 -20.429 -19.949  0.00  0.00    +0.051 C 
ATOM     13  C   UNL     1      34.640 -21.421 -19.132  0.00  0.00    +0.035 C 
ATOM     14  C   UNL     1      32.742 -20.177 -19.926  0.00  0.00    +0.035 C 
ATOM     15  C   UNL     1      33.770 -22.127 -18.316  0.00  0.00    +0.100 C 
ATOM     16  C   UNL     1      31.956 -20.937 -19.075  0.00  0.00    +0.100 C 
ENDBRANCH   9  12
ENDBRANCH   6   9
ENDBRANCH   1   3
BRANCH   1  17
ATOM     17  C   UNL     1      33.165 -14.436 -24.232  0.00  0.00    +0.092 C 
BRANCH  17  18
ATOM     18  C   UNL     1      33.842 -13.502 -23.213  0.00  0.00    +0.049 C 
BRANCH  18  20
ATOM     19  N   UNL     1      31.649 -12.703 -20.405  0.00  0.00    -0.312 N 
ATOM     20  C   UNL     1      32.918 -12.932 -22.212  0.00  0.00    -0.005 C 
ATOM     21  C   UNL     1      32.303 -11.650 -22.259  0.00  0.00    +0.011 C 
ATOM     22  C   UNL     1      31.512 -11.531 -21.114  0.00  0.00    +0.048 C 
ATOM     23  C   UNL     1      32.496 -13.556 -21.060  0.00  0.00    +0.058 C 
ATOM     24  C   UNL     1      32.343 -10.575 -23.169  0.00  0.00    +0.001 C 
ATOM     25  C   UNL     1      30.757 -10.387 -20.832  0.00  0.00    +0.015 C 
ATOM     26  C   UNL     1      31.592  -9.424 -22.900  0.00  0.00    +0.000 C 
ATOM     27  C   UNL     1      30.813  -9.334 -21.748  0.00  0.00    +0.001 C 
ATOM     28  H   UNL     1      31.203 -12.901 -19.550  0.00  0.00    +0.152 HD
ENDBRANCH  18  20
ENDBRANCH  17  18
ENDBRANCH   1  17
TORSDOF 6
ENDMDL
MODEL 7
REMARK VINA RESULT:     -11.8      3.831     11.081
REMARK  Name = 11609586
REMARK  6 active torsions:
REMARK  status: ('A' for Active; 'I' for Inactive)
REMARK    1  A    between atoms: N_1  and  C_3
REMARK    2  A    between atoms: N_1  and  C_17
REMARK    3  A    between atoms: C_6  and  N_9
REMARK    4  A    between atoms: N_9  and  C_12
REMARK    5  A    between atoms: C_17  and  C_18
REMARK    6  A    between atoms: C_18  and  C_20
REMARK                            x       y       z     vdW  Elec       q    Type
REMARK                         _______ _______ _______ _____ _____    ______ ____
ROOT
ATOM      1  N   UNL     1      34.669 -20.761 -20.238  0.00  0.00    -0.332 N 
ATOM      2  H   UNL     1      34.965 -21.309 -21.001  0.00  0.00    +0.147 HD
ENDROOT
BRANCH   1   3
ATOM      3  C   UNL     1      34.851 -21.270 -18.959  0.00  0.00    +0.045 C 
ATOM      4  C   UNL     1      36.082 -21.123 -18.295  0.00  0.00    +0.016 C 
ATOM      5  C   UNL     1      33.810 -21.945 -18.298  0.00  0.00    +0.016 C 
ATOM      6  C   UNL     1      35.220 -22.301 -16.369  0.00  0.00    +0.048 C 
ATOM      7  C   UNL     1      36.265 -21.635 -17.010  0.00  0.00    +0.016 C 
ATOM      8  C   UNL     1      33.992 -22.456 -17.014  0.00  0.00    +0.016 C 
BRANCH   6   9
ATOM      9  N   UNL     1      35.405 -22.816 -15.070  0.00  0.00    -0.312 N 
ATOM     10  H   UNL     1      34.877 -22.353 -14.380  0.00  0.00    +0.152 HD
BRANCH   9  12
ATOM     11  N   UNL     1      37.770 -25.949 -13.560  0.00  0.00    -0.242 NA
ATOM     12  C   UNL     1      36.197 -23.865 -14.564  0.00  0.00    +0.051 C 
ATOM     13  C   UNL     1      35.895 -25.185 -14.881  0.00  0.00    +0.035 C 
ATOM     14  C   UNL     1      37.287 -23.587 -13.745  0.00  0.00    +0.035 C 
ATOM     15  C   UNL     1      36.704 -26.181 -14.359  0.00  0.00    +0.100 C 
ATOM     16  C   UNL     1      38.034 -24.654 -13.274  0.00  0.00    +0.100 C 
ENDBRANCH   9  12
ENDBRANCH   6   9
ENDBRANCH   1   3
BRANCH   1  17
ATOM     17  C   UNL     1      34.076 -19.481 -20.514  0.00  0.00    +0.092 C 
BRANCH  17  18
ATOM     18  C   UNL     1      35.134 -18.378 -20.697  0.00  0.00    +0.049 C 
BRANCH  18  20
ATOM     19  N   UNL     1      34.542 -16.557 -23.807  0.00  0.00    -0.312 N 
ATOM     20  C   UNL     1      34.828 -17.425 -21.785  0.00  0.00    -0.005 C 
ATOM     21  C   UNL     1      34.406 -16.074 -21.634  0.00  0.00    +0.011 C 
ATOM     22  C   UNL     1      34.234 -15.552 -22.918  0.00  0.00    +0.048 C 
ATOM     23  C   UNL     1      34.902 -17.692 -23.132  0.00  0.00    +0.058 C 
ATOM     24  C   UNL     1      34.154 -15.242 -20.525  0.00  0.00    +0.001 C 
ATOM     25  C   UNL     1      33.821 -14.236 -23.149  0.00  0.00    +0.015 C 
ATOM     26  C   UNL     1      33.740 -13.923 -20.742  0.00  0.00    +0.000 C 
ATOM     27  C   UNL     1      33.576 -13.430 -22.035  0.00  0.00    +0.001 C 
ATOM     28  H   UNL     1      34.509 -16.472 -24.788  0.00  0.00    +0.152 HD
ENDBRANCH  18  20
ENDBRANCH  17  18
ENDBRANCH   1  17
TORSDOF 6
ENDMDL
MODEL 8
REMARK VINA RESULT:     -11.8      4.697      8.032
REMARK  Name = 11609586
REMARK  6 active torsions:
REMARK  status: ('A' for Active; 'I' for Inactive)
REMARK    1  A    between atoms: N_1  and  C_3
REMARK    2  A    between atoms: N_1  and  C_17
REMARK    3  A    between atoms: C_6  and  N_9
REMARK    4  A    between atoms: N_9  and  C_12
REMARK    5  A    between atoms: C_17  and  C_18
REMARK    6  A    between atoms: C_18  and  C_20
REMARK                            x       y       z     vdW  Elec       q    Type
REMARK                         _______ _______ _______ _____ _____    ______ ____
ROOT
ATOM      1  N   UNL     1      33.057 -22.994 -18.163  0.00  0.00    -0.332 N 
ATOM      2  H   UNL     1      33.357 -23.892 -18.436  0.00  0.00    +0.147 HD
ENDROOT
BRANCH   1   3
ATOM      3  C   UNL     1      33.517 -21.904 -18.890  0.00  0.00    +0.045 C 
ATOM      4  C   UNL     1      34.896 -21.669 -19.039  0.00  0.00    +0.016 C 
ATOM      5  C   UNL     1      32.616 -21.010 -19.495  0.00  0.00    +0.016 C 
ATOM      6  C   UNL     1      34.449 -19.698 -20.363  0.00  0.00    +0.048 C 
ATOM      7  C   UNL     1      35.357 -20.574 -19.769  0.00  0.00    +0.016 C 
ATOM      8  C   UNL     1      33.078 -19.916 -20.226  0.00  0.00    +0.016 C 
BRANCH   6   9
ATOM      9  N   UNL     1      34.917 -18.592 -21.103  0.00  0.00    -0.312 N 
ATOM     10  H   UNL     1      35.701 -18.151 -20.704  0.00  0.00    +0.152 HD
BRANCH   9  12
ATOM     11  N   UNL     1      33.618 -16.808 -24.683  0.00  0.00    -0.242 NA
ATOM     12  C   UNL     1      34.482 -17.994 -22.302  0.00  0.00    +0.051 C 
ATOM     13  C   UNL     1      33.871 -18.765 -23.285  0.00  0.00    +0.035 C 
ATOM     14  C   UNL     1      34.661 -16.630 -22.509  0.00  0.00    +0.035 C 
ATOM     15  C   UNL     1      33.460 -18.130 -24.447  0.00  0.00    +0.100 C 
ATOM     16  C   UNL     1      34.215 -16.091 -23.704  0.00  0.00    +0.100 C 
ENDBRANCH   9  12
ENDBRANCH   6   9
ENDBRANCH   1   3
BRANCH   1  17
ATOM     17  C   UNL     1      32.169 -22.890 -17.038  0.00  0.00    +0.092 C 
BRANCH  17  18
ATOM     18  C   UNL     1      32.862 -22.278 -15.807  0.00  0.00    +0.049 C 
BRANCH  18  20
ATOM     19  N   UNL     1      34.896 -24.768 -14.076  0.00  0.00    -0.312 N 
ATOM     20  C   UNL     1      33.904 -23.140 -15.212  0.00  0.00    -0.005 C 
ATOM     21  C   UNL     1      35.312 -22.980 -15.343  0.00  0.00    +0.011 C 
ATOM     22  C   UNL     1      35.911 -24.015 -14.621  0.00  0.00    +0.048 C 
ATOM     23  C   UNL     1      33.680 -24.247 -14.427  0.00  0.00    +0.058 C 
ATOM     24  C   UNL     1      36.137 -22.053 -16.009  0.00  0.00    +0.001 C 
ATOM     25  C   UNL     1      37.299 -24.168 -14.531  0.00  0.00    +0.015 C 
ATOM     26  C   UNL     1      37.527 -22.194 -15.928  0.00  0.00    +0.000 C 
ATOM     27  C   UNL     1      38.097 -23.236 -15.200  0.00  0.00    +0.001 C 
ATOM     28  H   UNL     1      35.025 -25.566 -13.513  0.00  0.00    +0.152 HD
ENDBRANCH  18  20
ENDBRANCH  17  18
ENDBRANCH   1  17
TORSDOF 6
ENDMDL
MODEL 9
REMARK VINA RESULT:     -11.7      4.119      7.860
REMARK  Name = 11609586
REMARK  6 active torsions:
REMARK  status: ('A' for Active; 'I' for Inactive)
REMARK    1  A    between atoms: N_1  and  C_3
REMARK    2  A    between atoms: N_1  and  C_17
REMARK    3  A    between atoms: C_6  and  N_9
REMARK    4  A    between atoms: N_9  and  C_12
REMARK    5  A    between atoms: C_17  and  C_18
REMARK    6  A    between atoms: C_18  and  C_20
REMARK                            x       y       z     vdW  Elec       q    Type
REMARK                         _______ _______ _______ _____ _____    ______ ____
ROOT
ATOM      1  N   UNL     1      32.453 -22.323 -17.828  0.00  0.00    -0.332 N 
ATOM      2  H   UNL     1      31.481 -22.208 -17.722  0.00  0.00    +0.147 HD
ENDROOT
BRANCH   1   3
ATOM      3  C   UNL     1      33.111 -21.504 -18.737  0.00  0.00    +0.045 C 
ATOM      4  C   UNL     1      34.504 -21.591 -18.906  0.00  0.00    +0.016 C 
ATOM      5  C   UNL     1      32.399 -20.569 -19.509  0.00  0.00    +0.016 C 
ATOM      6  C   UNL     1      34.442 -19.847 -20.577  0.00  0.00    +0.048 C 
ATOM      7  C   UNL     1      35.164 -20.767 -19.818  0.00  0.00    +0.016 C 
ATOM      8  C   UNL     1      33.059 -19.747 -20.422  0.00  0.00    +0.016 C 
BRANCH   6   9
ATOM      9  N   UNL     1      35.110 -19.016 -21.501  0.00  0.00    -0.312 N 
ATOM     10  H   UNL     1      36.042 -19.282 -21.670  0.00  0.00    +0.152 HD
BRANCH   9  12
ATOM     11  N   UNL     1      33.898 -15.627 -23.676  0.00  0.00    -0.242 NA
ATOM     12  C   UNL     1      34.704 -17.881 -22.229  0.00  0.00    +0.051 C 
ATOM     13  C   UNL     1      34.170 -18.024 -23.505  0.00  0.00    +0.035 C 
ATOM     14  C   UNL     1      34.835 -16.611 -21.676  0.00  0.00    +0.035 C 
ATOM     15  C   UNL     1      33.785 -16.877 -24.181  0.00  0.00    +0.100 C 
ATOM     16  C   UNL     1      34.421 -15.528 -22.433  0.00  0.00    +0.100 C 
ENDBRANCH   9  12
ENDBRANCH   6   9
ENDBRANCH   1   3
BRANCH   1  17
ATOM     17  C   UNL     1      33.107 -23.328 -17.035  0.00  0.00    +0.092 C 
BRANCH  17  18
ATOM     18  C   UNL     1      33.518 -22.797 -15.650  0.00  0.00    +0.049 C 
BRANCH  18  20
ATOM     19  N   UNL     1      37.082 -22.109 -15.250  0.00  0.00    -0.312 N 
ATOM     20  C   UNL     1      34.976 -22.792 -15.415  0.00  0.00    -0.005 C 
ATOM     21  C   UNL     1      35.772 -23.898 -15.004  0.00  0.00    +0.011 C 
ATOM     22  C   UNL     1      37.089 -23.443 -14.908  0.00  0.00    +0.048 C 
ATOM     23  C   UNL     1      35.811 -21.707 -15.558  0.00  0.00    +0.058 C 
ATOM     24  C   UNL     1      35.498 -25.247 -14.704  0.00  0.00    +0.001 C 
ATOM     25  C   UNL     1      38.149 -24.272 -14.525  0.00  0.00    +0.015 C 
ATOM     26  C   UNL     1      36.549 -26.088 -14.319  0.00  0.00    +0.000 C 
ATOM     27  C   UNL     1      37.854 -25.606 -14.232  0.00  0.00    +0.001 C 
ATOM     28  H   UNL     1      37.877 -21.528 -15.271  0.00  0.00    +0.152 HD
ENDBRANCH  18  20
ENDBRANCH  17  18
ENDBRANCH   1  17
TORSDOF 6
ENDMDL
