MODEL 1
REMARK VINA RESULT:     -12.5      0.000      0.000
REMARK  Name = 4470566
REMARK  6 active torsions:
REMARK  status: ('A' for Active; 'I' for Inactive)
REMARK    1  A    between atoms: N_4  and  C_23
REMARK    2  A    between atoms: C_13  and  C_14
REMARK    3  A    between atoms: C_17  and  N_22
REMARK    4  A    between atoms: C_23  and  C_24
REMARK    5  A    between atoms: C_24  and  C_25
REMARK    6  A    between atoms: C_25  and  N_27
REMARK                            x       y       z     vdW  Elec       q    Type
REMARK                         _______ _______ _______ _____ _____    ______ ____
ROOT
ATOM      1  S   UNL     1      34.192 -18.682 -23.278  0.00  0.00    -0.086 S 
ATOM      2  S   UNL     1      33.926 -13.180 -20.869  0.00  0.00    -0.017 S 
ATOM      3  O   UNL     1      33.004 -13.237 -25.892  0.00  0.00    -0.268 OA
ATOM      4  N   UNL     1      33.385 -12.878 -23.579  0.00  0.00    -0.237 N 
ATOM      5  N   UNL     1      33.758 -14.920 -22.994  0.00  0.00    -0.244 N 
ATOM      6  C   UNL     1      33.516 -14.950 -24.329  0.00  0.00    +0.112 C 
ATOM      7  C   UNL     1      34.002 -16.199 -22.573  0.00  0.00    +0.064 C 
ATOM      8  C   UNL     1      33.695 -13.649 -22.444  0.00  0.00    +0.152 C 
ATOM      9  C   UNL     1      33.263 -13.618 -24.761  0.00  0.00    +0.268 C 
ATOM     10  C   UNL     1      33.904 -17.019 -23.674  0.00  0.00    +0.045 C 
ATOM     11  C   UNL     1      33.588 -16.221 -24.822  0.00  0.00    +0.028 C 
ATOM     12  C   UNL     1      34.313 -16.897 -21.375  0.00  0.00    +0.022 C 
ATOM     13  C   UNL     1      34.439 -18.245 -21.633  0.00  0.00    +0.031 C 
ENDROOT
BRANCH  13  14
ATOM     14  C   UNL     1      34.748 -19.302 -20.696  0.00  0.00    +0.008 C 
ATOM     15  C   UNL     1      33.733 -20.131 -20.223  0.00  0.00    +0.025 C 
ATOM     16  C   UNL     1      36.061 -19.488 -20.270  0.00  0.00    +0.001 C 
ATOM     17  C   UNL     1      34.033 -21.151 -19.321  0.00  0.00    +0.143 C 
ATOM     18  C   UNL     1      36.361 -20.508 -19.367  0.00  0.00    +0.002 C 
ATOM     19  C   UNL     1      35.347 -21.339 -18.893  0.00  0.00    +0.024 C 
BRANCH  17  22
ATOM     20  O   UNL     1      31.881 -21.496 -18.567  0.00  0.00    -0.126 OA
ATOM     21  O   UNL     1      33.234 -23.221 -18.691  0.00  0.00    -0.126 OA
ATOM     22  N   UNL     1      33.000 -21.996 -18.837  0.00  0.00    +0.058 N 
ENDBRANCH  17  22
ENDBRANCH  13  14
BRANCH   4  23
ATOM     23  C   UNL     1      33.202 -11.433 -23.563  0.00  0.00    +0.098 C 
BRANCH  23  24
ATOM     24  C   UNL     1      31.897 -11.016 -22.888  0.00  0.00    -0.001 C 
BRANCH  24  25
ATOM     25  C   UNL     1      31.640  -9.506 -22.886  0.00  0.00    -0.075 C 
BRANCH  25  27
ATOM     26  O   UNL     1      31.803  -8.381 -18.846  0.00  0.00    -0.358 OA
ATOM     27  N   UNL     1      31.250  -9.020 -21.565  0.00  0.00    +0.390 N 
ATOM     28  C   UNL     1      32.023  -7.825 -21.197  0.00  0.00    -0.045 C 
ATOM     29  C   UNL     1      31.431 -10.068 -20.549  0.00  0.00    -0.045 C 
ATOM     30  C   UNL     1      31.608  -7.345 -19.810  0.00  0.00    +0.119 C 
ATOM     31  C   UNL     1      31.028  -9.534 -19.177  0.00  0.00    +0.119 C 
ATOM     32  H   UNL     1      30.262  -8.771 -21.602  0.00  0.00    -0.079 HD
ENDBRANCH  25  27
ENDBRANCH  24  25
ENDBRANCH  23  24
ENDBRANCH   4  23
TORSDOF 6
ENDMDL
MODEL 2
REMARK VINA RESULT:     -11.9      4.559      8.189
REMARK  Name = 4470566
REMARK  6 active torsions:
REMARK  status: ('A' for Active; 'I' for Inactive)
REMARK    1  A    between atoms: N_4  and  C_23
REMARK    2  A    between atoms: C_13  and  C_14
REMARK    3  A    between atoms: C_17  and  N_22
REMARK    4  A    between atoms: C_23  and  C_24
REMARK    5  A    between atoms: C_24  and  C_25
REMARK    6  A    between atoms: C_25  and  N_27
REMARK                            x       y       z     vdW  Elec       q    Type
REMARK                         _______ _______ _______ _____ _____    ______ ____
ROOT
ATOM      1  S   UNL     1      33.724 -23.283 -15.398  0.00  0.00    -0.086 S 
ATOM      2  S   UNL     1      36.553 -20.113 -19.653  0.00  0.00    -0.017 S 
ATOM      3  O   UNL     1      31.535 -20.590 -20.482  0.00  0.00    -0.268 OA
ATOM      4  N   UNL     1      33.872 -20.191 -20.383  0.00  0.00    -0.237 N 
ATOM      5  N   UNL     1      34.297 -21.237 -18.546  0.00  0.00    -0.244 N 
ATOM      6  C   UNL     1      32.964 -21.372 -18.754  0.00  0.00    +0.112 C 
ATOM      7  C   UNL     1      34.620 -21.887 -17.385  0.00  0.00    +0.064 C 
ATOM      8  C   UNL     1      34.945 -20.505 -19.530  0.00  0.00    +0.152 C 
ATOM      9  C   UNL     1      32.635 -20.694 -19.961  0.00  0.00    +0.268 C 
ATOM     10  C   UNL     1      33.458 -22.425 -16.881  0.00  0.00    +0.045 C 
ATOM     11  C   UNL     1      32.373 -22.098 -17.760  0.00  0.00    +0.028 C 
ATOM     12  C   UNL     1      35.761 -22.154 -16.583  0.00  0.00    +0.022 C 
ATOM     13  C   UNL     1      35.399 -22.901 -15.482  0.00  0.00    +0.031 C 
ENDROOT
BRANCH  13  14
ATOM     14  C   UNL     1      36.253 -23.385 -14.419  0.00  0.00    +0.008 C 
ATOM     15  C   UNL     1      37.487 -23.954 -14.724  0.00  0.00    +0.025 C 
ATOM     16  C   UNL     1      35.837 -23.279 -13.094  0.00  0.00    +0.001 C 
ATOM     17  C   UNL     1      38.311 -24.418 -13.699  0.00  0.00    +0.143 C 
ATOM     18  C   UNL     1      36.660 -23.745 -12.069  0.00  0.00    +0.002 C 
ATOM     19  C   UNL     1      37.897 -24.313 -12.372  0.00  0.00    +0.024 C 
BRANCH  17  22
ATOM     20  O   UNL     1      39.646 -26.244 -14.146  0.00  0.00    -0.126 OA
ATOM     21  O   UNL     1      40.570 -24.252 -14.132  0.00  0.00    -0.126 OA
ATOM     22  N   UNL     1      39.569 -24.999 -14.008  0.00  0.00    +0.058 N 
ENDBRANCH  17  22
ENDBRANCH  13  14
BRANCH   4  23
ATOM     23  C   UNL     1      33.999 -19.414 -21.608  0.00  0.00    +0.098 C 
BRANCH  23  24
ATOM     24  C   UNL     1      34.254 -17.932 -21.338  0.00  0.00    -0.001 C 
BRANCH  24  25
ATOM     25  C   UNL     1      35.388 -17.324 -22.169  0.00  0.00    -0.075 C 
BRANCH  25  27
ATOM     26  O   UNL     1      32.966 -14.318 -23.814  0.00  0.00    -0.358 OA
ATOM     27  N   UNL     1      34.960 -16.121 -22.879  0.00  0.00    +0.390 N 
ATOM     28  C   UNL     1      34.276 -15.192 -21.969  0.00  0.00    -0.045 C 
ATOM     29  C   UNL     1      34.077 -16.465 -24.003  0.00  0.00    -0.045 C 
ATOM     30  C   UNL     1      33.827 -13.951 -22.735  0.00  0.00    +0.119 C 
ATOM     31  C   UNL     1      33.634 -15.194 -24.722  0.00  0.00    +0.119 C 
ATOM     32  H   UNL     1      35.792 -15.662 -23.248  0.00  0.00    -0.079 HD
ENDBRANCH  25  27
ENDBRANCH  24  25
ENDBRANCH  23  24
ENDBRANCH   4  23
TORSDOF 6
ENDMDL
MODEL 3
REMARK VINA RESULT:     -11.7      4.661      8.205
REMARK  Name = 4470566
REMARK  6 active torsions:
REMARK  status: ('A' for Active; 'I' for Inactive)
REMARK    1  A    between atoms: N_4  and  C_23
REMARK    2  A    between atoms: C_13  and  C_14
REMARK    3  A    between atoms: C_17  and  N_22
REMARK    4  A    between atoms: C_23  and  C_24
REMARK    5  A    between atoms: C_24  and  C_25
REMARK    6  A    between atoms: C_25  and  N_27
REMARK                            x       y       z     vdW  Elec       q    Type
REMARK                         _______ _______ _______ _____ _____    ______ ____
ROOT
ATOM      1  S   UNL     1      33.507 -23.309 -15.367  0.00  0.00    -0.086 S 
ATOM      2  S   UNL     1      36.536 -20.194 -19.523  0.00  0.00    -0.017 S 
ATOM      3  O   UNL     1      31.550 -20.619 -20.546  0.00  0.00    -0.268 OA
ATOM      4  N   UNL     1      33.885 -20.246 -20.358  0.00  0.00    -0.237 N 
ATOM      5  N   UNL     1      34.227 -21.286 -18.500  0.00  0.00    -0.244 N 
ATOM      6  C   UNL     1      32.901 -21.408 -18.760  0.00  0.00    +0.112 C 
ATOM      7  C   UNL     1      34.496 -21.934 -17.324  0.00  0.00    +0.064 C 
ATOM      8  C   UNL     1      34.921 -20.567 -19.461  0.00  0.00    +0.152 C 
ATOM      9  C   UNL     1      32.627 -20.733 -19.982  0.00  0.00    +0.268 C 
ATOM     10  C   UNL     1      33.308 -22.456 -16.864  0.00  0.00    +0.045 C 
ATOM     11  C   UNL     1      32.263 -22.122 -17.786  0.00  0.00    +0.028 C 
ATOM     12  C   UNL     1      35.602 -22.210 -16.476  0.00  0.00    +0.022 C 
ATOM     13  C   UNL     1      35.188 -22.947 -15.387  0.00  0.00    +0.031 C 
ENDROOT
BRANCH  13  14
ATOM     14  C   UNL     1      35.994 -23.435 -14.289  0.00  0.00    +0.008 C 
ATOM     15  C   UNL     1      35.446 -23.529 -13.012  0.00  0.00    +0.025 C 
ATOM     16  C   UNL     1      37.316 -23.810 -14.515  0.00  0.00    +0.001 C 
ATOM     17  C   UNL     1      36.223 -24.001 -11.955  0.00  0.00    +0.143 C 
ATOM     18  C   UNL     1      38.094 -24.282 -13.457  0.00  0.00    +0.002 C 
ATOM     19  C   UNL     1      37.547 -24.378 -12.178  0.00  0.00    +0.024 C 
BRANCH  17  22
ATOM     20  O   UNL     1      34.602 -24.741 -10.492  0.00  0.00    -0.126 OA
ATOM     21  O   UNL     1      36.253 -23.532  -9.698  0.00  0.00    -0.126 OA
ATOM     22  N   UNL     1      35.666 -24.096 -10.653  0.00  0.00    +0.058 N 
ENDBRANCH  17  22
ENDBRANCH  13  14
BRANCH   4  23
ATOM     23  C   UNL     1      34.069 -19.477 -21.581  0.00  0.00    +0.098 C 
BRANCH  23  24
ATOM     24  C   UNL     1      34.264 -17.986 -21.311  0.00  0.00    -0.001 C 
BRANCH  24  25
ATOM     25  C   UNL     1      35.412 -17.346 -22.097  0.00  0.00    -0.075 C 
BRANCH  25  27
ATOM     26  O   UNL     1      32.971 -14.394 -23.812  0.00  0.00    -0.358 OA
ATOM     27  N   UNL     1      34.977 -16.158 -22.829  0.00  0.00    +0.390 N 
ATOM     28  C   UNL     1      34.271 -15.226 -21.940  0.00  0.00    -0.045 C 
ATOM     29  C   UNL     1      34.112 -16.529 -23.958  0.00  0.00    -0.045 C 
ATOM     30  C   UNL     1      33.815 -14.002 -22.728  0.00  0.00    +0.119 C 
ATOM     31  C   UNL     1      33.661 -15.274 -24.700  0.00  0.00    +0.119 C 
ATOM     32  H   UNL     1      35.808 -15.694 -23.195  0.00  0.00    -0.079 HD
ENDBRANCH  25  27
ENDBRANCH  24  25
ENDBRANCH  23  24
ENDBRANCH   4  23
TORSDOF 6
ENDMDL
MODEL 4
REMARK VINA RESULT:     -11.2      6.063     12.395
REMARK  Name = 4470566
REMARK  6 active torsions:
REMARK  status: ('A' for Active; 'I' for Inactive)
REMARK    1  A    between atoms: N_4  and  C_23
REMARK    2  A    between atoms: C_13  and  C_14
REMARK    3  A    between atoms: C_17  and  N_22
REMARK    4  A    between atoms: C_23  and  C_24
REMARK    5  A    between atoms: C_24  and  C_25
REMARK    6  A    between atoms: C_25  and  N_27
REMARK                            x       y       z     vdW  Elec       q    Type
REMARK                         _______ _______ _______ _____ _____    ______ ____
ROOT
ATOM      1  S   UNL     1      32.737 -20.856 -19.649  0.00  0.00    -0.086 S 
ATOM      2  S   UNL     1      36.992 -22.377 -15.682  0.00  0.00    -0.017 S 
ATOM      3  O   UNL     1      32.402 -24.328 -14.576  0.00  0.00    -0.268 OA
ATOM      4  N   UNL     1      34.641 -23.579 -14.812  0.00  0.00    -0.237 N 
ATOM      5  N   UNL     1      34.406 -22.433 -16.623  0.00  0.00    -0.244 N 
ATOM      6  C   UNL     1      33.182 -22.944 -16.341  0.00  0.00    +0.112 C 
ATOM      7  C   UNL     1      34.310 -21.692 -17.771  0.00  0.00    +0.064 C 
ATOM      8  C   UNL     1      35.384 -22.786 -15.706  0.00  0.00    +0.152 C 
ATOM      9  C   UNL     1      33.288 -23.712 -15.148  0.00  0.00    +0.268 C 
ATOM     10  C   UNL     1      33.001 -21.758 -18.191  0.00  0.00    +0.045 C 
ATOM     11  C   UNL     1      32.256 -22.568 -17.272  0.00  0.00    +0.028 C 
ATOM     12  C   UNL     1      35.138 -20.909 -18.619  0.00  0.00    +0.022 C 
ATOM     13  C   UNL     1      34.397 -20.406 -19.668  0.00  0.00    +0.031 C 
ENDROOT
BRANCH  13  14
ATOM     14  C   UNL     1      34.853 -19.564 -20.751  0.00  0.00    +0.008 C 
ATOM     15  C   UNL     1      33.999 -19.273 -21.812  0.00  0.00    +0.025 C 
ATOM     16  C   UNL     1      36.146 -19.046 -20.729  0.00  0.00    +0.001 C 
ATOM     17  C   UNL     1      34.439 -18.459 -22.855  0.00  0.00    +0.143 C 
ATOM     18  C   UNL     1      36.587 -18.233 -21.773  0.00  0.00    +0.002 C 
ATOM     19  C   UNL     1      35.733 -17.939 -22.836  0.00  0.00    +0.024 C 
BRANCH  17  22
ATOM     20  O   UNL     1      33.814 -17.162 -24.657  0.00  0.00    -0.126 OA
ATOM     21  O   UNL     1      32.582 -18.906 -24.147  0.00  0.00    -0.126 OA
ATOM     22  N   UNL     1      33.571 -18.162 -23.938  0.00  0.00    +0.058 N 
ENDBRANCH  17  22
ENDBRANCH  13  14
BRANCH   4  23
ATOM     23  C   UNL     1      35.197 -24.221 -13.628  0.00  0.00    +0.098 C 
BRANCH  23  24
ATOM     24  C   UNL     1      35.882 -25.547 -13.949  0.00  0.00    -0.001 C 
BRANCH  24  25
ATOM     25  C   UNL     1      36.835 -26.047 -12.858  0.00  0.00    -0.075 C 
BRANCH  25  27
ATOM     26  O   UNL     1      40.213 -24.136 -14.454  0.00  0.00    -0.358 OA
ATOM     27  N   UNL     1      38.224 -25.693 -13.143  0.00  0.00    +0.390 N 
ATOM     28  C   UNL     1      38.502 -24.306 -12.743  0.00  0.00    -0.045 C 
ATOM     29  C   UNL     1      38.527 -25.876 -14.569  0.00  0.00    -0.045 C 
ATOM     30  C   UNL     1      39.952 -23.956 -13.062  0.00  0.00    +0.119 C 
ATOM     31  C   UNL     1      39.978 -25.489 -14.844  0.00  0.00    +0.119 C 
ATOM     32  H   UNL     1      38.822 -26.315 -12.601  0.00  0.00    -0.079 HD
ENDBRANCH  25  27
ENDBRANCH  24  25
ENDBRANCH  23  24
ENDBRANCH   4  23
TORSDOF 6
ENDMDL
MODEL 5
REMARK VINA RESULT:     -10.7      4.215      7.297
REMARK  Name = 4470566
REMARK  6 active torsions:
REMARK  status: ('A' for Active; 'I' for Inactive)
REMARK    1  A    between atoms: N_4  and  C_23
REMARK    2  A    between atoms: C_13  and  C_14
REMARK    3  A    between atoms: C_17  and  N_22
REMARK    4  A    between atoms: C_23  and  C_24
REMARK    5  A    between atoms: C_24  and  C_25
REMARK    6  A    between atoms: C_25  and  N_27
REMARK                            x       y       z     vdW  Elec       q    Type
REMARK                         _______ _______ _______ _____ _____    ______ ____
ROOT
ATOM      1  S   UNL     1      34.696 -22.768 -15.985  0.00  0.00    -0.086 S 
ATOM      2  S   UNL     1      31.782 -20.162 -20.553  0.00  0.00    -0.017 S 
ATOM      3  O   UNL     1      36.848 -19.539 -20.763  0.00  0.00    -0.268 OA
ATOM      4  N   UNL     1      34.486 -19.649 -20.951  0.00  0.00    -0.237 N 
ATOM      5  N   UNL     1      34.077 -20.809 -19.179  0.00  0.00    -0.244 N 
ATOM      6  C   UNL     1      35.424 -20.650 -19.222  0.00  0.00    +0.112 C 
ATOM      7  C   UNL     1      33.765 -21.542 -18.066  0.00  0.00    +0.064 C 
ATOM      8  C   UNL     1      33.410 -20.206 -20.234  0.00  0.00    +0.152 C 
ATOM      9  C   UNL     1      35.742 -19.888 -20.380  0.00  0.00    +0.268 C 
ATOM     10  C   UNL     1      34.947 -21.834 -17.424  0.00  0.00    +0.045 C 
ATOM     11  C   UNL     1      36.034 -21.261 -18.163  0.00  0.00    +0.028 C 
ATOM     12  C   UNL     1      32.620 -22.069 -17.410  0.00  0.00    +0.022 C 
ATOM     13  C   UNL     1      33.000 -22.751 -16.273  0.00  0.00    +0.031 C 
ENDROOT
BRANCH  13  14
ATOM     14  C   UNL     1      32.150 -23.435 -15.324  0.00  0.00    +0.008 C 
ATOM     15  C   UNL     1      30.791 -23.583 -15.590  0.00  0.00    +0.025 C 
ATOM     16  C   UNL     1      32.694 -23.944 -14.147  0.00  0.00    +0.001 C 
ATOM     17  C   UNL     1      29.972 -24.244 -14.675  0.00  0.00    +0.143 C 
ATOM     18  C   UNL     1      31.875 -24.604 -13.232  0.00  0.00    +0.002 C 
ATOM     19  C   UNL     1      30.514 -24.754 -13.496  0.00  0.00    +0.024 C 
BRANCH  17  22
ATOM     20  O   UNL     1      27.903 -25.150 -14.210  0.00  0.00    -0.126 OA
ATOM     21  O   UNL     1      28.081 -23.769 -15.908  0.00  0.00    -0.126 OA
ATOM     22  N   UNL     1      28.586 -24.395 -14.943  0.00  0.00    +0.058 N 
ENDBRANCH  17  22
ENDBRANCH  13  14
BRANCH   4  23
ATOM     23  C   UNL     1      34.342 -18.885 -22.182  0.00  0.00    +0.098 C 
BRANCH  23  24
ATOM     24  C   UNL     1      34.809 -17.438 -22.031  0.00  0.00    -0.001 C 
BRANCH  24  25
ATOM     25  C   UNL     1      34.445 -16.530 -23.209  0.00  0.00    -0.075 C 
BRANCH  25  27
ATOM     26  O   UNL     1      32.937 -12.866 -21.823  0.00  0.00    -0.358 OA
ATOM     27  N   UNL     1      34.359 -15.127 -22.809  0.00  0.00    +0.390 N 
ATOM     28  C   UNL     1      33.991 -15.009 -21.391  0.00  0.00    -0.045 C 
ATOM     29  C   UNL     1      33.386 -14.405 -23.643  0.00  0.00    -0.045 C 
ATOM     30  C   UNL     1      33.894 -13.537 -21.001  0.00  0.00    +0.119 C 
ATOM     31  C   UNL     1      33.305 -12.947 -23.200  0.00  0.00    +0.119 C 
ATOM     32  H   UNL     1      35.278 -14.706 -22.944  0.00  0.00    -0.079 HD
ENDBRANCH  25  27
ENDBRANCH  24  25
ENDBRANCH  23  24
ENDBRANCH   4  23
TORSDOF 6
ENDMDL
MODEL 6
REMARK VINA RESULT:     -10.6      1.924      2.332
REMARK  Name = 4470566
REMARK  6 active torsions:
REMARK  status: ('A' for Active; 'I' for Inactive)
REMARK    1  A    between atoms: N_4  and  C_23
REMARK    2  A    between atoms: C_13  and  C_14
REMARK    3  A    between atoms: C_17  and  N_22
REMARK    4  A    between atoms: C_23  and  C_24
REMARK    5  A    between atoms: C_24  and  C_25
REMARK    6  A    between atoms: C_25  and  N_27
REMARK                            x       y       z     vdW  Elec       q    Type
REMARK                         _______ _______ _______ _____ _____    ______ ____
ROOT
ATOM      1  S   UNL     1      34.588 -17.959 -23.517  0.00  0.00    -0.086 S 
ATOM      2  S   UNL     1      32.733 -13.000 -20.668  0.00  0.00    -0.017 S 
ATOM      3  O   UNL     1      32.728 -12.534 -25.754  0.00  0.00    -0.268 OA
ATOM      4  N   UNL     1      32.617 -12.433 -23.387  0.00  0.00    -0.237 N 
ATOM      5  N   UNL     1      33.313 -14.427 -22.948  0.00  0.00    -0.244 N 
ATOM      6  C   UNL     1      33.318 -14.317 -24.300  0.00  0.00    +0.112 C 
ATOM      7  C   UNL     1      33.750 -15.682 -22.617  0.00  0.00    +0.064 C 
ATOM      8  C   UNL     1      32.884 -13.281 -22.296  0.00  0.00    +0.152 C 
ATOM      9  C   UNL     1      32.863 -13.011 -24.639  0.00  0.00    +0.268 C 
ATOM     10  C   UNL     1      34.022 -16.343 -23.793  0.00  0.00    +0.045 C 
ATOM     11  C   UNL     1      33.746 -15.469 -24.895  0.00  0.00    +0.028 C 
ATOM     12  C   UNL     1      33.991 -16.466 -21.457  0.00  0.00    +0.022 C 
ATOM     13  C   UNL     1      34.446 -17.716 -21.820  0.00  0.00    +0.031 C 
ENDROOT
BRANCH  13  14
ATOM     14  C   UNL     1      34.808 -18.814 -20.951  0.00  0.00    +0.008 C 
ATOM     15  C   UNL     1      33.837 -19.721 -20.536  0.00  0.00    +0.025 C 
ATOM     16  C   UNL     1      36.129 -18.959 -20.533  0.00  0.00    +0.001 C 
ATOM     17  C   UNL     1      34.188 -20.781 -19.700  0.00  0.00    +0.143 C 
ATOM     18  C   UNL     1      36.480 -20.018 -19.695  0.00  0.00    +0.002 C 
ATOM     19  C   UNL     1      35.509 -20.929 -19.279  0.00  0.00    +0.024 C 
BRANCH  17  22
ATOM     20  O   UNL     1      32.040 -21.289 -19.030  0.00  0.00    -0.126 OA
ATOM     21  O   UNL     1      33.510 -22.916 -19.154  0.00  0.00    -0.126 OA
ATOM     22  N   UNL     1      33.199 -21.706 -19.275  0.00  0.00    +0.058 N 
ENDBRANCH  17  22
ENDBRANCH  13  14
BRANCH   4  23
ATOM     23  C   UNL     1      32.127 -11.067 -23.263  0.00  0.00    +0.098 C 
BRANCH  23  24
ATOM     24  C   UNL     1      33.253 -10.036 -23.305  0.00  0.00    -0.001 C 
BRANCH  24  25
ATOM     25  C   UNL     1      32.924  -8.712 -22.609  0.00  0.00    -0.075 C 
BRANCH  25  27
ATOM     26  O   UNL     1      32.542  -4.866 -24.246  0.00  0.00    -0.358 OA
ATOM     27  N   UNL     1      33.033  -7.574 -23.520  0.00  0.00    +0.390 N 
ATOM     28  C   UNL     1      33.758  -6.464 -22.885  0.00  0.00    -0.045 C 
ATOM     29  C   UNL     1      31.704  -7.124 -23.954  0.00  0.00    -0.045 C 
ATOM     30  C   UNL     1      33.848  -5.285 -23.849  0.00  0.00    +0.119 C 
ATOM     31  C   UNL     1      31.843  -5.930 -24.894  0.00  0.00    +0.119 C 
ATOM     32  H   UNL     1      33.557  -7.879 -24.340  0.00  0.00    -0.079 HD
ENDBRANCH  25  27
ENDBRANCH  24  25
ENDBRANCH  23  24
ENDBRANCH   4  23
TORSDOF 6
ENDMDL
MODEL 7
REMARK VINA RESULT:     -10.5      6.057     12.147
REMARK  Name = 4470566
REMARK  6 active torsions:
REMARK  status: ('A' for Active; 'I' for Inactive)
REMARK    1  A    between atoms: N_4  and  C_23
REMARK    2  A    between atoms: C_13  and  C_14
REMARK    3  A    between atoms: C_17  and  N_22
REMARK    4  A    between atoms: C_23  and  C_24
REMARK    5  A    between atoms: C_24  and  C_25
REMARK    6  A    between atoms: C_25  and  N_27
REMARK                            x       y       z     vdW  Elec       q    Type
REMARK                         _______ _______ _______ _____ _____    ______ ____
ROOT
ATOM      1  S   UNL     1      32.433 -20.663 -19.622  0.00  0.00    -0.086 S 
ATOM      2  S   UNL     1      36.180 -22.898 -15.485  0.00  0.00    -0.017 S 
ATOM      3  O   UNL     1      31.296 -24.162 -14.686  0.00  0.00    -0.268 OA
ATOM      4  N   UNL     1      33.631 -23.753 -14.779  0.00  0.00    -0.237 N 
ATOM      5  N   UNL     1      33.673 -22.542 -16.563  0.00  0.00    -0.244 N 
ATOM      6  C   UNL     1      32.372 -22.870 -16.362  0.00  0.00    +0.112 C 
ATOM      7  C   UNL     1      33.753 -21.769 -17.690  0.00  0.00    +0.064 C 
ATOM      8  C   UNL     1      34.533 -23.060 -15.606  0.00  0.00    +0.152 C 
ATOM      9  C   UNL     1      32.294 -23.673 -15.190  0.00  0.00    +0.268 C 
ATOM     10  C   UNL     1      32.476 -21.628 -18.181  0.00  0.00    +0.045 C 
ATOM     11  C   UNL     1      31.567 -22.338 -17.329  0.00  0.00    +0.028 C 
ATOM     12  C   UNL     1      34.736 -21.100 -18.468  0.00  0.00    +0.022 C 
ATOM     13  C   UNL     1      34.139 -20.467 -19.538  0.00  0.00    +0.031 C 
ENDROOT
BRANCH  13  14
ATOM     14  C   UNL     1      34.777 -19.678 -20.569  0.00  0.00    +0.008 C 
ATOM     15  C   UNL     1      34.035 -19.231 -21.660  0.00  0.00    +0.025 C 
ATOM     16  C   UNL     1      36.131 -19.368 -20.465  0.00  0.00    +0.001 C 
ATOM     17  C   UNL     1      34.651 -18.468 -22.652  0.00  0.00    +0.143 C 
ATOM     18  C   UNL     1      36.746 -18.606 -21.459  0.00  0.00    +0.002 C 
ATOM     19  C   UNL     1      36.006 -18.156 -22.551  0.00  0.00    +0.024 C 
BRANCH  17  22
ATOM     20  O   UNL     1      33.895 -16.787 -24.038  0.00  0.00    -0.126 OA
ATOM     21  O   UNL     1      33.253 -18.846 -24.447  0.00  0.00    -0.126 OA
ATOM     22  N   UNL     1      33.897 -18.012 -23.766  0.00  0.00    +0.058 N 
ENDBRANCH  17  22
ENDBRANCH  13  14
BRANCH   4  23
ATOM     23  C   UNL     1      34.016 -24.498 -13.588  0.00  0.00    +0.098 C 
BRANCH  23  24
ATOM     24  C   UNL     1      34.309 -23.589 -12.397  0.00  0.00    -0.001 C 
BRANCH  24  25
ATOM     25  C   UNL     1      35.023 -24.281 -11.232  0.00  0.00    -0.075 C 
BRANCH  25  27
ATOM     26  O   UNL     1      38.797 -24.095 -13.060  0.00  0.00    -0.358 OA
ATOM     27  N   UNL     1      36.467 -24.355 -11.445  0.00  0.00    +0.390 N 
ATOM     28  C   UNL     1      37.011 -23.037 -11.804  0.00  0.00    -0.045 C 
ATOM     29  C   UNL     1      36.791 -25.335 -12.491  0.00  0.00    -0.045 C 
ATOM     30  C   UNL     1      38.516 -23.142 -12.034  0.00  0.00    +0.119 C 
ATOM     31  C   UNL     1      38.302 -25.386 -12.703  0.00  0.00    +0.119 C 
ATOM     32  H   UNL     1      36.897 -24.658 -10.571  0.00  0.00    -0.079 HD
ENDBRANCH  25  27
ENDBRANCH  24  25
ENDBRANCH  23  24
ENDBRANCH   4  23
TORSDOF 6
ENDMDL
MODEL 8
REMARK VINA RESULT:     -10.4      4.258      7.264
REMARK  Name = 4470566
REMARK  6 active torsions:
REMARK  status: ('A' for Active; 'I' for Inactive)
REMARK    1  A    between atoms: N_4  and  C_23
REMARK    2  A    between atoms: C_13  and  C_14
REMARK    3  A    between atoms: C_17  and  N_22
REMARK    4  A    between atoms: C_23  and  C_24
REMARK    5  A    between atoms: C_24  and  C_25
REMARK    6  A    between atoms: C_25  and  N_27
REMARK                            x       y       z     vdW  Elec       q    Type
REMARK                         _______ _______ _______ _____ _____    ______ ____
ROOT
ATOM      1  S   UNL     1      31.531 -12.261 -21.652  0.00  0.00    -0.086 S 
ATOM      2  S   UNL     1      34.423  -7.703 -24.299  0.00  0.00    -0.017 S 
ATOM      3  O   UNL     1      30.787  -6.180 -21.051  0.00  0.00    -0.268 OA
ATOM      4  N   UNL     1      32.531  -6.559 -22.613  0.00  0.00    -0.237 N 
ATOM      5  N   UNL     1      32.524  -8.716 -22.583  0.00  0.00    -0.244 N 
ATOM      6  C   UNL     1      31.555  -8.325 -21.718  0.00  0.00    +0.112 C 
ATOM      7  C   UNL     1      32.560 -10.084 -22.601  0.00  0.00    +0.064 C 
ATOM      8  C   UNL     1      33.188  -7.661 -23.191  0.00  0.00    +0.152 C 
ATOM      9  C   UNL     1      31.523  -6.903 -21.704  0.00  0.00    +0.268 C 
ATOM     10  C   UNL     1      31.594 -10.530 -21.728  0.00  0.00    +0.045 C 
ATOM     11  C   UNL     1      30.933  -9.398 -21.147  0.00  0.00    +0.028 C 
ATOM     12  C   UNL     1      33.279 -11.134 -23.233  0.00  0.00    +0.022 C 
ATOM     13  C   UNL     1      32.809 -12.355 -22.798  0.00  0.00    +0.031 C 
ENDROOT
BRANCH  13  14
ATOM     14  C   UNL     1      33.264 -13.670 -23.191  0.00  0.00    +0.008 C 
ATOM     15  C   UNL     1      33.877 -14.502 -22.257  0.00  0.00    +0.025 C 
ATOM     16  C   UNL     1      33.087 -14.101 -24.504  0.00  0.00    +0.001 C 
ATOM     17  C   UNL     1      34.313 -15.771 -22.636  0.00  0.00    +0.143 C 
ATOM     18  C   UNL     1      33.525 -15.370 -24.884  0.00  0.00    +0.002 C 
ATOM     19  C   UNL     1      34.137 -16.205 -23.950  0.00  0.00    +0.024 C 
BRANCH  17  22
ATOM     20  O   UNL     1      35.717 -17.518 -22.091  0.00  0.00    -0.126 OA
ATOM     21  O   UNL     1      34.696 -16.450 -20.466  0.00  0.00    -0.126 OA
ATOM     22  N   UNL     1      34.939 -16.620 -21.686  0.00  0.00    +0.058 N 
ENDBRANCH  17  22
ENDBRANCH  13  14
BRANCH   4  23
ATOM     23  C   UNL     1      32.846  -5.169 -22.910  0.00  0.00    +0.098 C 
BRANCH  23  24
ATOM     24  C   UNL     1      31.759  -4.487 -23.739  0.00  0.00    -0.001 C 
BRANCH  24  25
ATOM     25  C   UNL     1      31.542  -5.100 -25.126  0.00  0.00    -0.075 C 
BRANCH  25  27
ATOM     26  O   UNL     1      33.370  -3.943 -28.723  0.00  0.00    -0.358 OA
ATOM     27  N   UNL     1      32.537  -4.633 -26.090  0.00  0.00    +0.390 N 
ATOM     28  C   UNL     1      32.097  -3.388 -26.734  0.00  0.00    -0.045 C 
ATOM     29  C   UNL     1      32.799  -5.661 -27.108  0.00  0.00    -0.045 C 
ATOM     30  C   UNL     1      33.144  -2.928 -27.744  0.00  0.00    +0.119 C 
ATOM     31  C   UNL     1      33.830  -5.147 -28.108  0.00  0.00    +0.119 C 
ATOM     32  H   UNL     1      33.402  -4.450 -25.582  0.00  0.00    -0.079 HD
ENDBRANCH  25  27
ENDBRANCH  24  25
ENDBRANCH  23  24
ENDBRANCH   4  23
TORSDOF 6
ENDMDL
MODEL 9
REMARK VINA RESULT:     -10.1      3.146     11.367
REMARK  Name = 4470566
REMARK  6 active torsions:
REMARK  status: ('A' for Active; 'I' for Inactive)
REMARK    1  A    between atoms: N_4  and  C_23
REMARK    2  A    between atoms: C_13  and  C_14
REMARK    3  A    between atoms: C_17  and  N_22
REMARK    4  A    between atoms: C_23  and  C_24
REMARK    5  A    between atoms: C_24  and  C_25
REMARK    6  A    between atoms: C_25  and  N_27
REMARK                            x       y       z     vdW  Elec       q    Type
REMARK                         _______ _______ _______ _____ _____    ______ ____
ROOT
ATOM      1  S   UNL     1      31.139  -8.736 -20.859  0.00  0.00    -0.086 S 
ATOM      2  S   UNL     1      33.103 -12.611 -25.015  0.00  0.00    -0.017 S 
ATOM      3  O   UNL     1      32.814 -14.636 -20.335  0.00  0.00    -0.268 OA
ATOM      4  N   UNL     1      33.058 -13.999 -22.606  0.00  0.00    -0.237 N 
ATOM      5  N   UNL     1      32.409 -11.949 -22.435  0.00  0.00    -0.244 N 
ATOM      6  C   UNL     1      32.328 -12.474 -21.187  0.00  0.00    +0.112 C 
ATOM      7  C   UNL     1      32.005 -10.642 -22.380  0.00  0.00    +0.064 C 
ATOM      8  C   UNL     1      32.862 -12.847 -23.390  0.00  0.00    +0.152 C 
ATOM      9  C   UNL     1      32.748 -13.832 -21.251  0.00  0.00    +0.268 C 
ATOM     10  C   UNL     1      31.673 -10.372 -21.072  0.00  0.00    +0.045 C 
ATOM     11  C   UNL     1      31.877 -11.553 -20.285  0.00  0.00    +0.028 C 
ATOM     12  C   UNL     1      31.836  -9.530 -23.248  0.00  0.00    +0.022 C 
ATOM     13  C   UNL     1      31.372  -8.444 -22.537  0.00  0.00    +0.031 C 
ENDROOT
BRANCH  13  14
ATOM     14  C   UNL     1      31.069  -7.121 -23.038  0.00  0.00    +0.008 C 
ATOM     15  C   UNL     1      30.677  -6.117 -22.156  0.00  0.00    +0.025 C 
ATOM     16  C   UNL     1      31.172  -6.857 -24.402  0.00  0.00    +0.001 C 
ATOM     17  C   UNL     1      30.387  -4.841 -22.640  0.00  0.00    +0.143 C 
ATOM     18  C   UNL     1      30.881  -5.581 -24.886  0.00  0.00    +0.002 C 
ATOM     19  C   UNL     1      30.490  -4.574 -24.005  0.00  0.00    +0.024 C 
BRANCH  17  22
ATOM     20  O   UNL     1      29.963  -4.061 -20.512  0.00  0.00    -0.126 OA
ATOM     21  O   UNL     1      29.665  -2.695 -22.205  0.00  0.00    -0.126 OA
ATOM     22  N   UNL     1      29.986  -3.817 -21.743  0.00  0.00    +0.058 N 
ENDBRANCH  17  22
ENDBRANCH  13  14
BRANCH   4  23
ATOM     23  C   UNL     1      33.541 -15.271 -23.125  0.00  0.00    +0.098 C 
BRANCH  23  24
ATOM     24  C   UNL     1      34.630 -15.886 -22.249  0.00  0.00    -0.001 C 
BRANCH  24  25
ATOM     25  C   UNL     1      34.927 -17.358 -22.548  0.00  0.00    -0.075 C 
BRANCH  25  27
ATOM     26  O   UNL     1      35.222 -20.643 -19.953  0.00  0.00    -0.358 OA
ATOM     27  N   UNL     1      34.918 -18.174 -21.335  0.00  0.00    +0.390 N 
ATOM     28  C   UNL     1      36.243 -18.759 -21.089  0.00  0.00    -0.045 C 
ATOM     29  C   UNL     1      33.908 -19.238 -21.429  0.00  0.00    -0.045 C 
ATOM     30  C   UNL     1      36.206 -19.616 -19.827  0.00  0.00    +0.119 C 
ATOM     31  C   UNL     1      33.925 -20.082 -20.158  0.00  0.00    +0.119 C 
ATOM     32  H   UNL     1      34.679 -17.567 -20.552  0.00  0.00    -0.079 HD
ENDBRANCH  25  27
ENDBRANCH  24  25
ENDBRANCH  23  24
ENDBRANCH   4  23
TORSDOF 6
ENDMDL
