MODEL 1
REMARK VINA RESULT:     -14.7      0.000      0.000
REMARK  Name = 11167118
REMARK  6 active torsions:
REMARK  status: ('A' for Active; 'I' for Inactive)
REMARK    1  A    between atoms: N_2  and  C_6
REMARK    2  A    between atoms: N_2  and  C_15
REMARK    3  A    between atoms: C_8  and  O_25
REMARK    4  A    between atoms: C_17  and  C_24
REMARK    5  A    between atoms: O_25  and  C_27
REMARK    6  A    between atoms: C_30  and  C_34
REMARK                            x       y       z     vdW  Elec       q    Type
REMARK                         _______ _______ _______ _____ _____    ______ ____
ROOT
ATOM      1  N   UNL     1      33.810 -19.085 -21.362  0.00  0.00    -0.302 N 
ATOM      2  N   UNL     1      35.907 -19.373 -20.685  0.00  0.00    -0.302 N 
ATOM      3  C   UNL     1      33.745 -20.013 -20.354  0.00  0.00    +0.063 C 
ATOM      4  C   UNL     1      35.067 -20.175 -19.949  0.00  0.00    +0.060 C 
ATOM      5  C   UNL     1      35.120 -18.733 -21.523  0.00  0.00    +0.225 C 
ATOM      6  C   UNL     1      32.676 -20.704 -19.780  0.00  0.00    +0.053 C 
ATOM      7  C   UNL     1      32.985 -21.595 -18.747  0.00  0.00    +0.147 C 
ATOM      8  C   UNL     1      35.359 -21.075 -18.910  0.00  0.00    +0.019 C 
ATOM      9  C   UNL     1      34.302 -21.779 -18.318  0.00  0.00    +0.039 C 
ATOM     10  H   UNL     1      33.047 -18.736 -21.877  0.00  0.00    +0.150 HD
ATOM     11  H   UNL     1      36.885 -19.293 -20.604  0.00  0.00    +0.150 HD
ENDROOT
BRANCH   5  12
ATOM     12  N   UNL     1      35.427 -17.821 -22.471  0.00  0.00    -0.303 N 
ATOM     13  H   UNL     1      36.292 -17.964 -22.919  0.00  0.00    +0.150 HD
BRANCH  12  15
ATOM     14 CL   UNL     1      32.389 -13.114 -24.404  0.00  0.00    -0.082 Cl
ATOM     15  C   UNL     1      34.698 -16.686 -22.926  0.00  0.00    +0.047 C 
ATOM     16  C   UNL     1      34.502 -15.610 -22.071  0.00  0.00    +0.019 C 
ATOM     17  C   UNL     1      33.789 -14.498 -22.518  0.00  0.00    +0.083 C 
ATOM     18  C   UNL     1      34.193 -16.672 -24.219  0.00  0.00    +0.015 C 
ATOM     19  C   UNL     1      33.276 -14.473 -23.816  0.00  0.00    +0.062 C 
ATOM     20  C   UNL     1      33.478 -15.560 -24.666  0.00  0.00    +0.013 C 
BRANCH  17  24
ATOM     21  F   UNL     1      32.286 -13.140 -21.296  0.00  0.00    -0.166 F 
ATOM     22  F   UNL     1      34.219 -13.551 -20.390  0.00  0.00    -0.166 F 
ATOM     23  F   UNL     1      34.085 -12.204 -22.099  0.00  0.00    -0.166 F 
ATOM     24  C   UNL     1      33.595 -13.354 -21.576  0.00  0.00    +0.419 C 
ENDBRANCH  17  24
ENDBRANCH  12  15
ENDBRANCH   5  12
BRANCH   7  25
ATOM     25  O   UNL     1      31.981 -22.298 -18.149  0.00  0.00    -0.453 OA
BRANCH  25  27
ATOM     26  N   UNL     1      32.457 -23.309 -14.147  0.00  0.00    -0.239 NA
ATOM     27  C   UNL     1      32.140 -22.634 -16.817  0.00  0.00    +0.149 C 
ATOM     28  C   UNL     1      33.344 -23.155 -16.391  0.00  0.00    +0.061 C 
ATOM     29  C   UNL     1      31.091 -22.442 -15.943  0.00  0.00    +0.058 C 
ATOM     30  C   UNL     1      33.452 -23.476 -15.047  0.00  0.00    +0.137 C 
ATOM     31  C   UNL     1      31.299 -22.795 -14.619  0.00  0.00    +0.102 C 
BRANCH  30  34
ATOM     32  O   UNL     1      35.639 -24.288 -15.286  0.00  0.00    -0.268 OA
ATOM     33  N   UNL     1      34.762 -24.228 -13.140  0.00  0.00    -0.298 N 
ATOM     34  C   UNL     1      34.689 -24.029 -14.524  0.00  0.00    +0.264 C 
ATOM     35  C   UNL     1      35.931 -24.749 -12.467  0.00  0.00    +0.111 C 
ATOM     36  H   UNL     1      33.974 -24.003 -12.595  0.00  0.00    +0.150 HD
ENDBRANCH  30  34
ENDBRANCH  25  27
ENDBRANCH   7  25
TORSDOF 6
ENDMDL
MODEL 2
REMARK VINA RESULT:     -14.4      1.447      2.971
REMARK  Name = 11167118
REMARK  6 active torsions:
REMARK  status: ('A' for Active; 'I' for Inactive)
REMARK    1  A    between atoms: N_2  and  C_6
REMARK    2  A    between atoms: N_2  and  C_15
REMARK    3  A    between atoms: C_8  and  O_25
REMARK    4  A    between atoms: C_17  and  C_24
REMARK    5  A    between atoms: O_25  and  C_27
REMARK    6  A    between atoms: C_30  and  C_34
REMARK                            x       y       z     vdW  Elec       q    Type
REMARK                         _______ _______ _______ _____ _____    ______ ____
ROOT
ATOM      1  N   UNL     1      35.473 -19.468 -20.513  0.00  0.00    -0.302 N 
ATOM      2  N   UNL     1      33.378 -19.177 -21.193  0.00  0.00    -0.302 N 
ATOM      3  C   UNL     1      34.721 -20.333 -19.761  0.00  0.00    +0.063 C 
ATOM      4  C   UNL     1      33.417 -20.133 -20.204  0.00  0.00    +0.060 C 
ATOM      5  C   UNL     1      34.627 -18.800 -21.353  0.00  0.00    +0.225 C 
ATOM      6  C   UNL     1      35.059 -21.247 -18.761  0.00  0.00    +0.053 C 
ATOM      7  C   UNL     1      34.010 -21.981 -18.199  0.00  0.00    +0.147 C 
ATOM      8  C   UNL     1      32.375 -20.879 -19.628  0.00  0.00    +0.019 C 
ATOM      9  C   UNL     1      32.691 -21.802 -18.623  0.00  0.00    +0.039 C 
ATOM     10  H   UNL     1      36.449 -19.349 -20.457  0.00  0.00    +0.150 HD
ATOM     11  H   UNL     1      32.587 -18.846 -21.677  0.00  0.00    +0.150 HD
ENDROOT
BRANCH   5  12
ATOM     12  N   UNL     1      35.153 -17.886 -22.197  0.00  0.00    -0.303 N 
ATOM     13  H   UNL     1      36.097 -18.035 -22.434  0.00  0.00    +0.150 HD
BRANCH  12  15
ATOM     14 CL   UNL     1      32.682 -13.138 -24.742  0.00  0.00    -0.082 Cl
ATOM     15  C   UNL     1      34.559 -16.740 -22.800  0.00  0.00    +0.047 C 
ATOM     16  C   UNL     1      34.364 -15.593 -22.043  0.00  0.00    +0.019 C 
ATOM     17  C   UNL     1      33.783 -14.471 -22.634  0.00  0.00    +0.083 C 
ATOM     18  C   UNL     1      34.185 -16.788 -24.135  0.00  0.00    +0.015 C 
ATOM     19  C   UNL     1      33.402 -14.507 -23.976  0.00  0.00    +0.062 C 
ATOM     20  C   UNL     1      33.603 -15.666 -24.726  0.00  0.00    +0.013 C 
BRANCH  17  24
ATOM     21  F   UNL     1      34.103 -12.141 -22.380  0.00  0.00    -0.166 F 
ATOM     22  F   UNL     1      32.277 -12.991 -21.561  0.00  0.00    -0.166 F 
ATOM     23  F   UNL     1      34.189 -13.384 -20.590  0.00  0.00    -0.166 F 
ATOM     24  C   UNL     1      33.586 -13.249 -21.796  0.00  0.00    +0.419 C 
ENDBRANCH  17  24
ENDBRANCH  12  15
ENDBRANCH   5  12
BRANCH   7  25
ATOM     25  O   UNL     1      34.281 -22.888 -17.217  0.00  0.00    -0.453 OA
BRANCH  25  27
ATOM     26  N   UNL     1      31.652 -23.091 -14.004  0.00  0.00    -0.239 NA
ATOM     27  C   UNL     1      33.406 -22.955 -16.147  0.00  0.00    +0.149 C 
ATOM     28  C   UNL     1      32.055 -23.089 -16.388  0.00  0.00    +0.061 C 
ATOM     29  C   UNL     1      33.903 -22.888 -14.863  0.00  0.00    +0.058 C 
ATOM     30  C   UNL     1      31.220 -23.153 -15.284  0.00  0.00    +0.137 C 
ATOM     31  C   UNL     1      32.986 -22.960 -13.827  0.00  0.00    +0.102 C 
BRANCH  30  34
ATOM     32  O   UNL     1      29.142 -24.112 -14.776  0.00  0.00    -0.268 OA
ATOM     33  N   UNL     1      29.172 -22.457 -16.399  0.00  0.00    -0.298 N 
ATOM     34  C   UNL     1      29.785 -23.293 -15.458  0.00  0.00    +0.264 C 
ATOM     35  C   UNL     1      27.752 -22.462 -16.670  0.00  0.00    +0.111 C 
ATOM     36  H   UNL     1      29.740 -21.832 -16.906  0.00  0.00    +0.150 HD
ENDBRANCH  30  34
ENDBRANCH  25  27
ENDBRANCH   7  25
TORSDOF 6
ENDMDL
MODEL 3
REMARK VINA RESULT:     -14.3      5.479     10.399
REMARK  Name = 11167118
REMARK  6 active torsions:
REMARK  status: ('A' for Active; 'I' for Inactive)
REMARK    1  A    between atoms: N_2  and  C_6
REMARK    2  A    between atoms: N_2  and  C_15
REMARK    3  A    between atoms: C_8  and  O_25
REMARK    4  A    between atoms: C_17  and  C_24
REMARK    5  A    between atoms: O_25  and  C_27
REMARK    6  A    between atoms: C_30  and  C_34
REMARK                            x       y       z     vdW  Elec       q    Type
REMARK                         _______ _______ _______ _____ _____    ______ ____
ROOT
ATOM      1  N   UNL     1      33.165 -20.915 -20.025  0.00  0.00    -0.302 N 
ATOM      2  N   UNL     1      35.049 -21.330 -18.921  0.00  0.00    -0.302 N 
ATOM      3  C   UNL     1      34.083 -20.024 -20.519  0.00  0.00    +0.063 C 
ATOM      4  C   UNL     1      35.251 -20.304 -19.814  0.00  0.00    +0.060 C 
ATOM      5  C   UNL     1      33.788 -21.673 -19.073  0.00  0.00    +0.225 C 
ATOM      6  C   UNL     1      33.996 -19.028 -21.493  0.00  0.00    +0.053 C 
ATOM      7  C   UNL     1      35.158 -18.294 -21.749  0.00  0.00    +0.147 C 
ATOM      8  C   UNL     1      36.409 -19.556 -20.084  0.00  0.00    +0.019 C 
ATOM      9  C   UNL     1      36.345 -18.552 -21.058  0.00  0.00    +0.039 C 
ATOM     10  H   UNL     1      32.225 -20.993 -20.305  0.00  0.00    +0.150 HD
ATOM     11  H   UNL     1      35.705 -21.724 -18.302  0.00  0.00    +0.150 HD
ENDROOT
BRANCH   5  12
ATOM     12  N   UNL     1      33.070 -22.627 -18.443  0.00  0.00    -0.303 N 
ATOM     13  H   UNL     1      32.848 -23.411 -18.996  0.00  0.00    +0.150 HD
BRANCH  12  15
ATOM     14 CL   UNL     1      31.080 -22.856 -12.866  0.00  0.00    -0.082 Cl
ATOM     15  C   UNL     1      32.582 -22.681 -17.107  0.00  0.00    +0.047 C 
ATOM     16  C   UNL     1      31.215 -22.627 -16.874  0.00  0.00    +0.019 C 
ATOM     17  C   UNL     1      30.738 -22.680 -15.564  0.00  0.00    +0.083 C 
ATOM     18  C   UNL     1      33.482 -22.788 -16.055  0.00  0.00    +0.015 C 
ATOM     19  C   UNL     1      31.633 -22.787 -14.499  0.00  0.00    +0.062 C 
ATOM     20  C   UNL     1      33.005 -22.840 -14.745  0.00  0.00    +0.013 C 
BRANCH  17  24
ATOM     21  F   UNL     1      28.770 -23.787 -14.861  0.00  0.00    -0.166 F 
ATOM     22  F   UNL     1      28.910 -21.655 -14.461  0.00  0.00    -0.166 F 
ATOM     23  F   UNL     1      28.606 -22.360 -16.501  0.00  0.00    -0.166 F 
ATOM     24  C   UNL     1      29.261 -22.620 -15.344  0.00  0.00    +0.419 C 
ENDBRANCH  17  24
ENDBRANCH  12  15
ENDBRANCH   5  12
BRANCH   7  25
ATOM     25  O   UNL     1      35.132 -17.308 -22.690  0.00  0.00    -0.453 OA
BRANCH  25  27
ATOM     26  N   UNL     1      33.416 -13.675 -21.627  0.00  0.00    -0.239 NA
ATOM     27  C   UNL     1      34.561 -16.098 -22.336  0.00  0.00    +0.149 C 
ATOM     28  C   UNL     1      34.191 -15.211 -23.325  0.00  0.00    +0.061 C 
ATOM     29  C   UNL     1      34.372 -15.805 -21.002  0.00  0.00    +0.058 C 
ATOM     30  C   UNL     1      33.623 -14.014 -22.919  0.00  0.00    +0.137 C 
ATOM     31  C   UNL     1      33.797 -14.582 -20.699  0.00  0.00    +0.102 C 
BRANCH  30  34
ATOM     32  O   UNL     1      33.300 -11.813 -23.658  0.00  0.00    -0.268 OA
ATOM     33  N   UNL     1      32.734 -13.514 -25.128  0.00  0.00    -0.298 N 
ATOM     34  C   UNL     1      33.209 -13.029 -23.903  0.00  0.00    +0.264 C 
ATOM     35  C   UNL     1      32.306 -12.661 -26.214  0.00  0.00    +0.111 C 
ATOM     36  H   UNL     1      32.687 -14.489 -25.256  0.00  0.00    +0.150 HD
ENDBRANCH  30  34
ENDBRANCH  25  27
ENDBRANCH   7  25
TORSDOF 6
ENDMDL
MODEL 4
REMARK VINA RESULT:     -14.2      6.192     11.128
REMARK  Name = 11167118
REMARK  6 active torsions:
REMARK  status: ('A' for Active; 'I' for Inactive)
REMARK    1  A    between atoms: N_2  and  C_6
REMARK    2  A    between atoms: N_2  and  C_15
REMARK    3  A    between atoms: C_8  and  O_25
REMARK    4  A    between atoms: C_17  and  C_24
REMARK    5  A    between atoms: O_25  and  C_27
REMARK    6  A    between atoms: C_30  and  C_34
REMARK                            x       y       z     vdW  Elec       q    Type
REMARK                         _______ _______ _______ _____ _____    ______ ____
ROOT
ATOM      1  N   UNL     1      34.622 -22.078 -17.706  0.00  0.00    -0.302 N 
ATOM      2  N   UNL     1      32.412 -22.085 -17.937  0.00  0.00    -0.302 N 
ATOM      3  C   UNL     1      34.363 -21.261 -18.776  0.00  0.00    +0.063 C 
ATOM      4  C   UNL     1      32.976 -21.283 -18.900  0.00  0.00    +0.060 C 
ATOM      5  C   UNL     1      33.426 -22.546 -17.238  0.00  0.00    +0.225 C 
ATOM      6  C   UNL     1      35.197 -20.527 -19.623  0.00  0.00    +0.053 C 
ATOM      7  C   UNL     1      34.574 -19.789 -20.633  0.00  0.00    +0.147 C 
ATOM      8  C   UNL     1      32.368 -20.534 -19.922  0.00  0.00    +0.019 C 
ATOM      9  C   UNL     1      33.185 -19.790 -20.782  0.00  0.00    +0.039 C 
ATOM     10  H   UNL     1      35.512 -22.288 -17.340  0.00  0.00    +0.150 HD
ATOM     11  H   UNL     1      31.456 -22.275 -17.798  0.00  0.00    +0.150 HD
ENDROOT
BRANCH   5  12
ATOM     12  N   UNL     1      33.437 -23.378 -16.174  0.00  0.00    -0.303 N 
ATOM     13  H   UNL     1      32.621 -23.918 -16.062  0.00  0.00    +0.150 HD
BRANCH  12  15
ATOM     14 CL   UNL     1      37.602 -24.256 -12.051  0.00  0.00    -0.082 Cl
ATOM     15  C   UNL     1      34.439 -23.598 -15.187  0.00  0.00    +0.047 C 
ATOM     16  C   UNL     1      35.175 -24.774 -15.210  0.00  0.00    +0.019 C 
ATOM     17  C   UNL     1      36.158 -24.990 -14.243  0.00  0.00    +0.083 C 
ATOM     18  C   UNL     1      34.666 -22.632 -14.216  0.00  0.00    +0.015 C 
ATOM     19  C   UNL     1      36.394 -24.026 -13.263  0.00  0.00    +0.062 C 
ATOM     20  C   UNL     1      35.648 -22.847 -13.249  0.00  0.00    +0.013 C 
BRANCH  17  24
ATOM     21  F   UNL     1      36.569 -27.045 -15.339  0.00  0.00    -0.166 F 
ATOM     22  F   UNL     1      38.268 -26.052 -14.415  0.00  0.00    -0.166 F 
ATOM     23  F   UNL     1      36.749 -26.993 -13.166  0.00  0.00    -0.166 F 
ATOM     24  C   UNL     1      36.935 -26.265 -14.293  0.00  0.00    +0.419 C 
ENDBRANCH  17  24
ENDBRANCH  12  15
ENDBRANCH   5  12
BRANCH   7  25
ATOM     25  O   UNL     1      35.339 -19.053 -21.490  0.00  0.00    -0.453 OA
BRANCH  25  27
ATOM     26  N   UNL     1      33.416 -17.165 -24.653  0.00  0.00    -0.239 NA
ATOM     27  C   UNL     1      34.699 -18.425 -22.543  0.00  0.00    +0.149 C 
ATOM     28  C   UNL     1      34.609 -17.049 -22.553  0.00  0.00    +0.061 C 
ATOM     29  C   UNL     1      34.165 -19.186 -23.560  0.00  0.00    +0.058 C 
ATOM     30  C   UNL     1      33.958 -16.467 -23.629  0.00  0.00    +0.137 C 
ATOM     31  C   UNL     1      33.534 -18.510 -24.592  0.00  0.00    +0.102 C 
BRANCH  30  34
ATOM     32  O   UNL     1      34.468 -14.283 -22.945  0.00  0.00    -0.268 OA
ATOM     33  N   UNL     1      32.962 -14.518 -24.692  0.00  0.00    -0.298 N 
ATOM     34  C   UNL     1      33.823 -15.023 -23.710  0.00  0.00    +0.264 C 
ATOM     35  C   UNL     1      32.739 -13.106 -24.912  0.00  0.00    +0.111 C 
ATOM     36  H   UNL     1      32.481 -15.159 -25.264  0.00  0.00    +0.150 HD
ENDBRANCH  30  34
ENDBRANCH  25  27
ENDBRANCH   7  25
TORSDOF 6
ENDMDL
MODEL 5
REMARK VINA RESULT:     -14.1      3.370      5.377
REMARK  Name = 11167118
REMARK  6 active torsions:
REMARK  status: ('A' for Active; 'I' for Inactive)
REMARK    1  A    between atoms: N_2  and  C_6
REMARK    2  A    between atoms: N_2  and  C_15
REMARK    3  A    between atoms: C_8  and  O_25
REMARK    4  A    between atoms: C_17  and  C_24
REMARK    5  A    between atoms: O_25  and  C_27
REMARK    6  A    between atoms: C_30  and  C_34
REMARK                            x       y       z     vdW  Elec       q    Type
REMARK                         _______ _______ _______ _____ _____    ______ ____
ROOT
ATOM      1  N   UNL     1      34.107 -14.591 -22.569  0.00  0.00    -0.302 N 
ATOM      2  N   UNL     1      33.090 -15.153 -24.463  0.00  0.00    -0.302 N 
ATOM      3  C   UNL     1      34.281 -15.946 -22.689  0.00  0.00    +0.063 C 
ATOM      4  C   UNL     1      33.636 -16.272 -23.879  0.00  0.00    +0.060 C 
ATOM      5  C   UNL     1      33.391 -14.163 -23.651  0.00  0.00    +0.225 C 
ATOM      6  C   UNL     1      34.927 -16.887 -21.884  0.00  0.00    +0.053 C 
ATOM      7  C   UNL     1      34.906 -18.213 -22.326  0.00  0.00    +0.147 C 
ATOM      8  C   UNL     1      33.625 -17.611 -24.308  0.00  0.00    +0.019 C 
ATOM      9  C   UNL     1      34.267 -18.571 -23.516  0.00  0.00    +0.039 C 
ATOM     10  H   UNL     1      34.440 -14.028 -21.833  0.00  0.00    +0.150 HD
ATOM     11  H   UNL     1      32.582 -15.102 -25.305  0.00  0.00    +0.150 HD
ENDROOT
BRANCH   5  12
ATOM     12  N   UNL     1      33.098 -12.848 -23.745  0.00  0.00    -0.303 N 
ATOM     13  H   UNL     1      33.336 -12.432 -24.605  0.00  0.00    +0.150 HD
BRANCH  12  15
ATOM     14 CL   UNL     1      30.599  -9.218 -19.784  0.00  0.00    -0.082 Cl
ATOM     15  C   UNL     1      32.499 -11.968 -22.800  0.00  0.00    +0.047 C 
ATOM     16  C   UNL     1      32.401 -10.615 -23.091  0.00  0.00    +0.019 C 
ATOM     17  C   UNL     1      31.814  -9.753 -22.165  0.00  0.00    +0.083 C 
ATOM     18  C   UNL     1      32.023 -12.477 -21.599  0.00  0.00    +0.015 C 
ATOM     19  C   UNL     1      31.332 -10.253 -20.954  0.00  0.00    +0.062 C 
ATOM     20  C   UNL     1      31.437 -11.615 -20.672  0.00  0.00    +0.013 C 
BRANCH  17  24
ATOM     21  F   UNL     1      30.436  -7.874 -22.574  0.00  0.00    -0.166 F 
ATOM     22  F   UNL     1      32.343  -7.515 -21.594  0.00  0.00    -0.166 F 
ATOM     23  F   UNL     1      32.291  -8.045 -23.708  0.00  0.00    -0.166 F 
ATOM     24  C   UNL     1      31.721  -8.301 -22.506  0.00  0.00    +0.419 C 
ENDBRANCH  17  24
ENDBRANCH  12  15
ENDBRANCH   5  12
BRANCH   7  25
ATOM     25  O   UNL     1      35.520 -19.175 -21.580  0.00  0.00    -0.453 OA
BRANCH  25  27
ATOM     26  N   UNL     1      33.219 -21.201 -18.774  0.00  0.00    -0.239 NA
ATOM     27  C   UNL     1      34.754 -19.849 -20.646  0.00  0.00    +0.149 C 
ATOM     28  C   UNL     1      35.379 -20.493 -19.599  0.00  0.00    +0.061 C 
ATOM     29  C   UNL     1      33.382 -19.863 -20.781  0.00  0.00    +0.058 C 
ATOM     30  C   UNL     1      34.568 -21.154 -18.690  0.00  0.00    +0.137 C 
ATOM     31  C   UNL     1      32.660 -20.552 -19.820  0.00  0.00    +0.102 C 
BRANCH  30  34
ATOM     32  O   UNL     1      34.542 -22.788 -17.010  0.00  0.00    -0.268 OA
ATOM     33  N   UNL     1      36.429 -21.449 -17.151  0.00  0.00    -0.298 N 
ATOM     34  C   UNL     1      35.154 -21.856 -17.561  0.00  0.00    +0.264 C 
ATOM     35  C   UNL     1      37.152 -22.063 -16.059  0.00  0.00    +0.111 C 
ATOM     36  H   UNL     1      36.857 -20.704 -17.631  0.00  0.00    +0.150 HD
ENDBRANCH  30  34
ENDBRANCH  25  27
ENDBRANCH   7  25
TORSDOF 6
ENDMDL
MODEL 6
REMARK VINA RESULT:     -14.1      1.545      2.421
REMARK  Name = 11167118
REMARK  6 active torsions:
REMARK  status: ('A' for Active; 'I' for Inactive)
REMARK    1  A    between atoms: N_2  and  C_6
REMARK    2  A    between atoms: N_2  and  C_15
REMARK    3  A    between atoms: C_8  and  O_25
REMARK    4  A    between atoms: C_17  and  C_24
REMARK    5  A    between atoms: O_25  and  C_27
REMARK    6  A    between atoms: C_30  and  C_34
REMARK                            x       y       z     vdW  Elec       q    Type
REMARK                         _______ _______ _______ _____ _____    ______ ____
ROOT
ATOM      1  N   UNL     1      35.414 -19.494 -20.630  0.00  0.00    -0.302 N 
ATOM      2  N   UNL     1      33.303 -19.024 -21.140  0.00  0.00    -0.302 N 
ATOM      3  C   UNL     1      34.655 -20.325 -19.847  0.00  0.00    +0.063 C 
ATOM      4  C   UNL     1      33.341 -20.012 -20.184  0.00  0.00    +0.060 C 
ATOM      5  C   UNL     1      34.563 -18.736 -21.384  0.00  0.00    +0.225 C 
ATOM      6  C   UNL     1      34.993 -21.295 -18.901  0.00  0.00    +0.053 C 
ATOM      7  C   UNL     1      33.935 -21.966 -18.281  0.00  0.00    +0.147 C 
ATOM      8  C   UNL     1      32.290 -20.696 -19.550  0.00  0.00    +0.019 C 
ATOM      9  C   UNL     1      32.606 -21.674 -18.599  0.00  0.00    +0.039 C 
ATOM     10  H   UNL     1      36.398 -19.452 -20.645  0.00  0.00    +0.150 HD
ATOM     11  H   UNL     1      32.507 -18.618 -21.552  0.00  0.00    +0.150 HD
ENDROOT
BRANCH   5  12
ATOM     12  N   UNL     1      35.094 -17.837 -22.240  0.00  0.00    -0.303 N 
ATOM     13  H   UNL     1      36.029 -18.011 -22.496  0.00  0.00    +0.150 HD
BRANCH  12  15
ATOM     14 CL   UNL     1      32.695 -13.029 -24.739  0.00  0.00    -0.082 Cl
ATOM     15  C   UNL     1      34.518 -16.677 -22.831  0.00  0.00    +0.047 C 
ATOM     16  C   UNL     1      34.334 -15.536 -22.063  0.00  0.00    +0.019 C 
ATOM     17  C   UNL     1      33.769 -14.400 -22.642  0.00  0.00    +0.083 C 
ATOM     18  C   UNL     1      34.149 -16.704 -24.169  0.00  0.00    +0.015 C 
ATOM     19  C   UNL     1      33.395 -14.415 -23.987  0.00  0.00    +0.062 C 
ATOM     20  C   UNL     1      33.584 -15.567 -24.750  0.00  0.00    +0.013 C 
BRANCH  17  24
ATOM     21  F   UNL     1      34.210 -13.302 -20.594  0.00  0.00    -0.166 F 
ATOM     22  F   UNL     1      34.070 -12.065 -22.377  0.00  0.00    -0.166 F 
ATOM     23  F   UNL     1      32.272 -12.966 -21.536  0.00  0.00    -0.166 F 
ATOM     24  C   UNL     1      33.584 -13.186 -21.791  0.00  0.00    +0.419 C 
ENDBRANCH  17  24
ENDBRANCH  12  15
ENDBRANCH   5  12
BRANCH   7  25
ATOM     25  O   UNL     1      34.206 -22.923 -17.349  0.00  0.00    -0.453 OA
BRANCH  25  27
ATOM     26  N   UNL     1      37.064 -22.047 -14.462  0.00  0.00    -0.239 NA
ATOM     27  C   UNL     1      35.158 -22.631 -16.388  0.00  0.00    +0.149 C 
ATOM     28  C   UNL     1      35.093 -23.260 -15.162  0.00  0.00    +0.061 C 
ATOM     29  C   UNL     1      36.150 -21.719 -16.676  0.00  0.00    +0.058 C 
ATOM     30  C   UNL     1      36.069 -22.934 -14.234  0.00  0.00    +0.137 C 
ATOM     31  C   UNL     1      37.079 -21.461 -15.680  0.00  0.00    +0.102 C 
BRANCH  30  34
ATOM     32  O   UNL     1      36.284 -24.774 -12.797  0.00  0.00    -0.268 OA
ATOM     33  N   UNL     1      35.837 -22.718 -11.822  0.00  0.00    -0.298 N 
ATOM     34  C   UNL     1      36.067 -23.555 -12.921  0.00  0.00    +0.264 C 
ATOM     35  C   UNL     1      35.827 -23.181 -10.452  0.00  0.00    +0.111 C 
ATOM     36  H   UNL     1      35.672 -21.762 -11.991  0.00  0.00    +0.150 HD
ENDBRANCH  30  34
ENDBRANCH  25  27
ENDBRANCH   7  25
TORSDOF 6
ENDMDL
MODEL 7
REMARK VINA RESULT:     -14.0      1.914      3.279
REMARK  Name = 11167118
REMARK  6 active torsions:
REMARK  status: ('A' for Active; 'I' for Inactive)
REMARK    1  A    between atoms: N_2  and  C_6
REMARK    2  A    between atoms: N_2  and  C_15
REMARK    3  A    between atoms: C_8  and  O_25
REMARK    4  A    between atoms: C_17  and  C_24
REMARK    5  A    between atoms: O_25  and  C_27
REMARK    6  A    between atoms: C_30  and  C_34
REMARK                            x       y       z     vdW  Elec       q    Type
REMARK                         _______ _______ _______ _____ _____    ______ ____
ROOT
ATOM      1  N   UNL     1      33.963 -18.684 -21.219  0.00  0.00    -0.302 N 
ATOM      2  N   UNL     1      36.098 -18.488 -20.635  0.00  0.00    -0.302 N 
ATOM      3  C   UNL     1      34.217 -19.752 -20.396  0.00  0.00    +0.063 C 
ATOM      4  C   UNL     1      35.557 -19.606 -20.046  0.00  0.00    +0.060 C 
ATOM      5  C   UNL     1      35.116 -17.959 -21.331  0.00  0.00    +0.225 C 
ATOM      6  C   UNL     1      33.415 -20.801 -19.943  0.00  0.00    +0.053 C 
ATOM      7  C   UNL     1      34.020 -21.734 -19.095  0.00  0.00    +0.147 C 
ATOM      8  C   UNL     1      36.148 -20.554 -19.193  0.00  0.00    +0.019 C 
ATOM      9  C   UNL     1      35.362 -21.614 -18.725  0.00  0.00    +0.039 C 
ATOM     10  H   UNL     1      33.102 -18.478 -21.651  0.00  0.00    +0.150 HD
ATOM     11  H   UNL     1      37.021 -18.154 -20.555  0.00  0.00    +0.150 HD
ENDROOT
BRANCH   5  12
ATOM     12  N   UNL     1      35.101 -16.849 -22.101  0.00  0.00    -0.303 N 
ATOM     13  H   UNL     1      35.677 -16.891 -22.898  0.00  0.00    +0.150 HD
BRANCH  12  15
ATOM     14 CL   UNL     1      32.124 -11.773 -21.401  0.00  0.00    -0.082 Cl
ATOM     15  C   UNL     1      34.386 -15.628 -21.943  0.00  0.00    +0.047 C 
ATOM     16  C   UNL     1      34.021 -14.899 -23.066  0.00  0.00    +0.019 C 
ATOM     17  C   UNL     1      33.319 -13.703 -22.911  0.00  0.00    +0.083 C 
ATOM     18  C   UNL     1      34.065 -15.185 -20.667  0.00  0.00    +0.015 C 
ATOM     19  C   UNL     1      32.991 -13.247 -21.633  0.00  0.00    +0.062 C 
ATOM     20  C   UNL     1      33.364 -13.988 -20.512  0.00  0.00    +0.013 C 
BRANCH  17  24
ATOM     21  F   UNL     1      31.631 -12.584 -24.131  0.00  0.00    -0.166 F 
ATOM     22  F   UNL     1      33.652 -11.796 -24.276  0.00  0.00    -0.166 F 
ATOM     23  F   UNL     1      33.146 -13.677 -25.254  0.00  0.00    -0.166 F 
ATOM     24  C   UNL     1      32.938 -12.939 -24.137  0.00  0.00    +0.419 C 
ENDBRANCH  17  24
ENDBRANCH  12  15
ENDBRANCH   5  12
BRANCH   7  25
ATOM     25  O   UNL     1      33.285 -22.780 -18.621  0.00  0.00    -0.453 OA
BRANCH  25  27
ATOM     26  N   UNL     1      32.137 -22.677 -14.628  0.00  0.00    -0.239 NA
ATOM     27  C   UNL     1      32.903 -22.746 -17.292  0.00  0.00    +0.149 C 
ATOM     28  C   UNL     1      31.570 -22.589 -16.977  0.00  0.00    +0.061 C 
ATOM     29  C   UNL     1      33.863 -22.869 -16.310  0.00  0.00    +0.058 C 
ATOM     30  C   UNL     1      31.238 -22.561 -15.632  0.00  0.00    +0.137 C 
ATOM     31  C   UNL     1      33.430 -22.828 -14.994  0.00  0.00    +0.102 C 
BRANCH  30  34
ATOM     32  O   UNL     1      29.574 -22.074 -14.054  0.00  0.00    -0.268 OA
ATOM     33  N   UNL     1      28.873 -22.599 -16.200  0.00  0.00    -0.298 N 
ATOM     34  C   UNL     1      29.854 -22.399 -15.222  0.00  0.00    +0.264 C 
ATOM     35  C   UNL     1      27.455 -22.454 -15.954  0.00  0.00    +0.111 C 
ATOM     36  H   UNL     1      29.163 -22.855 -17.105  0.00  0.00    +0.150 HD
ENDBRANCH  30  34
ENDBRANCH  25  27
ENDBRANCH   7  25
TORSDOF 6
ENDMDL
MODEL 8
REMARK VINA RESULT:     -14.0      5.630     10.247
REMARK  Name = 11167118
REMARK  6 active torsions:
REMARK  status: ('A' for Active; 'I' for Inactive)
REMARK    1  A    between atoms: N_2  and  C_6
REMARK    2  A    between atoms: N_2  and  C_15
REMARK    3  A    between atoms: C_8  and  O_25
REMARK    4  A    between atoms: C_17  and  C_24
REMARK    5  A    between atoms: O_25  and  C_27
REMARK    6  A    between atoms: C_30  and  C_34
REMARK                            x       y       z     vdW  Elec       q    Type
REMARK                         _______ _______ _______ _____ _____    ______ ____
ROOT
ATOM      1  N   UNL     1      32.662 -20.426 -20.289  0.00  0.00    -0.302 N 
ATOM      2  N   UNL     1      34.360 -20.885 -18.931  0.00  0.00    -0.302 N 
ATOM      3  C   UNL     1      33.740 -19.758 -20.811  0.00  0.00    +0.063 C 
ATOM      4  C   UNL     1      34.787 -20.060 -19.945  0.00  0.00    +0.060 C 
ATOM      5  C   UNL     1      33.082 -21.085 -19.167  0.00  0.00    +0.225 C 
ATOM      6  C   UNL     1      33.885 -18.938 -21.932  0.00  0.00    +0.053 C 
ATOM      7  C   UNL     1      35.159 -18.413 -22.167  0.00  0.00    +0.147 C 
ATOM      8  C   UNL     1      36.061 -19.524 -20.196  0.00  0.00    +0.019 C 
ATOM      9  C   UNL     1      36.229 -18.699 -21.316  0.00  0.00    +0.039 C 
ATOM     10  H   UNL     1      31.749 -20.430 -20.657  0.00  0.00    +0.150 HD
ATOM     11  H   UNL     1      34.894 -21.249 -18.188  0.00  0.00    +0.150 HD
ENDROOT
BRANCH   5  12
ATOM     12  N   UNL     1      32.180 -21.819 -18.481  0.00  0.00    -0.303 N 
ATOM     13  H   UNL     1      31.336 -21.990 -18.958  0.00  0.00    +0.150 HD
BRANCH  12  15
ATOM     14 CL   UNL     1      32.534 -24.181 -13.057  0.00  0.00    -0.082 Cl
ATOM     15  C   UNL     1      32.255 -22.385 -17.176  0.00  0.00    +0.047 C 
ATOM     16  C   UNL     1      31.093 -22.558 -16.437  0.00  0.00    +0.019 C 
ATOM     17  C   UNL     1      31.167 -23.113 -15.160  0.00  0.00    +0.083 C 
ATOM     18  C   UNL     1      33.490 -22.756 -16.663  0.00  0.00    +0.015 C 
ATOM     19  C   UNL     1      32.403 -23.490 -14.633  0.00  0.00    +0.062 C 
ATOM     20  C   UNL     1      33.564 -23.311 -15.385  0.00  0.00    +0.013 C 
BRANCH  17  24
ATOM     21  F   UNL     1      28.842 -22.708 -15.005  0.00  0.00    -0.166 F 
ATOM     22  F   UNL     1      29.579 -24.593 -14.211  0.00  0.00    -0.166 F 
ATOM     23  F   UNL     1      29.998 -22.732 -13.156  0.00  0.00    -0.166 F 
ATOM     24  C   UNL     1      29.899 -23.288 -14.387  0.00  0.00    +0.419 C 
ENDBRANCH  17  24
ENDBRANCH  12  15
ENDBRANCH   5  12
BRANCH   7  25
ATOM     25  O   UNL     1      35.359 -17.606 -23.248  0.00  0.00    -0.453 OA
BRANCH  25  27
ATOM     26  N   UNL     1      33.003 -14.198 -23.569  0.00  0.00    -0.239 NA
ATOM     27  C   UNL     1      34.575 -16.472 -23.355  0.00  0.00    +0.149 C 
ATOM     28  C   UNL     1      34.391 -15.672 -22.247  0.00  0.00    +0.061 C 
ATOM     29  C   UNL     1      33.995 -16.163 -24.567  0.00  0.00    +0.058 C 
ATOM     30  C   UNL     1      33.597 -14.547 -22.405  0.00  0.00    +0.137 C 
ATOM     31  C   UNL     1      33.219 -15.017 -24.623  0.00  0.00    +0.102 C 
BRANCH  30  34
ATOM     32  O   UNL     1      34.138 -13.632 -20.315  0.00  0.00    -0.268 OA
ATOM     33  N   UNL     1      32.232 -12.826 -21.360  0.00  0.00    -0.298 N 
ATOM     34  C   UNL     1      33.356 -13.657 -21.283  0.00  0.00    +0.264 C 
ATOM     35  C   UNL     1      31.870 -11.871 -20.335  0.00  0.00    +0.111 C 
ATOM     36  H   UNL     1      31.654 -12.897 -22.154  0.00  0.00    +0.150 HD
ENDBRANCH  30  34
ENDBRANCH  25  27
ENDBRANCH   7  25
TORSDOF 6
ENDMDL
MODEL 9
REMARK VINA RESULT:     -13.9      5.507     10.192
REMARK  Name = 11167118
REMARK  6 active torsions:
REMARK  status: ('A' for Active; 'I' for Inactive)
REMARK    1  A    between atoms: N_2  and  C_6
REMARK    2  A    between atoms: N_2  and  C_15
REMARK    3  A    between atoms: C_8  and  O_25
REMARK    4  A    between atoms: C_17  and  C_24
REMARK    5  A    between atoms: O_25  and  C_27
REMARK    6  A    between atoms: C_30  and  C_34
REMARK                            x       y       z     vdW  Elec       q    Type
REMARK                         _______ _______ _______ _____ _____    ______ ____
ROOT
ATOM      1  N   UNL     1      32.586 -20.413 -20.332  0.00  0.00    -0.302 N 
ATOM      2  N   UNL     1      34.270 -20.903 -18.967  0.00  0.00    -0.302 N 
ATOM      3  C   UNL     1      33.675 -19.755 -20.844  0.00  0.00    +0.063 C 
ATOM      4  C   UNL     1      34.713 -20.077 -19.974  0.00  0.00    +0.060 C 
ATOM      5  C   UNL     1      32.991 -21.084 -19.212  0.00  0.00    +0.225 C 
ATOM      6  C   UNL     1      33.837 -18.931 -21.959  0.00  0.00    +0.053 C 
ATOM      7  C   UNL     1      35.119 -18.422 -22.184  0.00  0.00    +0.147 C 
ATOM      8  C   UNL     1      35.995 -19.555 -20.215  0.00  0.00    +0.019 C 
ATOM      9  C   UNL     1      36.181 -18.727 -21.329  0.00  0.00    +0.039 C 
ATOM     10  H   UNL     1      31.675 -20.403 -20.706  0.00  0.00    +0.150 HD
ATOM     11  H   UNL     1      34.795 -21.277 -18.224  0.00  0.00    +0.150 HD
ENDROOT
BRANCH   5  12
ATOM     12  N   UNL     1      32.075 -21.810 -18.535  0.00  0.00    -0.303 N 
ATOM     13  H   UNL     1      31.239 -21.982 -19.025  0.00  0.00    +0.150 HD
BRANCH  12  15
ATOM     14 CL   UNL     1      32.249 -24.119 -13.080  0.00  0.00    -0.082 Cl
ATOM     15  C   UNL     1      32.127 -22.367 -17.225  0.00  0.00    +0.047 C 
ATOM     16  C   UNL     1      33.347 -22.769 -16.701  0.00  0.00    +0.019 C 
ATOM     17  C   UNL     1      33.397 -23.314 -15.417  0.00  0.00    +0.083 C 
ATOM     18  C   UNL     1      30.955 -22.498 -16.492  0.00  0.00    +0.015 C 
ATOM     19  C   UNL     1      32.226 -23.451 -14.671  0.00  0.00    +0.062 C 
ATOM     20  C   UNL     1      31.005 -23.043 -15.209  0.00  0.00    +0.013 C 
BRANCH  17  24
ATOM     21  F   UNL     1      35.744 -23.386 -15.697  0.00  0.00    -0.166 F 
ATOM     22  F   UNL     1      34.990 -23.187 -13.669  0.00  0.00    -0.166 F 
ATOM     23  F   UNL     1      34.781 -25.083 -14.724  0.00  0.00    -0.166 F 
ATOM     24  C   UNL     1      34.725 -23.738 -14.878  0.00  0.00    +0.419 C 
ENDBRANCH  17  24
ENDBRANCH  12  15
ENDBRANCH   5  12
BRANCH   7  25
ATOM     25  O   UNL     1      35.336 -17.611 -23.259  0.00  0.00    -0.453 OA
BRANCH  25  27
ATOM     26  N   UNL     1      33.002 -14.188 -23.591  0.00  0.00    -0.239 NA
ATOM     27  C   UNL     1      34.559 -16.471 -23.370  0.00  0.00    +0.149 C 
ATOM     28  C   UNL     1      34.379 -15.667 -22.264  0.00  0.00    +0.061 C 
ATOM     29  C   UNL     1      33.982 -16.163 -24.583  0.00  0.00    +0.058 C 
ATOM     30  C   UNL     1      33.592 -14.538 -22.426  0.00  0.00    +0.137 C 
ATOM     31  C   UNL     1      33.213 -15.012 -24.642  0.00  0.00    +0.102 C 
BRANCH  30  34
ATOM     32  O   UNL     1      34.154 -13.599 -20.353  0.00  0.00    -0.268 OA
ATOM     33  N   UNL     1      32.218 -12.831 -21.370  0.00  0.00    -0.298 N 
ATOM     34  C   UNL     1      33.356 -13.643 -21.306  0.00  0.00    +0.264 C 
ATOM     35  C   UNL     1      31.859 -11.874 -20.347  0.00  0.00    +0.111 C 
ATOM     36  H   UNL     1      31.628 -12.917 -22.154  0.00  0.00    +0.150 HD
ENDBRANCH  30  34
ENDBRANCH  25  27
ENDBRANCH   7  25
TORSDOF 6
ENDMDL
