MODEL 1
REMARK VINA RESULT:     -12.8      0.000      0.000
REMARK  Name = 56640146
REMARK  6 active torsions:
REMARK  status: ('A' for Active; 'I' for Inactive)
REMARK    1  A    between atoms: C_1  and  C_32
REMARK    2  A    between atoms: C_2  and  O_36
REMARK    3  A    between atoms: C_3  and  C_7
REMARK    4  A    between atoms: C_5  and  N_25
REMARK    5  A    between atoms: C_15  and  N_17
REMARK    6  A    between atoms: N_17  and  S_19
REMARK                            x       y       z     vdW  Elec       q    Type
REMARK                         _______ _______ _______ _____ _____    ______ ____
ROOT
ATOM      1  C   UNL     1      35.188 -23.113 -15.352  0.00  0.00    +0.012 C 
ATOM      2  C   UNL     1      35.218 -22.359 -16.524  0.00  0.00    +0.135 C 
ATOM      3  C   UNL     1      34.034 -22.090 -17.212  0.00  0.00    +0.035 C 
ATOM      4  C   UNL     1      33.975 -23.602 -14.867  0.00  0.00    +0.014 C 
ATOM      5  C   UNL     1      32.791 -23.335 -15.555  0.00  0.00    +0.059 C 
ATOM      6  C   UNL     1      32.821 -22.580 -16.727  0.00  0.00    +0.018 C 
ENDROOT
BRANCH   3   7
ATOM      7  C   UNL     1      34.042 -21.309 -18.430  0.00  0.00    +0.003 C 
ATOM      8  C   UNL     1      35.228 -20.731 -18.880  0.00  0.00    +0.000 C 
ATOM      9  C   UNL     1      35.251 -19.968 -20.060  0.00  0.00    +0.000 C 
ATOM     10  C   UNL     1      32.863 -21.135 -19.150  0.00  0.00    +0.000 C 
ATOM     11  C   UNL     1      34.053 -19.791 -20.792  0.00  0.00    +0.001 C 
ATOM     12  C   UNL     1      32.868 -20.381 -20.324  0.00  0.00    +0.000 C 
ATOM     13  C   UNL     1      36.437 -19.379 -20.528  0.00  0.00    +0.001 C 
ATOM     14  C   UNL     1      34.076 -19.029 -21.972  0.00  0.00    +0.016 C 
ATOM     15  C   UNL     1      35.263 -18.450 -22.422  0.00  0.00    +0.064 C 
ATOM     16  C   UNL     1      36.441 -18.625 -21.702  0.00  0.00    +0.016 C 
BRANCH  15  17
ATOM     17  N   UNL     1      35.270 -17.678 -23.623  0.00  0.00    -0.219 N 
ATOM     18  H   UNL     1      35.930 -17.851 -24.332  0.00  0.00    +0.173 HD
BRANCH  17  19
ATOM     19  S   UNL     1      34.089 -16.435 -23.796  0.00  0.00    +0.056 S 
ATOM     20  O   UNL     1      34.543 -15.511 -24.819  0.00  0.00    -0.154 OA
ATOM     21  O   UNL     1      32.753 -16.992 -23.848  0.00  0.00    -0.154 OA
ATOM     22  C   UNL     1      34.275 -15.606 -22.234  0.00  0.00    +0.200 C 
ENDBRANCH  17  19
ENDBRANCH  15  17
ENDBRANCH   3   7
BRANCH   5  25
ATOM     23  O   UNL     1      32.361 -24.361 -12.896  0.00  0.00    -0.251 OA
ATOM     24  O   UNL     1      27.945 -25.267 -13.738  0.00  0.00    -0.270 OA
ATOM     25  N   UNL     1      31.530 -23.843 -15.051  0.00  0.00    -0.220 N 
ATOM     26  N   UNL     1      30.192 -24.862 -13.369  0.00  0.00    -0.235 N 
ATOM     27  C   UNL     1      31.452 -24.362 -13.730  0.00  0.00    +0.318 C 
ATOM     28  C   UNL     1      30.386 -23.807 -15.842  0.00  0.00    +0.078 C 
ATOM     29  C   UNL     1      29.190 -24.257 -15.460  0.00  0.00    +0.075 C 
ATOM     30  C   UNL     1      29.032 -24.843 -14.120  0.00  0.00    +0.254 C 
ATOM     31  H   UNL     1      30.126 -25.274 -12.477  0.00  0.00    +0.159 HD
ENDBRANCH   5  25
BRANCH   1  32
ATOM     32  C   UNL     1      36.445 -23.410 -14.601  0.00  0.00    +0.022 C 
ATOM     33  C   UNL     1      36.449 -24.874 -14.065  0.00  0.00    +0.004 C 
ATOM     34  C   UNL     1      37.767 -23.262 -15.423  0.00  0.00    +0.004 C 
ATOM     35  C   UNL     1      36.608 -22.458 -13.376  0.00  0.00    +0.004 C 
ENDBRANCH   1  32
BRANCH   2  36
ATOM     36  O   UNL     1      36.411 -21.885 -16.990  0.00  0.00    -0.472 OA
ATOM     37  C   UNL     1      36.833 -20.613 -16.503  0.00  0.00    +0.252 C 
ENDBRANCH   2  36
TORSDOF 6
ENDMDL
MODEL 2
REMARK VINA RESULT:     -12.2      2.421      4.762
REMARK  Name = 56640146
REMARK  6 active torsions:
REMARK  status: ('A' for Active; 'I' for Inactive)
REMARK    1  A    between atoms: C_1  and  C_32
REMARK    2  A    between atoms: C_2  and  O_36
REMARK    3  A    between atoms: C_3  and  C_7
REMARK    4  A    between atoms: C_5  and  N_25
REMARK    5  A    between atoms: C_15  and  N_17
REMARK    6  A    between atoms: N_17  and  S_19
REMARK                            x       y       z     vdW  Elec       q    Type
REMARK                         _______ _______ _______ _____ _____    ______ ____
ROOT
ATOM      1  C   UNL     1      32.868 -23.428 -14.841  0.00  0.00    +0.012 C 
ATOM      2  C   UNL     1      32.854 -22.648 -15.996  0.00  0.00    +0.135 C 
ATOM      3  C   UNL     1      34.026 -22.471 -16.733  0.00  0.00    +0.035 C 
ATOM      4  C   UNL     1      34.053 -24.030 -14.419  0.00  0.00    +0.014 C 
ATOM      5  C   UNL     1      35.225 -23.853 -15.155  0.00  0.00    +0.059 C 
ATOM      6  C   UNL     1      35.211 -23.073 -16.311  0.00  0.00    +0.018 C 
ENDROOT
BRANCH   3   7
ATOM      7  C   UNL     1      34.034 -21.666 -17.935  0.00  0.00    +0.003 C 
ATOM      8  C   UNL     1      35.198 -21.002 -18.322  0.00  0.00    +0.000 C 
ATOM      9  C   UNL     1      35.220 -20.216 -19.487  0.00  0.00    +0.000 C 
ATOM     10  C   UNL     1      32.879 -21.556 -18.704  0.00  0.00    +0.000 C 
ATOM     11  C   UNL     1      34.046 -20.104 -20.269  0.00  0.00    +0.001 C 
ATOM     12  C   UNL     1      32.884 -20.780 -19.864  0.00  0.00    +0.000 C 
ATOM     13  C   UNL     1      36.384 -19.541 -19.892  0.00  0.00    +0.001 C 
ATOM     14  C   UNL     1      34.070 -19.319 -21.434  0.00  0.00    +0.016 C 
ATOM     15  C   UNL     1      35.234 -18.654 -21.820  0.00  0.00    +0.064 C 
ATOM     16  C   UNL     1      36.389 -18.765 -21.052  0.00  0.00    +0.016 C 
BRANCH  15  17
ATOM     17  N   UNL     1      35.240 -17.860 -23.006  0.00  0.00    -0.219 N 
ATOM     18  H   UNL     1      35.677 -18.181 -23.828  0.00  0.00    +0.173 HD
BRANCH  17  19
ATOM     19  S   UNL     1      34.464 -16.322 -22.960  0.00  0.00    +0.056 S 
ATOM     20  O   UNL     1      33.909 -16.129 -21.633  0.00  0.00    -0.154 OA
ATOM     21  O   UNL     1      35.295 -15.303 -23.566  0.00  0.00    -0.154 OA
ATOM     22  C   UNL     1      33.094 -16.630 -24.052  0.00  0.00    +0.200 C 
ENDBRANCH  17  19
ENDBRANCH  15  17
ENDBRANCH   3   7
BRANCH   5  25
ATOM     23  O   UNL     1      35.885 -26.636 -15.510  0.00  0.00    -0.251 OA
ATOM     24  O   UNL     1      39.945 -26.150 -13.432  0.00  0.00    -0.270 OA
ATOM     25  N   UNL     1      36.457 -24.480 -14.717  0.00  0.00    -0.220 N 
ATOM     26  N   UNL     1      37.862 -26.375 -14.412  0.00  0.00    -0.235 N 
ATOM     27  C   UNL     1      36.652 -25.874 -14.913  0.00  0.00    +0.318 C 
ATOM     28  C   UNL     1      37.465 -23.724 -14.126  0.00  0.00    +0.078 C 
ATOM     29  C   UNL     1      38.623 -24.221 -13.690  0.00  0.00    +0.075 C 
ATOM     30  C   UNL     1      38.888 -25.661 -13.822  0.00  0.00    +0.254 C 
ATOM     31  H   UNL     1      37.998 -27.347 -14.490  0.00  0.00    +0.159 HD
ENDBRANCH   5  25
BRANCH   1  32
ATOM     32  C   UNL     1      31.624 -23.630 -14.040  0.00  0.00    +0.022 C 
ATOM     33  C   UNL     1      31.002 -22.266 -13.610  0.00  0.00    +0.004 C 
ATOM     34  C   UNL     1      30.475 -24.401 -14.769  0.00  0.00    +0.004 C 
ATOM     35  C   UNL     1      31.914 -24.446 -12.742  0.00  0.00    +0.004 C 
ENDBRANCH   1  32
BRANCH   2  36
ATOM     36  O   UNL     1      31.688 -22.063 -16.400  0.00  0.00    -0.472 OA
ATOM     37  C   UNL     1      30.707 -22.917 -16.982  0.00  0.00    +0.252 C 
ENDBRANCH   2  36
TORSDOF 6
ENDMDL
MODEL 3
REMARK VINA RESULT:      -9.9      2.666      5.113
REMARK  Name = 56640146
REMARK  6 active torsions:
REMARK  status: ('A' for Active; 'I' for Inactive)
REMARK    1  A    between atoms: C_1  and  C_32
REMARK    2  A    between atoms: C_2  and  O_36
REMARK    3  A    between atoms: C_3  and  C_7
REMARK    4  A    between atoms: C_5  and  N_25
REMARK    5  A    between atoms: C_15  and  N_17
REMARK    6  A    between atoms: N_17  and  S_19
REMARK                            x       y       z     vdW  Elec       q    Type
REMARK                         _______ _______ _______ _____ _____    ______ ____
ROOT
ATOM      1  C   UNL     1      33.617 -23.543 -14.401  0.00  0.00    +0.012 C 
ATOM      2  C   UNL     1      33.589 -22.778 -15.567  0.00  0.00    +0.135 C 
ATOM      3  C   UNL     1      34.753 -22.604 -16.316  0.00  0.00    +0.035 C 
ATOM      4  C   UNL     1      34.810 -24.133 -13.982  0.00  0.00    +0.014 C 
ATOM      5  C   UNL     1      35.974 -23.958 -14.731  0.00  0.00    +0.059 C 
ATOM      6  C   UNL     1      35.945 -23.194 -15.898  0.00  0.00    +0.018 C 
ENDROOT
BRANCH   3   7
ATOM      7  C   UNL     1      34.746 -21.816 -17.529  0.00  0.00    +0.003 C 
ATOM      8  C   UNL     1      33.541 -21.537 -18.173  0.00  0.00    +0.000 C 
ATOM      9  C   UNL     1      33.518 -20.774 -19.352  0.00  0.00    +0.000 C 
ATOM     10  C   UNL     1      35.944 -21.336 -18.053  0.00  0.00    +0.000 C 
ATOM     11  C   UNL     1      34.735 -20.286 -19.885  0.00  0.00    +0.001 C 
ATOM     12  C   UNL     1      35.939 -20.576 -19.223  0.00  0.00    +0.000 C 
ATOM     13  C   UNL     1      32.313 -20.483 -20.014  0.00  0.00    +0.001 C 
ATOM     14  C   UNL     1      34.712 -19.522 -21.063  0.00  0.00    +0.016 C 
ATOM     15  C   UNL     1      33.506 -19.244 -21.707  0.00  0.00    +0.064 C 
ATOM     16  C   UNL     1      32.309 -19.723 -21.184  0.00  0.00    +0.016 C 
BRANCH  15  17
ATOM     17  N   UNL     1      33.500 -18.467 -22.905  0.00  0.00    -0.219 N 
ATOM     18  H   UNL     1      32.967 -18.745 -23.685  0.00  0.00    +0.173 HD
BRANCH  17  19
ATOM     19  S   UNL     1      34.450 -17.031 -22.948  0.00  0.00    +0.056 S 
ATOM     20  O   UNL     1      34.458 -16.526 -24.308  0.00  0.00    -0.154 OA
ATOM     21  O   UNL     1      34.119 -16.157 -21.840  0.00  0.00    -0.154 OA
ATOM     22  C   UNL     1      36.064 -17.713 -22.641  0.00  0.00    +0.200 C 
ENDBRANCH  17  19
ENDBRANCH  15  17
ENDBRANCH   3   7
BRANCH   5  25
ATOM     23  O   UNL     1      37.783 -22.842 -12.784  0.00  0.00    -0.251 OA
ATOM     24  O   UNL     1      40.689 -26.370 -13.158  0.00  0.00    -0.270 OA
ATOM     25  N   UNL     1      37.214 -24.572 -14.296  0.00  0.00    -0.220 N 
ATOM     26  N   UNL     1      39.237 -24.573 -13.045  0.00  0.00    -0.235 N 
ATOM     27  C   UNL     1      38.045 -23.903 -13.357  0.00  0.00    +0.318 C 
ATOM     28  C   UNL     1      37.590 -25.823 -14.774  0.00  0.00    +0.078 C 
ATOM     29  C   UNL     1      38.714 -26.455 -14.432  0.00  0.00    +0.075 C 
ATOM     30  C   UNL     1      39.647 -25.815 -13.493  0.00  0.00    +0.254 C 
ATOM     31  H   UNL     1      39.854 -24.106 -12.436  0.00  0.00    +0.159 HD
ENDBRANCH   5  25
BRANCH   1  32
ATOM     32  C   UNL     1      32.382 -23.741 -13.586  0.00  0.00    +0.022 C 
ATOM     33  C   UNL     1      32.731 -24.144 -12.121  0.00  0.00    +0.004 C 
ATOM     34  C   UNL     1      31.451 -22.490 -13.465  0.00  0.00    +0.004 C 
ATOM     35  C   UNL     1      31.487 -24.870 -14.184  0.00  0.00    +0.004 C 
ENDBRANCH   1  32
BRANCH   2  36
ATOM     36  O   UNL     1      32.416 -22.205 -15.968  0.00  0.00    -0.472 OA
ATOM     37  C   UNL     1      31.582 -22.979 -16.826  0.00  0.00    +0.252 C 
ENDBRANCH   2  36
TORSDOF 6
ENDMDL
MODEL 4
REMARK VINA RESULT:      -9.9      7.714     15.447
REMARK  Name = 56640146
REMARK  6 active torsions:
REMARK  status: ('A' for Active; 'I' for Inactive)
REMARK    1  A    between atoms: C_1  and  C_32
REMARK    2  A    between atoms: C_2  and  O_36
REMARK    3  A    between atoms: C_3  and  C_7
REMARK    4  A    between atoms: C_5  and  N_25
REMARK    5  A    between atoms: C_15  and  N_17
REMARK    6  A    between atoms: N_17  and  S_19
REMARK                            x       y       z     vdW  Elec       q    Type
REMARK                         _______ _______ _______ _____ _____    ______ ____
ROOT
ATOM      1  C   UNL     1      32.044  -7.437 -21.649  0.00  0.00    +0.012 C 
ATOM      2  C   UNL     1      32.237  -8.809 -21.809  0.00  0.00    +0.135 C 
ATOM      3  C   UNL     1      32.746  -9.308 -23.009  0.00  0.00    +0.035 C 
ATOM      4  C   UNL     1      32.356  -6.563 -22.690  0.00  0.00    +0.014 C 
ATOM      5  C   UNL     1      32.864  -7.061 -23.890  0.00  0.00    +0.059 C 
ATOM      6  C   UNL     1      33.058  -8.433 -24.049  0.00  0.00    +0.018 C 
ENDROOT
BRANCH   3   7
ATOM      7  C   UNL     1      32.955 -10.727 -23.195  0.00  0.00    +0.003 C 
ATOM      8  C   UNL     1      33.356 -11.520 -22.121  0.00  0.00    +0.000 C 
ATOM      9  C   UNL     1      33.565 -12.899 -22.287  0.00  0.00    +0.000 C 
ATOM     10  C   UNL     1      32.757 -11.299 -24.449  0.00  0.00    +0.000 C 
ATOM     11  C   UNL     1      33.363 -13.481 -23.560  0.00  0.00    +0.001 C 
ATOM     12  C   UNL     1      32.959 -12.667 -24.631  0.00  0.00    +0.000 C 
ATOM     13  C   UNL     1      33.968 -13.713 -21.215  0.00  0.00    +0.001 C 
ATOM     14  C   UNL     1      33.571 -14.861 -23.726  0.00  0.00    +0.016 C 
ATOM     15  C   UNL     1      33.972 -15.654 -22.650  0.00  0.00    +0.064 C 
ATOM     16  C   UNL     1      34.170 -15.082 -21.397  0.00  0.00    +0.016 C 
BRANCH  15  17
ATOM     17  N   UNL     1      34.180 -17.054 -22.836  0.00  0.00    -0.219 N 
ATOM     18  H   UNL     1      33.760 -17.533 -23.586  0.00  0.00    +0.173 HD
BRANCH  17  19
ATOM     19  S   UNL     1      35.187 -17.883 -21.710  0.00  0.00    +0.056 S 
ATOM     20  O   UNL     1      36.397 -18.297 -22.396  0.00  0.00    -0.154 OA
ATOM     21  O   UNL     1      35.262 -17.164 -20.454  0.00  0.00    -0.154 OA
ATOM     22  C   UNL     1      34.218 -19.350 -21.444  0.00  0.00    +0.200 C 
ENDBRANCH  17  19
ENDBRANCH  15  17
ENDBRANCH   3   7
BRANCH   5  25
ATOM     23  O   UNL     1      31.266  -6.658 -26.255  0.00  0.00    -0.251 OA
ATOM     24  O   UNL     1      34.208  -3.585 -27.969  0.00  0.00    -0.270 OA
ATOM     25  N   UNL     1      33.190  -6.152 -24.972  0.00  0.00    -0.220 N 
ATOM     26  N   UNL     1      32.781  -5.189 -27.108  0.00  0.00    -0.235 N 
ATOM     27  C   UNL     1      32.342  -6.070 -26.109  0.00  0.00    +0.318 C 
ATOM     28  C   UNL     1      34.318  -5.340 -24.899  0.00  0.00    +0.078 C 
ATOM     29  C   UNL     1      34.694  -4.484 -25.850  0.00  0.00    +0.075 C 
ATOM     30  C   UNL     1      33.890  -4.365 -27.075  0.00  0.00    +0.254 C 
ATOM     31  H   UNL     1      32.237  -5.153 -27.929  0.00  0.00    +0.159 HD
ENDBRANCH   5  25
BRANCH   1  32
ATOM     32  C   UNL     1      31.501  -6.885 -20.373  0.00  0.00    +0.022 C 
ATOM     33  C   UNL     1      30.447  -5.768 -20.644  0.00  0.00    +0.004 C 
ATOM     34  C   UNL     1      30.783  -7.920 -19.445  0.00  0.00    +0.004 C 
ATOM     35  C   UNL     1      32.635  -6.261 -19.501  0.00  0.00    +0.004 C 
ENDBRANCH   1  32
BRANCH   2  36
ATOM     36  O   UNL     1      31.927  -9.656 -20.784  0.00  0.00    -0.472 OA
ATOM     37  C   UNL     1      30.718 -10.400 -20.907  0.00  0.00    +0.252 C 
ENDBRANCH   2  36
TORSDOF 6
ENDMDL
