MODEL 1
REMARK VINA RESULT:     -11.8      0.000      0.000
REMARK  Name = 5278688
REMARK  6 active torsions:
REMARK  status: ('A' for Active; 'I' for Inactive)
REMARK    1  A    between atoms: C_1  and  O_2
REMARK    2  A    between atoms: C_1  and  C_14
REMARK    3  A    between atoms: O_2  and  C_4
REMARK    4  A    between atoms: C_4  and  N_5
REMARK    5  A    between atoms: N_5  and  C_8
REMARK    6  A    between atoms: C_14  and  N_17
REMARK                            x       y       z     vdW  Elec       q    Type
REMARK                         _______ _______ _______ _____ _____    ______ ____
ROOT
ATOM      1  C   UNL     1      34.194 -18.946 -22.315  0.00  0.00    +0.229 C 
ENDROOT
BRANCH   1   2
ATOM      2  O   UNL     1      34.662 -19.413 -21.056  0.00  0.00    -0.456 OA
BRANCH   2   4
ATOM      3  S   UNL     1      32.348 -20.237 -20.007  0.00  0.00    +0.006 S 
ATOM      4  C   UNL     1      34.000 -20.318 -20.267  0.00  0.00    +0.233 C 
BRANCH   4   5
ATOM      5  N   UNL     1      34.746 -21.321 -19.681  0.00  0.00    -0.278 N 
ATOM      6  H   UNL     1      35.177 -21.932 -20.321  0.00  0.00    +0.156 HD
BRANCH   5   8
ATOM      7 CL   UNL     1      35.797 -22.587 -14.009  0.00  0.00    -0.082 Cl
ATOM      8  C   UNL     1      34.998 -21.625 -18.320  0.00  0.00    +0.051 C 
ATOM      9  C   UNL     1      34.023 -22.272 -17.580  0.00  0.00    +0.016 C 
ATOM     10  C   UNL     1      36.213 -21.268 -17.762  0.00  0.00    +0.016 C 
ATOM     11  C   UNL     1      34.272 -22.570 -16.241  0.00  0.00    +0.013 C 
ATOM     12  C   UNL     1      36.462 -21.566 -16.423  0.00  0.00    +0.013 C 
ATOM     13  C   UNL     1      35.491 -22.218 -15.662  0.00  0.00    +0.058 C 
ENDBRANCH   5   8
ENDBRANCH   4   5
ENDBRANCH   2   4
ENDBRANCH   1   2
BRANCH   1  14
ATOM     14  C   UNL     1      35.140 -17.883 -22.842  0.00  0.00    +0.149 C 
BRANCH  14  17
ATOM     15  O   UNL     1      34.147 -16.088 -25.006  0.00  0.00    -0.269 OA
ATOM     16  O   UNL     1      34.651 -16.235 -20.402  0.00  0.00    -0.269 OA
ATOM     17  N   UNL     1      34.565 -16.557 -22.735  0.00  0.00    -0.219 N 
ATOM     18  C   UNL     1      33.624 -14.566 -23.265  0.00  0.00    +0.058 C 
ATOM     19  C   UNL     1      33.777 -14.610 -21.887  0.00  0.00    +0.058 C 
ATOM     20  C   UNL     1      34.136 -15.819 -23.819  0.00  0.00    +0.255 C 
ATOM     21  C   UNL     1      34.386 -15.893 -21.540  0.00  0.00    +0.255 C 
ATOM     22  C   UNL     1      33.075 -13.474 -23.904  0.00  0.00    +0.005 C 
ATOM     23  C   UNL     1      33.385 -13.566 -21.075  0.00  0.00    +0.005 C 
ATOM     24  C   UNL     1      32.670 -12.403 -23.102  0.00  0.00    +0.000 C 
ATOM     25  C   UNL     1      32.824 -12.448 -21.701  0.00  0.00    +0.000 C 
ENDBRANCH  14  17
ENDBRANCH   1  14
TORSDOF 6
ENDMDL
MODEL 2
REMARK VINA RESULT:     -11.6      0.234      2.059
REMARK  Name = 5278688
REMARK  6 active torsions:
REMARK  status: ('A' for Active; 'I' for Inactive)
REMARK    1  A    between atoms: C_1  and  O_2
REMARK    2  A    between atoms: C_1  and  C_14
REMARK    3  A    between atoms: O_2  and  C_4
REMARK    4  A    between atoms: C_4  and  N_5
REMARK    5  A    between atoms: N_5  and  C_8
REMARK    6  A    between atoms: C_14  and  N_17
REMARK                            x       y       z     vdW  Elec       q    Type
REMARK                         _______ _______ _______ _____ _____    ______ ____
ROOT
ATOM      1  C   UNL     1      34.189 -18.905 -22.066  0.00  0.00    +0.229 C 
ENDROOT
BRANCH   1   2
ATOM      2  O   UNL     1      34.539 -19.271 -20.738  0.00  0.00    -0.456 OA
BRANCH   2   4
ATOM      3  S   UNL     1      32.308 -20.424 -19.828  0.00  0.00    +0.006 S 
ATOM      4  C   UNL     1      33.964 -20.301 -20.037  0.00  0.00    +0.233 C 
BRANCH   4   5
ATOM      5  N   UNL     1      34.804 -21.256 -19.500  0.00  0.00    -0.278 N 
ATOM      6  H   UNL     1      35.285 -21.796 -20.169  0.00  0.00    +0.156 HD
BRANCH   5   8
ATOM      7 CL   UNL     1      36.014 -22.672 -13.896  0.00  0.00    -0.082 Cl
ATOM      8  C   UNL     1      35.095 -21.596 -18.155  0.00  0.00    +0.051 C 
ATOM      9  C   UNL     1      36.324 -21.250 -17.621  0.00  0.00    +0.016 C 
ATOM     10  C   UNL     1      34.142 -22.266 -17.407  0.00  0.00    +0.016 C 
ATOM     11  C   UNL     1      36.609 -21.585 -16.298  0.00  0.00    +0.013 C 
ATOM     12  C   UNL     1      34.427 -22.601 -16.084  0.00  0.00    +0.013 C 
ATOM     13  C   UNL     1      35.661 -22.260 -15.529  0.00  0.00    +0.058 C 
ENDBRANCH   5   8
ENDBRANCH   4   5
ENDBRANCH   2   4
ENDBRANCH   1   2
BRANCH   1  14
ATOM     14  C   UNL     1      35.166 -17.861 -22.574  0.00  0.00    +0.149 C 
BRANCH  14  17
ATOM     15  O   UNL     1      34.552 -16.012 -20.318  0.00  0.00    -0.269 OA
ATOM     16  O   UNL     1      34.212 -16.296 -24.930  0.00  0.00    -0.269 OA
ATOM     17  N   UNL     1      34.565 -16.542 -22.613  0.00  0.00    -0.219 N 
ATOM     18  C   UNL     1      33.731 -14.534 -21.980  0.00  0.00    +0.058 C 
ATOM     19  C   UNL     1      33.628 -14.620 -23.361  0.00  0.00    +0.058 C 
ATOM     20  C   UNL     1      34.331 -15.775 -21.491  0.00  0.00    +0.255 C 
ATOM     21  C   UNL     1      34.163 -15.917 -23.774  0.00  0.00    +0.255 C 
ATOM     22  C   UNL     1      33.305 -13.421 -21.285  0.00  0.00    +0.005 C 
ATOM     23  C   UNL     1      33.096 -13.598 -24.119  0.00  0.00    +0.005 C 
ATOM     24  C   UNL     1      32.763 -12.372 -22.033  0.00  0.00    +0.000 C 
ATOM     25  C   UNL     1      32.658 -12.460 -23.436  0.00  0.00    +0.000 C 
ENDBRANCH  14  17
ENDBRANCH   1  14
TORSDOF 6
ENDMDL
MODEL 3
REMARK VINA RESULT:     -11.2      3.325      8.454
REMARK  Name = 5278688
REMARK  6 active torsions:
REMARK  status: ('A' for Active; 'I' for Inactive)
REMARK    1  A    between atoms: C_1  and  O_2
REMARK    2  A    between atoms: C_1  and  C_14
REMARK    3  A    between atoms: O_2  and  C_4
REMARK    4  A    between atoms: C_4  and  N_5
REMARK    5  A    between atoms: N_5  and  C_8
REMARK    6  A    between atoms: C_14  and  N_17
REMARK                            x       y       z     vdW  Elec       q    Type
REMARK                         _______ _______ _______ _____ _____    ______ ____
ROOT
ATOM      1  C   UNL     1      34.735 -18.345 -20.940  0.00  0.00    +0.229 C 
ENDROOT
BRANCH   1   2
ATOM      2  O   UNL     1      35.341 -17.745 -22.078  0.00  0.00    -0.456 OA
BRANCH   2   4
ATOM      3  S   UNL     1      33.692 -17.758 -24.180  0.00  0.00    +0.006 S 
ATOM      4  C   UNL     1      34.666 -17.026 -23.031  0.00  0.00    +0.233 C 
BRANCH   4   5
ATOM      5  N   UNL     1      34.809 -15.653 -23.017  0.00  0.00    -0.278 N 
ATOM      6  H   UNL     1      35.630 -15.326 -23.450  0.00  0.00    +0.156 HD
BRANCH   5   8
ATOM      7 CL   UNL     1      31.361 -11.398 -20.805  0.00  0.00    -0.082 Cl
ATOM      8  C   UNL     1      33.981 -14.632 -22.486  0.00  0.00    +0.051 C 
ATOM      9  C   UNL     1      33.358 -13.749 -23.351  0.00  0.00    +0.016 C 
ATOM     10  C   UNL     1      33.817 -14.541 -21.115  0.00  0.00    +0.016 C 
ATOM     11  C   UNL     1      32.544 -12.745 -22.828  0.00  0.00    +0.013 C 
ATOM     12  C   UNL     1      33.003 -13.536 -20.592  0.00  0.00    +0.013 C 
ATOM     13  C   UNL     1      32.366 -12.638 -21.449  0.00  0.00    +0.058 C 
ENDBRANCH   5   8
ENDBRANCH   4   5
ENDBRANCH   2   4
ENDBRANCH   1   2
BRANCH   1  14
ATOM     14  C   UNL     1      34.429 -19.800 -21.241  0.00  0.00    +0.149 C 
BRANCH  14  17
ATOM     15  O   UNL     1      31.724 -20.490 -20.195  0.00  0.00    -0.269 OA
ATOM     16  O   UNL     1      36.214 -20.995 -19.169  0.00  0.00    -0.269 OA
ATOM     17  N   UNL     1      34.074 -20.530 -20.041  0.00  0.00    -0.219 N 
ATOM     18  C   UNL     1      32.874 -21.550 -18.413  0.00  0.00    +0.058 C 
ATOM     19  C   UNL     1      34.218 -21.700 -18.106  0.00  0.00    +0.058 C 
ATOM     20  C   UNL     1      32.775 -20.791 -19.659  0.00  0.00    +0.255 C 
ATOM     21  C   UNL     1      34.998 -21.040 -19.153  0.00  0.00    +0.255 C 
ATOM     22  C   UNL     1      31.879 -22.065 -17.608  0.00  0.00    +0.005 C 
ATOM     23  C   UNL     1      34.639 -22.374 -16.979  0.00  0.00    +0.005 C 
ATOM     24  C   UNL     1      32.282 -22.754 -16.460  0.00  0.00    +0.000 C 
ATOM     25  C   UNL     1      33.648 -22.907 -16.148  0.00  0.00    +0.000 C 
ENDBRANCH  14  17
ENDBRANCH   1  14
TORSDOF 6
ENDMDL
MODEL 4
REMARK VINA RESULT:     -11.2      2.176      2.717
REMARK  Name = 5278688
REMARK  6 active torsions:
REMARK  status: ('A' for Active; 'I' for Inactive)
REMARK    1  A    between atoms: C_1  and  O_2
REMARK    2  A    between atoms: C_1  and  C_14
REMARK    3  A    between atoms: O_2  and  C_4
REMARK    4  A    between atoms: C_4  and  N_5
REMARK    5  A    between atoms: N_5  and  C_8
REMARK    6  A    between atoms: C_14  and  N_17
REMARK                            x       y       z     vdW  Elec       q    Type
REMARK                         _______ _______ _______ _____ _____    ______ ____
ROOT
ATOM      1  C   UNL     1      33.725 -17.316 -24.016  0.00  0.00    +0.229 C 
ENDROOT
BRANCH   1   2
ATOM      2  O   UNL     1      34.380 -18.447 -23.456  0.00  0.00    -0.456 OA
BRANCH   2   4
ATOM      3  S   UNL     1      36.552 -18.331 -21.905  0.00  0.00    +0.006 S 
ATOM      4  C   UNL     1      34.910 -18.492 -22.192  0.00  0.00    +0.233 C 
BRANCH   4   5
ATOM      5  N   UNL     1      34.037 -18.675 -21.138  0.00  0.00    -0.278 N 
ATOM      6  H   UNL     1      33.461 -17.899 -20.949  0.00  0.00    +0.156 HD
BRANCH   5   8
ATOM      7 CL   UNL     1      33.154 -23.295 -17.567  0.00  0.00    -0.082 Cl
ATOM      8  C   UNL     1      33.825 -19.784 -20.281  0.00  0.00    +0.051 C 
ATOM      9  C   UNL     1      32.534 -20.107 -19.901  0.00  0.00    +0.016 C 
ATOM     10  C   UNL     1      34.914 -20.517 -19.844  0.00  0.00    +0.016 C 
ATOM     11  C   UNL     1      32.326 -21.198 -19.057  0.00  0.00    +0.013 C 
ATOM     12  C   UNL     1      34.706 -21.609 -19.000  0.00  0.00    +0.013 C 
ATOM     13  C   UNL     1      33.411 -21.949 -18.607  0.00  0.00    +0.058 C 
ENDBRANCH   5   8
ENDBRANCH   4   5
ENDBRANCH   2   4
ENDBRANCH   1   2
BRANCH   1  14
ATOM     14  C   UNL     1      34.594 -16.087 -23.827  0.00  0.00    +0.149 C 
BRANCH  14  17
ATOM     15  O   UNL     1      32.955 -13.887 -24.994  0.00  0.00    -0.269 OA
ATOM     16  O   UNL     1      34.381 -15.529 -20.903  0.00  0.00    -0.269 OA
ATOM     17  N   UNL     1      33.876 -15.025 -23.149  0.00  0.00    -0.219 N 
ATOM     18  C   UNL     1      32.586 -13.206 -22.754  0.00  0.00    +0.058 C 
ATOM     19  C   UNL     1      33.014 -13.698 -21.529  0.00  0.00    +0.058 C 
ATOM     20  C   UNL     1      33.143 -14.058 -23.804  0.00  0.00    +0.255 C 
ATOM     21  C   UNL     1      33.851 -14.871 -21.780  0.00  0.00    +0.255 C 
ATOM     22  C   UNL     1      31.776 -12.095 -22.851  0.00  0.00    +0.005 C 
ATOM     23  C   UNL     1      32.654 -13.104 -20.338  0.00  0.00    +0.005 C 
ATOM     24  C   UNL     1      31.397 -11.476 -21.656  0.00  0.00    +0.000 C 
ATOM     25  C   UNL     1      31.832 -11.975 -20.411  0.00  0.00    +0.000 C 
ENDBRANCH  14  17
ENDBRANCH   1  14
TORSDOF 6
ENDMDL
MODEL 5
REMARK VINA RESULT:     -11.2      3.364      8.560
REMARK  Name = 5278688
REMARK  6 active torsions:
REMARK  status: ('A' for Active; 'I' for Inactive)
REMARK    1  A    between atoms: C_1  and  O_2
REMARK    2  A    between atoms: C_1  and  C_14
REMARK    3  A    between atoms: O_2  and  C_4
REMARK    4  A    between atoms: C_4  and  N_5
REMARK    5  A    between atoms: N_5  and  C_8
REMARK    6  A    between atoms: C_14  and  N_17
REMARK                            x       y       z     vdW  Elec       q    Type
REMARK                         _______ _______ _______ _____ _____    ______ ____
ROOT
ATOM      1  C   UNL     1      34.564 -18.308 -20.996  0.00  0.00    +0.229 C 
ENDROOT
BRANCH   1   2
ATOM      2  O   UNL     1      35.235 -17.675 -22.078  0.00  0.00    -0.456 OA
BRANCH   2   4
ATOM      3  S   UNL     1      33.693 -17.697 -24.259  0.00  0.00    +0.006 S 
ATOM      4  C   UNL     1      34.612 -16.961 -23.069  0.00  0.00    +0.233 C 
BRANCH   4   5
ATOM      5  N   UNL     1      34.762 -15.588 -23.059  0.00  0.00    -0.278 N 
ATOM      6  H   UNL     1      35.596 -15.268 -23.474  0.00  0.00    +0.156 HD
BRANCH   5   8
ATOM      7 CL   UNL     1      31.279 -11.304 -20.963  0.00  0.00    -0.082 Cl
ATOM      8  C   UNL     1      33.926 -14.560 -22.556  0.00  0.00    +0.051 C 
ATOM      9  C   UNL     1      33.794 -14.406 -21.187  0.00  0.00    +0.016 C 
ATOM     10  C   UNL     1      33.262 -13.734 -23.446  0.00  0.00    +0.016 C 
ATOM     11  C   UNL     1      32.972 -13.394 -20.692  0.00  0.00    +0.013 C 
ATOM     12  C   UNL     1      32.439 -12.722 -22.951  0.00  0.00    +0.013 C 
ATOM     13  C   UNL     1      32.294 -12.552 -21.574  0.00  0.00    +0.058 C 
ENDBRANCH   5   8
ENDBRANCH   4   5
ENDBRANCH   2   4
ENDBRANCH   1   2
BRANCH   1  14
ATOM     14  C   UNL     1      34.484 -19.800 -21.258  0.00  0.00    +0.149 C 
BRANCH  14  17
ATOM     15  O   UNL     1      36.224 -21.050 -19.185  0.00  0.00    -0.269 OA
ATOM     16  O   UNL     1      31.754 -20.454 -20.245  0.00  0.00    -0.269 OA
ATOM     17  N   UNL     1      34.102 -20.531 -20.066  0.00  0.00    -0.219 N 
ATOM     18  C   UNL     1      34.204 -21.699 -18.128  0.00  0.00    +0.058 C 
ATOM     19  C   UNL     1      32.866 -21.521 -18.446  0.00  0.00    +0.058 C 
ATOM     20  C   UNL     1      35.007 -21.065 -19.172  0.00  0.00    +0.255 C 
ATOM     21  C   UNL     1      32.795 -20.769 -19.699  0.00  0.00    +0.255 C 
ATOM     22  C   UNL     1      34.600 -22.377 -16.994  0.00  0.00    +0.005 C 
ATOM     23  C   UNL     1      31.853 -22.011 -17.648  0.00  0.00    +0.005 C 
ATOM     24  C   UNL     1      33.591 -22.882 -16.168  0.00  0.00    +0.000 C 
ATOM     25  C   UNL     1      32.231 -22.701 -16.492  0.00  0.00    +0.000 C 
ENDBRANCH  14  17
ENDBRANCH   1  14
TORSDOF 6
ENDMDL
MODEL 6
REMARK VINA RESULT:     -11.1      3.569      8.996
REMARK  Name = 5278688
REMARK  6 active torsions:
REMARK  status: ('A' for Active; 'I' for Inactive)
REMARK    1  A    between atoms: C_1  and  O_2
REMARK    2  A    between atoms: C_1  and  C_14
REMARK    3  A    between atoms: O_2  and  C_4
REMARK    4  A    between atoms: C_4  and  N_5
REMARK    5  A    between atoms: N_5  and  C_8
REMARK    6  A    between atoms: C_14  and  N_17
REMARK                            x       y       z     vdW  Elec       q    Type
REMARK                         _______ _______ _______ _____ _____    ______ ____
ROOT
ATOM      1  C   UNL     1      33.687 -19.771 -20.289  0.00  0.00    +0.229 C 
ENDROOT
BRANCH   1   2
ATOM      2  O   UNL     1      34.188 -19.038 -21.401  0.00  0.00    -0.456 OA
BRANCH   2   4
ATOM      3  S   UNL     1      36.704 -18.239 -21.805  0.00  0.00    +0.006 S 
ATOM      4  C   UNL     1      35.117 -18.033 -21.315  0.00  0.00    +0.233 C 
BRANCH   4   5
ATOM      5  N   UNL     1      34.700 -16.819 -20.806  0.00  0.00    -0.278 N 
ATOM      6  H   UNL     1      34.640 -16.790 -19.823  0.00  0.00    +0.156 HD
BRANCH   5   8
ATOM      7 CL   UNL     1      33.212 -11.774 -23.491  0.00  0.00    -0.082 Cl
ATOM      8  C   UNL     1      34.343 -15.608 -21.450  0.00  0.00    +0.051 C 
ATOM      9  C   UNL     1      33.907 -14.539 -20.686  0.00  0.00    +0.016 C 
ATOM     10  C   UNL     1      34.438 -15.523 -22.828  0.00  0.00    +0.016 C 
ATOM     11  C   UNL     1      33.556 -13.349 -21.320  0.00  0.00    +0.013 C 
ATOM     12  C   UNL     1      34.086 -14.332 -23.463  0.00  0.00    +0.013 C 
ATOM     13  C   UNL     1      33.645 -13.244 -22.708  0.00  0.00    +0.058 C 
ENDBRANCH   5   8
ENDBRANCH   4   5
ENDBRANCH   2   4
ENDBRANCH   1   2
BRANCH   1  14
ATOM     14  C   UNL     1      34.604 -20.946 -20.007  0.00  0.00    +0.149 C 
BRANCH  14  17
ATOM     15  O   UNL     1      36.505 -21.379 -17.751  0.00  0.00    -0.269 OA
ATOM     16  O   UNL     1      32.053 -22.000 -18.873  0.00  0.00    -0.269 OA
ATOM     17  N   UNL     1      34.352 -21.516 -18.698  0.00  0.00    -0.219 N 
ATOM     18  C   UNL     1      34.643 -22.262 -16.579  0.00  0.00    +0.058 C 
ATOM     19  C   UNL     1      33.310 -22.449 -16.916  0.00  0.00    +0.058 C 
ATOM     20  C   UNL     1      35.322 -21.664 -17.728  0.00  0.00    +0.255 C 
ATOM     21  C   UNL     1      33.118 -21.971 -18.285  0.00  0.00    +0.255 C 
ATOM     22  C   UNL     1      35.140 -22.618 -15.343  0.00  0.00    +0.005 C 
ATOM     23  C   UNL     1      32.404 -23.000 -16.034  0.00  0.00    +0.005 C 
ATOM     24  C   UNL     1      34.240 -23.179 -14.432  0.00  0.00    +0.000 C 
ATOM     25  C   UNL     1      32.885 -23.369 -14.774  0.00  0.00    +0.000 C 
ENDBRANCH  14  17
ENDBRANCH   1  14
TORSDOF 6
ENDMDL
MODEL 7
REMARK VINA RESULT:     -11.0      3.359      8.755
REMARK  Name = 5278688
REMARK  6 active torsions:
REMARK  status: ('A' for Active; 'I' for Inactive)
REMARK    1  A    between atoms: C_1  and  O_2
REMARK    2  A    between atoms: C_1  and  C_14
REMARK    3  A    between atoms: O_2  and  C_4
REMARK    4  A    between atoms: C_4  and  N_5
REMARK    5  A    between atoms: N_5  and  C_8
REMARK    6  A    between atoms: C_14  and  N_17
REMARK                            x       y       z     vdW  Elec       q    Type
REMARK                         _______ _______ _______ _____ _____    ______ ____
ROOT
ATOM      1  C   UNL     1      34.381 -19.761 -20.465  0.00  0.00    +0.229 C 
ENDROOT
BRANCH   1   2
ATOM      2  O   UNL     1      35.239 -18.921 -21.226  0.00  0.00    -0.456 OA
BRANCH   2   4
ATOM      3  S   UNL     1      33.878 -18.706 -23.515  0.00  0.00    +0.006 S 
ATOM      4  C   UNL     1      34.828 -18.125 -22.264  0.00  0.00    +0.233 C 
BRANCH   4   5
ATOM      5  N   UNL     1      35.223 -16.802 -22.250  0.00  0.00    -0.278 N 
ATOM      6  H   UNL     1      36.194 -16.667 -22.336  0.00  0.00    +0.156 HD
BRANCH   5   8
ATOM      7 CL   UNL     1      32.102 -11.811 -21.768  0.00  0.00    -0.082 Cl
ATOM      8  C   UNL     1      34.474 -15.604 -22.134  0.00  0.00    +0.051 C 
ATOM      9  C   UNL     1      34.071 -15.177 -20.881  0.00  0.00    +0.016 C 
ATOM     10  C   UNL     1      34.162 -14.889 -23.278  0.00  0.00    +0.016 C 
ATOM     11  C   UNL     1      33.334 -13.999 -20.767  0.00  0.00    +0.013 C 
ATOM     12  C   UNL     1      33.424 -13.711 -23.164  0.00  0.00    +0.013 C 
ATOM     13  C   UNL     1      33.011 -13.265 -21.908  0.00  0.00    +0.058 C 
ENDBRANCH   5   8
ENDBRANCH   4   5
ENDBRANCH   2   4
ENDBRANCH   1   2
BRANCH   1  14
ATOM     14  C   UNL     1      35.169 -20.948 -19.945  0.00  0.00    +0.149 C 
BRANCH  14  17
ATOM     15  O   UNL     1      32.352 -21.787 -19.450  0.00  0.00    -0.269 OA
ATOM     16  O   UNL     1      36.452 -21.515 -17.311  0.00  0.00    -0.269 OA
ATOM     17  N   UNL     1      34.578 -21.494 -18.739  0.00  0.00    -0.219 N 
ATOM     18  C   UNL     1      33.087 -22.357 -17.269  0.00  0.00    +0.058 C 
ATOM     19  C   UNL     1      34.315 -22.274 -16.629  0.00  0.00    +0.058 C 
ATOM     20  C   UNL     1      33.250 -21.850 -18.631  0.00  0.00    +0.255 C 
ATOM     21  C   UNL     1      35.281 -21.714 -17.574  0.00  0.00    +0.255 C 
ATOM     22  C   UNL     1      31.965 -22.847 -16.635  0.00  0.00    +0.005 C 
ATOM     23  C   UNL     1      34.485 -22.678 -15.322  0.00  0.00    +0.005 C 
ATOM     24  C   UNL     1      32.113 -23.264 -15.309  0.00  0.00    +0.000 C 
ATOM     25  C   UNL     1      33.361 -23.180 -14.658  0.00  0.00    +0.000 C 
ENDBRANCH  14  17
ENDBRANCH   1  14
TORSDOF 6
ENDMDL
MODEL 8
REMARK VINA RESULT:     -10.7      6.049     10.702
REMARK  Name = 5278688
REMARK  6 active torsions:
REMARK  status: ('A' for Active; 'I' for Inactive)
REMARK    1  A    between atoms: C_1  and  O_2
REMARK    2  A    between atoms: C_1  and  C_14
REMARK    3  A    between atoms: O_2  and  C_4
REMARK    4  A    between atoms: C_4  and  N_5
REMARK    5  A    between atoms: N_5  and  C_8
REMARK    6  A    between atoms: C_14  and  N_17
REMARK                            x       y       z     vdW  Elec       q    Type
REMARK                         _______ _______ _______ _____ _____    ______ ____
ROOT
ATOM      1  C   UNL     1      32.031 -12.637 -22.897  0.00  0.00    +0.229 C 
ENDROOT
BRANCH   1   2
ATOM      2  O   UNL     1      32.016 -11.805 -21.744  0.00  0.00    -0.456 OA
BRANCH   2   4
ATOM      3  S   UNL     1      30.894  -9.811 -20.365  0.00  0.00    +0.006 S 
ATOM      4  C   UNL     1      31.577 -10.506 -21.727  0.00  0.00    +0.233 C 
BRANCH   4   5
ATOM      5  N   UNL     1      31.719  -9.768 -22.885  0.00  0.00    -0.278 N 
ATOM      6  H   UNL     1      31.703 -10.303 -23.712  0.00  0.00    +0.156 HD
BRANCH   5   8
ATOM      7 CL   UNL     1      32.404  -3.966 -23.751  0.00  0.00    -0.082 Cl
ATOM      8  C   UNL     1      31.883  -8.375 -23.093  0.00  0.00    +0.051 C 
ATOM      9  C   UNL     1      30.783  -7.609 -23.438  0.00  0.00    +0.016 C 
ATOM     10  C   UNL     1      33.140  -7.815 -22.946  0.00  0.00    +0.016 C 
ATOM     11  C   UNL     1      30.946  -6.240 -23.642  0.00  0.00    +0.013 C 
ATOM     12  C   UNL     1      33.302  -6.445 -23.151  0.00  0.00    +0.013 C 
ATOM     13  C   UNL     1      32.204  -5.657 -23.499  0.00  0.00    +0.058 C 
ENDBRANCH   5   8
ENDBRANCH   4   5
ENDBRANCH   2   4
ENDBRANCH   1   2
BRANCH   1  14
ATOM     14  C   UNL     1      33.467 -12.945 -23.277  0.00  0.00    +0.149 C 
BRANCH  14  17
ATOM     15  O   UNL     1      33.634 -15.278 -25.125  0.00  0.00    -0.269 OA
ATOM     16  O   UNL     1      34.188 -14.181 -20.658  0.00  0.00    -0.269 OA
ATOM     17  N   UNL     1      33.813 -14.321 -22.980  0.00  0.00    -0.219 N 
ATOM     18  C   UNL     1      34.256 -16.530 -23.211  0.00  0.00    +0.058 C 
ATOM     19  C   UNL     1      34.420 -16.201 -21.873  0.00  0.00    +0.058 C 
ATOM     20  C   UNL     1      33.860 -15.320 -23.930  0.00  0.00    +0.255 C 
ATOM     21  C   UNL     1      34.133 -14.776 -21.719  0.00  0.00    +0.255 C 
ATOM     22  C   UNL     1      34.455 -17.813 -23.676  0.00  0.00    +0.005 C 
ATOM     23  C   UNL     1      34.794 -17.137 -20.931  0.00  0.00    +0.005 C 
ATOM     24  C   UNL     1      34.835 -18.779 -22.740  0.00  0.00    +0.000 C 
ATOM     25  C   UNL     1      35.002 -18.445 -21.381  0.00  0.00    +0.000 C 
ENDBRANCH  14  17
ENDBRANCH   1  14
TORSDOF 6
ENDMDL
MODEL 9
REMARK VINA RESULT:     -10.7      6.046     10.849
REMARK  Name = 5278688
REMARK  6 active torsions:
REMARK  status: ('A' for Active; 'I' for Inactive)
REMARK    1  A    between atoms: C_1  and  O_2
REMARK    2  A    between atoms: C_1  and  C_14
REMARK    3  A    between atoms: O_2  and  C_4
REMARK    4  A    between atoms: C_4  and  N_5
REMARK    5  A    between atoms: N_5  and  C_8
REMARK    6  A    between atoms: C_14  and  N_17
REMARK                            x       y       z     vdW  Elec       q    Type
REMARK                         _______ _______ _______ _____ _____    ______ ____
ROOT
ATOM      1  C   UNL     1      32.059 -12.636 -22.900  0.00  0.00    +0.229 C 
ENDROOT
BRANCH   1   2
ATOM      2  O   UNL     1      32.077 -11.773 -21.770  0.00  0.00    -0.456 OA
BRANCH   2   4
ATOM      3  S   UNL     1      30.907  -9.810 -20.387  0.00  0.00    +0.006 S 
ATOM      4  C   UNL     1      31.581 -10.495 -21.758  0.00  0.00    +0.233 C 
BRANCH   4   5
ATOM      5  N   UNL     1      31.655  -9.770 -22.931  0.00  0.00    -0.278 N 
ATOM      6  H   UNL     1      31.531 -10.305 -23.748  0.00  0.00    +0.156 HD
BRANCH   5   8
ATOM      7 CL   UNL     1      32.586  -4.020 -23.904  0.00  0.00    -0.082 Cl
ATOM      8  C   UNL     1      31.878  -8.390 -23.164  0.00  0.00    +0.051 C 
ATOM      9  C   UNL     1      30.803  -7.573 -23.469  0.00  0.00    +0.016 C 
ATOM     10  C   UNL     1      33.166  -7.891 -23.082  0.00  0.00    +0.016 C 
ATOM     11  C   UNL     1      31.023  -6.216 -23.699  0.00  0.00    +0.013 C 
ATOM     12  C   UNL     1      33.386  -6.533 -23.312  0.00  0.00    +0.013 C 
ATOM     13  C   UNL     1      32.314  -5.695 -23.620  0.00  0.00    +0.058 C 
ENDBRANCH   5   8
ENDBRANCH   4   5
ENDBRANCH   2   4
ENDBRANCH   1   2
BRANCH   1  14
ATOM     14  C   UNL     1      33.483 -12.958 -23.312  0.00  0.00    +0.149 C 
BRANCH  14  17
ATOM     15  O   UNL     1      34.212 -14.176 -20.690  0.00  0.00    -0.269 OA
ATOM     16  O   UNL     1      33.657 -15.303 -25.149  0.00  0.00    -0.269 OA
ATOM     17  N   UNL     1      33.827 -14.333 -23.009  0.00  0.00    -0.219 N 
ATOM     18  C   UNL     1      34.413 -16.212 -21.888  0.00  0.00    +0.058 C 
ATOM     19  C   UNL     1      34.248 -16.548 -23.223  0.00  0.00    +0.058 C 
ATOM     20  C   UNL     1      34.147 -14.781 -21.744  0.00  0.00    +0.255 C 
ATOM     21  C   UNL     1      33.872 -15.337 -23.952  0.00  0.00    +0.255 C 
ATOM     22  C   UNL     1      34.772 -17.146 -20.939  0.00  0.00    +0.005 C 
ATOM     23  C   UNL     1      34.432 -17.837 -23.680  0.00  0.00    +0.005 C 
ATOM     24  C   UNL     1      34.964 -18.460 -21.378  0.00  0.00    +0.000 C 
ATOM     25  C   UNL     1      34.796 -18.802 -22.736  0.00  0.00    +0.000 C 
ENDBRANCH  14  17
ENDBRANCH   1  14
TORSDOF 6
ENDMDL
