MODEL 1
REMARK VINA RESULT:     -11.5      0.000      0.000
REMARK  Name = 16043304
REMARK  7 active torsions:
REMARK  status: ('A' for Active; 'I' for Inactive)
REMARK    1  A    between atoms: N_2  and  C_19
REMARK    2  A    between atoms: C_3  and  C_6
REMARK    3  A    between atoms: C_8  and  C_13
REMARK    4  A    between atoms: C_19  and  C_20
REMARK    5  A    between atoms: C_19  and  C_29
REMARK    6  A    between atoms: C_20  and  C_23
REMARK    7  A    between atoms: C_29  and  N_30
REMARK                            x       y       z     vdW  Elec       q    Type
REMARK                         _______ _______ _______ _____ _____    ______ ____
ROOT
ATOM      1  O   UNL     1      32.598 -20.096 -20.916  0.00  0.00    -0.270 OA
ATOM      2  N   UNL     1      34.619 -19.007 -20.951  0.00  0.00    -0.304 N 
ATOM      3  C   UNL     1      33.718 -19.930 -20.432  0.00  0.00    +0.252 C 
ATOM      4  H   UNL     1      35.502 -18.911 -20.528  0.00  0.00    +0.150 HD
ENDROOT
BRANCH   3   6
ATOM      5  S   UNL     1      33.053 -21.433 -18.276  0.00  0.00    -0.080 S 
ATOM      6  C   UNL     1      34.204 -20.718 -19.290  0.00  0.00    +0.083 C 
ATOM      7  C   UNL     1      35.487 -20.949 -18.938  0.00  0.00    +0.012 C 
ATOM      8  C   UNL     1      34.298 -22.095 -17.304  0.00  0.00    +0.060 C 
ATOM      9  C   UNL     1      35.550 -21.760 -17.769  0.00  0.00    +0.010 C 
BRANCH   8  13
ATOM     10  N   UNL     1      34.922 -23.687 -15.695  0.00  0.00    -0.337 NA
ATOM     11  N   UNL     1      33.400 -24.462 -13.994  0.00  0.00    -0.170 NA
ATOM     12  N   UNL     1      35.597 -25.279 -14.109  0.00  0.00    -0.266 N 
ATOM     13  C   UNL     1      33.937 -22.894 -16.157  0.00  0.00    +0.152 C 
ATOM     14  C   UNL     1      32.675 -22.828 -15.606  0.00  0.00    +0.055 C 
ATOM     15  C   UNL     1      34.590 -24.434 -14.624  0.00  0.00    +0.145 C 
ATOM     16  C   UNL     1      32.462 -23.643 -14.513  0.00  0.00    +0.114 C 
ATOM     17  C   UNL     1      36.941 -25.378 -14.666  0.00  0.00    +0.120 C 
ATOM     18  H   UNL     1      35.378 -25.837 -13.326  0.00  0.00    +0.159 HD
ENDBRANCH   8  13
ENDBRANCH   3   6
BRANCH   2  19
ATOM     19  C   UNL     1      34.296 -18.179 -22.095  0.00  0.00    +0.055 C 
BRANCH  19  20
ATOM     20  C   UNL     1      35.172 -16.912 -22.119  0.00  0.00    +0.045 C 
BRANCH  20  23
ATOM     21 CL   UNL     1      34.281 -15.598 -24.760  0.00  0.00    -0.083 Cl
ATOM     22 CL   UNL     1      31.973 -11.851 -21.662  0.00  0.00    -0.082 Cl
ATOM     23  C   UNL     1      34.365 -15.637 -22.036  0.00  0.00    -0.010 C 
ATOM     24  C   UNL     1      33.931 -14.990 -23.183  0.00  0.00    +0.055 C 
ATOM     25  C   UNL     1      34.075 -15.137 -20.776  0.00  0.00    -0.003 C 
ATOM     26  C   UNL     1      33.188 -13.814 -23.067  0.00  0.00    +0.022 C 
ATOM     27  C   UNL     1      33.333 -13.961 -20.660  0.00  0.00    +0.011 C 
ATOM     28  C   UNL     1      32.889 -13.301 -21.805  0.00  0.00    +0.058 C 
ENDBRANCH  20  23
ENDBRANCH  19  20
BRANCH  19  29
ATOM     29  C   UNL     1      34.452 -19.020 -23.371  0.00  0.00    -0.066 C 
BRANCH  29  30
ATOM     30  N   UNL     1      33.370 -18.782 -24.320  0.00  0.00    +0.382 N 
ATOM     31  H   UNL     1      33.553 -17.921 -24.834  0.00  0.00    -0.089 HD
ATOM     32  H   UNL     1      32.488 -18.696 -23.815  0.00  0.00    -0.089 HD
ATOM     33  H   UNL     1      33.313 -19.563 -24.973  0.00  0.00    -0.089 HD
ENDBRANCH  29  30
ENDBRANCH  19  29
ENDBRANCH   2  19
TORSDOF 7
ENDMDL
MODEL 2
REMARK VINA RESULT:     -11.3      1.405      2.008
REMARK  Name = 16043304
REMARK  7 active torsions:
REMARK  status: ('A' for Active; 'I' for Inactive)
REMARK    1  A    between atoms: N_2  and  C_19
REMARK    2  A    between atoms: C_3  and  C_6
REMARK    3  A    between atoms: C_8  and  C_13
REMARK    4  A    between atoms: C_19  and  C_20
REMARK    5  A    between atoms: C_19  and  C_29
REMARK    6  A    between atoms: C_20  and  C_23
REMARK    7  A    between atoms: C_29  and  N_30
REMARK                            x       y       z     vdW  Elec       q    Type
REMARK                         _______ _______ _______ _____ _____    ______ ____
ROOT
ATOM      1  O   UNL     1      33.488 -20.413 -20.935  0.00  0.00    -0.270 OA
ATOM      2  N   UNL     1      35.176 -18.926 -20.473  0.00  0.00    -0.304 N 
ATOM      3  C   UNL     1      34.410 -20.054 -20.200  0.00  0.00    +0.252 C 
ATOM      4  H   UNL     1      35.901 -18.681 -19.854  0.00  0.00    +0.150 HD
ENDROOT
BRANCH   3   6
ATOM      5  S   UNL     1      33.573 -21.602 -18.138  0.00  0.00    -0.080 S 
ATOM      6  C   UNL     1      34.794 -20.808 -18.999  0.00  0.00    +0.083 C 
ATOM      7  C   UNL     1      36.034 -20.951 -18.481  0.00  0.00    +0.012 C 
ATOM      8  C   UNL     1      34.721 -22.178 -17.007  0.00  0.00    +0.060 C 
ATOM      9  C   UNL     1      35.998 -21.757 -17.307  0.00  0.00    +0.010 C 
BRANCH   8  13
ATOM     10  N   UNL     1      35.148 -23.944 -15.519  0.00  0.00    -0.337 NA
ATOM     11  N   UNL     1      33.551 -24.633 -13.850  0.00  0.00    -0.170 NA
ATOM     12  N   UNL     1      35.623 -25.714 -14.055  0.00  0.00    -0.266 N 
ATOM     13  C   UNL     1      34.269 -23.002 -15.911  0.00  0.00    +0.152 C 
ATOM     14  C   UNL     1      33.030 -22.813 -15.336  0.00  0.00    +0.055 C 
ATOM     15  C   UNL     1      34.730 -24.714 -14.496  0.00  0.00    +0.145 C 
ATOM     16  C   UNL     1      32.722 -23.666 -14.297  0.00  0.00    +0.114 C 
ATOM     17  C   UNL     1      36.939 -25.946 -14.639  0.00  0.00    +0.120 C 
ATOM     18  H   UNL     1      35.340 -26.292 -13.308  0.00  0.00    +0.159 HD
ENDBRANCH   8  13
ENDBRANCH   3   6
BRANCH   2  19
ATOM     19  C   UNL     1      34.938 -18.099 -21.638  0.00  0.00    +0.055 C 
BRANCH  19  20
ATOM     20  C   UNL     1      34.717 -16.630 -21.231  0.00  0.00    +0.045 C 
BRANCH  20  23
ATOM     21 CL   UNL     1      33.920 -13.721 -20.598  0.00  0.00    -0.083 Cl
ATOM     22 CL   UNL     1      32.692 -13.333 -25.823  0.00  0.00    -0.082 Cl
ATOM     23  C   UNL     1      34.204 -15.775 -22.367  0.00  0.00    -0.010 C 
ATOM     24  C   UNL     1      33.826 -14.458 -22.156  0.00  0.00    +0.055 C 
ATOM     25  C   UNL     1      34.124 -16.352 -23.624  0.00  0.00    -0.003 C 
ATOM     26  C   UNL     1      33.357 -13.700 -23.229  0.00  0.00    +0.022 C 
ATOM     27  C   UNL     1      33.653 -15.595 -24.697  0.00  0.00    +0.011 C 
ATOM     28  C   UNL     1      33.271 -14.268 -24.499  0.00  0.00    +0.058 C 
ENDBRANCH  20  23
ENDBRANCH  19  20
BRANCH  19  29
ATOM     29  C   UNL     1      36.117 -18.264 -22.608  0.00  0.00    -0.066 C 
BRANCH  29  30
ATOM     30  N   UNL     1      37.404 -18.131 -21.934  0.00  0.00    +0.382 N 
ATOM     31  H   UNL     1      37.910 -17.337 -22.323  0.00  0.00    -0.089 HD
ATOM     32  H   UNL     1      37.949 -18.982 -22.071  0.00  0.00    -0.089 HD
ATOM     33  H   UNL     1      37.251 -17.982 -20.936  0.00  0.00    -0.089 HD
ENDBRANCH  29  30
ENDBRANCH  19  29
ENDBRANCH   2  19
TORSDOF 7
ENDMDL
MODEL 3
REMARK VINA RESULT:     -11.2      4.135      9.870
REMARK  Name = 16043304
REMARK  7 active torsions:
REMARK  status: ('A' for Active; 'I' for Inactive)
REMARK    1  A    between atoms: N_2  and  C_19
REMARK    2  A    between atoms: C_3  and  C_6
REMARK    3  A    between atoms: C_8  and  C_13
REMARK    4  A    between atoms: C_19  and  C_20
REMARK    5  A    between atoms: C_19  and  C_29
REMARK    6  A    between atoms: C_20  and  C_23
REMARK    7  A    between atoms: C_29  and  N_30
REMARK                            x       y       z     vdW  Elec       q    Type
REMARK                         _______ _______ _______ _____ _____    ______ ____
ROOT
ATOM      1  O   UNL     1      34.192 -22.789 -19.729  0.00  0.00    -0.270 OA
ATOM      2  N   UNL     1      34.270 -21.557 -17.793  0.00  0.00    -0.304 N 
ATOM      3  C   UNL     1      34.430 -21.720 -19.165  0.00  0.00    +0.252 C 
ATOM      4  H   UNL     1      34.475 -20.683 -17.388  0.00  0.00    +0.150 HD
ENDROOT
BRANCH   3   6
ATOM      5  S   UNL     1      33.734 -19.740 -20.880  0.00  0.00    -0.080 S 
ATOM      6  C   UNL     1      34.867 -20.525 -19.899  0.00  0.00    +0.083 C 
ATOM      7  C   UNL     1      36.094 -19.959 -19.891  0.00  0.00    +0.012 C 
ATOM      8  C   UNL     1      34.906 -18.578 -21.334  0.00  0.00    +0.060 C 
ATOM      9  C   UNL     1      36.124 -18.811 -20.734  0.00  0.00    +0.010 C 
BRANCH   8  13
ATOM     10  N   UNL     1      34.362 -16.319 -21.674  0.00  0.00    -0.337 NA
ATOM     11  N   UNL     1      33.816 -15.441 -23.852  0.00  0.00    -0.170 NA
ATOM     12  N   UNL     1      33.826 -14.053 -21.960  0.00  0.00    -0.266 N 
ATOM     13  C   UNL     1      34.529 -17.526 -22.248  0.00  0.00    +0.152 C 
ATOM     14  C   UNL     1      34.360 -17.771 -23.593  0.00  0.00    +0.055 C 
ATOM     15  C   UNL     1      34.011 -15.334 -22.523  0.00  0.00    +0.145 C 
ATOM     16  C   UNL     1      34.001 -16.679 -24.355  0.00  0.00    +0.114 C 
ATOM     17  C   UNL     1      33.993 -13.755 -20.542  0.00  0.00    +0.120 C 
ATOM     18  H   UNL     1      33.568 -13.315 -22.561  0.00  0.00    +0.159 HD
ENDBRANCH   8  13
ENDBRANCH   3   6
BRANCH   2  19
ATOM     19  C   UNL     1      33.815 -22.636 -16.939  0.00  0.00    +0.055 C 
BRANCH  19  20
ATOM     20  C   UNL     1      34.304 -22.433 -15.493  0.00  0.00    +0.045 C 
BRANCH  20  23
ATOM     21 CL   UNL     1      36.943 -20.970 -16.119  0.00  0.00    -0.083 Cl
ATOM     22 CL   UNL     1      39.381 -25.408 -14.296  0.00  0.00    -0.082 Cl
ATOM     23  C   UNL     1      35.599 -23.156 -15.202  0.00  0.00    -0.010 C 
ATOM     24  C   UNL     1      36.824 -22.560 -15.459  0.00  0.00    +0.055 C 
ATOM     25  C   UNL     1      35.520 -24.434 -14.670  0.00  0.00    -0.003 C 
ATOM     26  C   UNL     1      37.998 -23.259 -15.178  0.00  0.00    +0.022 C 
ATOM     27  C   UNL     1      36.694 -25.134 -14.390  0.00  0.00    +0.011 C 
ATOM     28  C   UNL     1      37.933 -24.545 -14.643  0.00  0.00    +0.058 C 
ENDBRANCH  20  23
ENDBRANCH  19  20
BRANCH  19  29
ATOM     29  C   UNL     1      32.284 -22.723 -17.030  0.00  0.00    -0.066 C 
BRANCH  29  30
ATOM     30  N   UNL     1      31.738 -21.770 -17.991  0.00  0.00    +0.382 N 
ATOM     31  H   UNL     1      32.487 -21.175 -18.342  0.00  0.00    -0.089 HD
ATOM     32  H   UNL     1      31.031 -21.193 -17.534  0.00  0.00    -0.089 HD
ATOM     33  H   UNL     1      31.313 -22.277 -18.768  0.00  0.00    -0.089 HD
ENDBRANCH  29  30
ENDBRANCH  19  29
ENDBRANCH   2  19
TORSDOF 7
ENDMDL
MODEL 4
REMARK VINA RESULT:     -10.9      4.111     10.148
REMARK  Name = 16043304
REMARK  7 active torsions:
REMARK  status: ('A' for Active; 'I' for Inactive)
REMARK    1  A    between atoms: N_2  and  C_19
REMARK    2  A    between atoms: C_3  and  C_6
REMARK    3  A    between atoms: C_8  and  C_13
REMARK    4  A    between atoms: C_19  and  C_20
REMARK    5  A    between atoms: C_19  and  C_29
REMARK    6  A    between atoms: C_20  and  C_23
REMARK    7  A    between atoms: C_29  and  N_30
REMARK                            x       y       z     vdW  Elec       q    Type
REMARK                         _______ _______ _______ _____ _____    ______ ____
ROOT
ATOM      1  O   UNL     1      33.049 -24.078 -17.635  0.00  0.00    -0.270 OA
ATOM      2  N   UNL     1      33.837 -22.513 -16.152  0.00  0.00    -0.304 N 
ATOM      3  C   UNL     1      33.387 -22.916 -17.404  0.00  0.00    +0.252 C 
ATOM      4  H   UNL     1      34.096 -21.573 -16.017  0.00  0.00    +0.150 HD
ENDROOT
BRANCH   3   6
ATOM      5  S   UNL     1      34.757 -21.287 -19.082  0.00  0.00    -0.080 S 
ATOM      6  C   UNL     1      33.308 -21.859 -18.422  0.00  0.00    +0.083 C 
ATOM      7  C   UNL     1      32.195 -21.270 -18.909  0.00  0.00    +0.012 C 
ATOM      8  C   UNL     1      33.892 -20.194 -20.075  0.00  0.00    +0.060 C 
ATOM      9  C   UNL     1      32.532 -20.288 -19.884  0.00  0.00    +0.010 C 
BRANCH   8  13
ATOM     10  N   UNL     1      33.983 -19.022 -22.109  0.00  0.00    -0.337 NA
ATOM     11  N   UNL     1      35.896 -17.703 -22.748  0.00  0.00    -0.170 NA
ATOM     12  N   UNL     1      34.023 -17.870 -24.152  0.00  0.00    -0.266 N 
ATOM     13  C   UNL     1      34.629 -19.329 -20.967  0.00  0.00    +0.152 C 
ATOM     14  C   UNL     1      35.889 -18.873 -20.646  0.00  0.00    +0.055 C 
ATOM     15  C   UNL     1      34.666 -18.215 -22.943  0.00  0.00    +0.145 C 
ATOM     16  C   UNL     1      36.480 -18.054 -21.584  0.00  0.00    +0.114 C 
ATOM     17  C   UNL     1      32.693 -18.334 -24.528  0.00  0.00    +0.120 C 
ATOM     18  H   UNL     1      34.503 -17.280 -24.780  0.00  0.00    +0.159 HD
ENDBRANCH   8  13
ENDBRANCH   3   6
BRANCH   2  19
ATOM     19  C   UNL     1      33.939 -23.434 -15.038  0.00  0.00    +0.055 C 
BRANCH  19  20
ATOM     20  C   UNL     1      34.962 -22.931 -14.003  0.00  0.00    +0.045 C 
BRANCH  20  23
ATOM     21 CL   UNL     1      37.117 -21.818 -15.903  0.00  0.00    -0.083 Cl
ATOM     22 CL   UNL     1      40.167 -25.919 -14.215  0.00  0.00    -0.082 Cl
ATOM     23  C   UNL     1      36.283 -23.662 -14.078  0.00  0.00    -0.010 C 
ATOM     24  C   UNL     1      37.298 -23.219 -14.911  0.00  0.00    +0.055 C 
ATOM     25  C   UNL     1      36.444 -24.788 -13.286  0.00  0.00    -0.003 C 
ATOM     26  C   UNL     1      38.504 -23.920 -14.954  0.00  0.00    +0.022 C 
ATOM     27  C   UNL     1      37.649 -25.490 -13.329  0.00  0.00    +0.011 C 
ATOM     28  C   UNL     1      38.680 -25.054 -14.163  0.00  0.00    +0.058 C 
ENDBRANCH  20  23
ENDBRANCH  19  20
BRANCH  19  29
ATOM     29  C   UNL     1      32.541 -23.628 -14.430  0.00  0.00    -0.066 C 
BRANCH  29  30
ATOM     30  N   UNL     1      32.516 -24.706 -13.448  0.00  0.00    +0.382 N 
ATOM     31  H   UNL     1      33.175 -24.497 -12.699  0.00  0.00    -0.089 HD
ATOM     32  H   UNL     1      32.779 -25.583 -13.898  0.00  0.00    -0.089 HD
ATOM     33  H   UNL     1      31.576 -24.791 -13.060  0.00  0.00    -0.089 HD
ENDBRANCH  29  30
ENDBRANCH  19  29
ENDBRANCH   2  19
TORSDOF 7
ENDMDL
MODEL 5
REMARK VINA RESULT:     -10.9      1.742      2.863
REMARK  Name = 16043304
REMARK  7 active torsions:
REMARK  status: ('A' for Active; 'I' for Inactive)
REMARK    1  A    between atoms: N_2  and  C_19
REMARK    2  A    between atoms: C_3  and  C_6
REMARK    3  A    between atoms: C_8  and  C_13
REMARK    4  A    between atoms: C_19  and  C_20
REMARK    5  A    between atoms: C_19  and  C_29
REMARK    6  A    between atoms: C_20  and  C_23
REMARK    7  A    between atoms: C_29  and  N_30
REMARK                            x       y       z     vdW  Elec       q    Type
REMARK                         _______ _______ _______ _____ _____    ______ ____
ROOT
ATOM      1  O   UNL     1      33.399 -20.502 -21.087  0.00  0.00    -0.270 OA
ATOM      2  N   UNL     1      35.028 -19.020 -20.437  0.00  0.00    -0.304 N 
ATOM      3  C   UNL     1      34.234 -20.147 -20.254  0.00  0.00    +0.252 C 
ATOM      4  H   UNL     1      35.681 -18.778 -19.741  0.00  0.00    +0.150 HD
ENDROOT
BRANCH   3   6
ATOM      5  S   UNL     1      33.146 -21.556 -18.210  0.00  0.00    -0.080 S 
ATOM      6  C   UNL     1      34.481 -20.904 -19.019  0.00  0.00    +0.083 C 
ATOM      7  C   UNL     1      35.672 -21.152 -18.432  0.00  0.00    +0.012 C 
ATOM      8  C   UNL     1      34.173 -22.211 -17.007  0.00  0.00    +0.060 C 
ATOM      9  C   UNL     1      35.498 -21.922 -17.246  0.00  0.00    +0.010 C 
BRANCH   8  13
ATOM     10  N   UNL     1      32.241 -22.935 -15.886  0.00  0.00    -0.337 NA
ATOM     11  N   UNL     1      32.340 -24.334 -13.925  0.00  0.00    -0.170 NA
ATOM     12  N   UNL     1      30.280 -23.633 -14.803  0.00  0.00    -0.266 N 
ATOM     13  C   UNL     1      33.587 -22.961 -15.921  0.00  0.00    +0.152 C 
ATOM     14  C   UNL     1      34.371 -23.636 -15.011  0.00  0.00    +0.055 C 
ATOM     15  C   UNL     1      31.690 -23.634 -14.875  0.00  0.00    +0.145 C 
ATOM     16  C   UNL     1      33.685 -24.313 -14.025  0.00  0.00    +0.114 C 
ATOM     17  C   UNL     1      29.417 -22.929 -15.746  0.00  0.00    +0.120 C 
ATOM     18  H   UNL     1      29.853 -24.137 -14.072  0.00  0.00    +0.159 HD
ENDBRANCH   8  13
ENDBRANCH   3   6
BRANCH   2  19
ATOM     19  C   UNL     1      34.922 -18.190 -21.619  0.00  0.00    +0.055 C 
BRANCH  19  20
ATOM     20  C   UNL     1      34.811 -16.702 -21.236  0.00  0.00    +0.045 C 
BRANCH  20  23
ATOM     21 CL   UNL     1      33.914 -13.834 -20.552  0.00  0.00    -0.083 Cl
ATOM     22 CL   UNL     1      32.696 -13.389 -25.775  0.00  0.00    -0.082 Cl
ATOM     23  C   UNL     1      34.274 -15.843 -22.358  0.00  0.00    -0.010 C 
ATOM     24  C   UNL     1      33.851 -14.544 -22.124  0.00  0.00    +0.055 C 
ATOM     25  C   UNL     1      34.219 -16.399 -23.626  0.00  0.00    -0.003 C 
ATOM     26  C   UNL     1      33.361 -13.782 -23.185  0.00  0.00    +0.022 C 
ATOM     27  C   UNL     1      33.728 -15.637 -24.688  0.00  0.00    +0.011 C 
ATOM     28  C   UNL     1      33.300 -14.328 -24.466  0.00  0.00    +0.058 C 
ENDBRANCH  20  23
ENDBRANCH  19  20
BRANCH  19  29
ATOM     29  C   UNL     1      36.130 -18.469 -22.527  0.00  0.00    -0.066 C 
BRANCH  29  30
ATOM     30  N   UNL     1      37.388 -18.084 -21.897  0.00  0.00    +0.382 N 
ATOM     31  H   UNL     1      37.265 -17.200 -21.404  0.00  0.00    -0.089 HD
ATOM     32  H   UNL     1      38.108 -17.976 -22.613  0.00  0.00    -0.089 HD
ATOM     33  H   UNL     1      37.673 -18.806 -21.235  0.00  0.00    -0.089 HD
ENDBRANCH  29  30
ENDBRANCH  19  29
ENDBRANCH   2  19
TORSDOF 7
ENDMDL
MODEL 6
REMARK VINA RESULT:     -10.5      1.310      1.991
REMARK  Name = 16043304
REMARK  7 active torsions:
REMARK  status: ('A' for Active; 'I' for Inactive)
REMARK    1  A    between atoms: N_2  and  C_19
REMARK    2  A    between atoms: C_3  and  C_6
REMARK    3  A    between atoms: C_8  and  C_13
REMARK    4  A    between atoms: C_19  and  C_20
REMARK    5  A    between atoms: C_19  and  C_29
REMARK    6  A    between atoms: C_20  and  C_23
REMARK    7  A    between atoms: C_29  and  N_30
REMARK                            x       y       z     vdW  Elec       q    Type
REMARK                         _______ _______ _______ _____ _____    ______ ____
ROOT
ATOM      1  O   UNL     1      36.195 -19.585 -20.874  0.00  0.00    -0.270 OA
ATOM      2  N   UNL     1      33.939 -19.304 -21.195  0.00  0.00    -0.304 N 
ATOM      3  C   UNL     1      35.038 -19.841 -20.535  0.00  0.00    +0.252 C 
ATOM      4  H   UNL     1      33.034 -19.540 -20.887  0.00  0.00    +0.150 HD
ENDROOT
BRANCH   3   6
ATOM      5  S   UNL     1      35.936 -20.934 -18.222  0.00  0.00    -0.080 S 
ATOM      6  C   UNL     1      34.730 -20.705 -19.387  0.00  0.00    +0.083 C 
ATOM      7  C   UNL     1      33.575 -21.359 -19.139  0.00  0.00    +0.012 C 
ATOM      8  C   UNL     1      34.897 -21.954 -17.322  0.00  0.00    +0.060 C 
ATOM      9  C   UNL     1      33.666 -22.097 -17.923  0.00  0.00    +0.010 C 
BRANCH   8  13
ATOM     10  N   UNL     1      34.425 -23.075 -15.313  0.00  0.00    -0.337 NA
ATOM     11  N   UNL     1      36.148 -23.664 -13.734  0.00  0.00    -0.170 NA
ATOM     12  N   UNL     1      33.901 -24.196 -13.320  0.00  0.00    -0.266 N 
ATOM     13  C   UNL     1      35.381 -22.532 -16.091  0.00  0.00    +0.152 C 
ATOM     14  C   UNL     1      36.721 -22.513 -15.769  0.00  0.00    +0.055 C 
ATOM     15  C   UNL     1      34.873 -23.616 -14.164  0.00  0.00    +0.145 C 
ATOM     16  C   UNL     1      37.050 -23.101 -14.565  0.00  0.00    +0.114 C 
ATOM     17  C   UNL     1      32.475 -24.233 -13.626  0.00  0.00    +0.120 C 
ATOM     18  H   UNL     1      34.204 -24.598 -12.473  0.00  0.00    +0.159 HD
ENDBRANCH   8  13
ENDBRANCH   3   6
BRANCH   2  19
ATOM     19  C   UNL     1      34.083 -18.410 -22.326  0.00  0.00    +0.055 C 
BRANCH  19  20
ATOM     20  C   UNL     1      35.068 -17.271 -22.001  0.00  0.00    +0.045 C 
BRANCH  20  23
ATOM     21 CL   UNL     1      34.416 -15.801 -24.629  0.00  0.00    -0.083 Cl
ATOM     22 CL   UNL     1      32.402 -11.914 -21.498  0.00  0.00    -0.082 Cl
ATOM     23  C   UNL     1      34.397 -15.920 -21.907  0.00  0.00    -0.010 C 
ATOM     24  C   UNL     1      34.075 -15.201 -23.047  0.00  0.00    +0.055 C 
ATOM     25  C   UNL     1      34.115 -15.426 -20.643  0.00  0.00    -0.003 C 
ATOM     26  C   UNL     1      33.455 -13.957 -22.921  0.00  0.00    +0.022 C 
ATOM     27  C   UNL     1      33.496 -14.182 -20.515  0.00  0.00    +0.011 C 
ATOM     28  C   UNL     1      33.166 -13.448 -21.655  0.00  0.00    +0.058 C 
ENDBRANCH  20  23
ENDBRANCH  19  20
BRANCH  19  29
ATOM     29  C   UNL     1      34.522 -19.230 -23.549  0.00  0.00    -0.066 C 
BRANCH  29  30
ATOM     30  N   UNL     1      33.571 -19.122 -24.650  0.00  0.00    +0.382 N 
ATOM     31  H   UNL     1      32.747 -19.686 -24.442  0.00  0.00    -0.089 HD
ATOM     32  H   UNL     1      34.006 -19.460 -25.509  0.00  0.00    -0.089 HD
ATOM     33  H   UNL     1      33.296 -18.147 -24.768  0.00  0.00    -0.089 HD
ENDBRANCH  29  30
ENDBRANCH  19  29
ENDBRANCH   2  19
TORSDOF 7
ENDMDL
MODEL 7
REMARK VINA RESULT:     -10.4      4.005      9.864
REMARK  Name = 16043304
REMARK  7 active torsions:
REMARK  status: ('A' for Active; 'I' for Inactive)
REMARK    1  A    between atoms: N_2  and  C_19
REMARK    2  A    between atoms: C_3  and  C_6
REMARK    3  A    between atoms: C_8  and  C_13
REMARK    4  A    between atoms: C_19  and  C_20
REMARK    5  A    between atoms: C_19  and  C_29
REMARK    6  A    between atoms: C_20  and  C_23
REMARK    7  A    between atoms: C_29  and  N_30
REMARK                            x       y       z     vdW  Elec       q    Type
REMARK                         _______ _______ _______ _____ _____    ______ ____
ROOT
ATOM      1  O   UNL     1      33.479 -23.261 -19.221  0.00  0.00    -0.270 OA
ATOM      2  N   UNL     1      33.797 -22.008 -17.323  0.00  0.00    -0.304 N 
ATOM      3  C   UNL     1      33.891 -22.226 -18.693  0.00  0.00    +0.252 C 
ATOM      4  H   UNL     1      34.142 -21.165 -16.949  0.00  0.00    +0.150 HD
ENDROOT
BRANCH   3   6
ATOM      5  S   UNL     1      33.439 -20.156 -20.384  0.00  0.00    -0.080 S 
ATOM      6  C   UNL     1      34.481 -21.129 -19.472  0.00  0.00    +0.083 C 
ATOM      7  C   UNL     1      35.786 -20.791 -19.556  0.00  0.00    +0.012 C 
ATOM      8  C   UNL     1      34.764 -19.222 -20.933  0.00  0.00    +0.060 C 
ATOM      9  C   UNL     1      35.960 -19.668 -20.414  0.00  0.00    +0.010 C 
BRANCH   8  13
ATOM     10  N   UNL     1      33.746 -18.428 -22.894  0.00  0.00    -0.337 NA
ATOM     11  N   UNL     1      33.962 -16.139 -23.619  0.00  0.00    -0.170 NA
ATOM     12  N   UNL     1      32.709 -17.684 -24.863  0.00  0.00    -0.266 N 
ATOM     13  C   UNL     1      34.516 -18.121 -21.833  0.00  0.00    +0.152 C 
ATOM     14  C   UNL     1      35.041 -16.869 -21.595  0.00  0.00    +0.055 C 
ATOM     15  C   UNL     1      33.512 -17.403 -23.736  0.00  0.00    +0.145 C 
ATOM     16  C   UNL     1      34.727 -15.906 -22.531  0.00  0.00    +0.114 C 
ATOM     17  C   UNL     1      32.138 -18.996 -25.149  0.00  0.00    +0.120 C 
ATOM     18  H   UNL     1      32.523 -16.950 -25.494  0.00  0.00    +0.159 HD
ENDBRANCH   8  13
ENDBRANCH   3   6
BRANCH   2  19
ATOM     19  C   UNL     1      33.211 -22.985 -16.428  0.00  0.00    +0.055 C 
BRANCH  19  20
ATOM     20  C   UNL     1      33.802 -22.854 -15.011  0.00  0.00    +0.045 C 
BRANCH  20  23
ATOM     21 CL   UNL     1      36.351 -21.217 -15.575  0.00  0.00    -0.083 Cl
ATOM     22 CL   UNL     1      39.038 -25.727 -14.392  0.00  0.00    -0.082 Cl
ATOM     23  C   UNL     1      35.136 -23.550 -14.864  0.00  0.00    -0.010 C 
ATOM     24  C   UNL     1      36.323 -22.877 -15.101  0.00  0.00    +0.055 C 
ATOM     25  C   UNL     1      35.130 -24.883 -14.483  0.00  0.00    -0.003 C 
ATOM     26  C   UNL     1      37.535 -23.553 -14.955  0.00  0.00    +0.022 C 
ATOM     27  C   UNL     1      36.341 -25.560 -14.337  0.00  0.00    +0.011 C 
ATOM     28  C   UNL     1      37.544 -24.893 -14.572  0.00  0.00    +0.058 C 
ENDBRANCH  20  23
ENDBRANCH  19  20
BRANCH  19  29
ATOM     29  C   UNL     1      31.684 -22.811 -16.441  0.00  0.00    -0.066 C 
BRANCH  29  30
ATOM     30  N   UNL     1      31.240 -21.957 -17.537  0.00  0.00    +0.382 N 
ATOM     31  H   UNL     1      31.354 -22.452 -18.421  0.00  0.00    -0.089 HD
ATOM     32  H   UNL     1      31.799 -21.103 -17.551  0.00  0.00    -0.089 HD
ATOM     33  H   UNL     1      30.257 -21.717 -17.405  0.00  0.00    -0.089 HD
ENDBRANCH  29  30
ENDBRANCH  19  29
ENDBRANCH   2  19
TORSDOF 7
ENDMDL
MODEL 8
REMARK VINA RESULT:     -10.4      4.526     10.150
REMARK  Name = 16043304
REMARK  7 active torsions:
REMARK  status: ('A' for Active; 'I' for Inactive)
REMARK    1  A    between atoms: N_2  and  C_19
REMARK    2  A    between atoms: C_3  and  C_6
REMARK    3  A    between atoms: C_8  and  C_13
REMARK    4  A    between atoms: C_19  and  C_20
REMARK    5  A    between atoms: C_19  and  C_29
REMARK    6  A    between atoms: C_20  and  C_23
REMARK    7  A    between atoms: C_29  and  N_30
REMARK                            x       y       z     vdW  Elec       q    Type
REMARK                         _______ _______ _______ _____ _____    ______ ____
ROOT
ATOM      1  O   UNL     1      33.572 -23.010 -19.141  0.00  0.00    -0.270 OA
ATOM      2  N   UNL     1      34.186 -21.790 -17.295  0.00  0.00    -0.304 N 
ATOM      3  C   UNL     1      34.088 -21.996 -18.667  0.00  0.00    +0.252 C 
ATOM      4  H   UNL     1      34.608 -20.964 -16.965  0.00  0.00    +0.150 HD
ENDROOT
BRANCH   3   6
ATOM      5  S   UNL     1      33.515 -20.093 -20.510  0.00  0.00    -0.080 S 
ATOM      6  C   UNL     1      34.608 -20.912 -19.511  0.00  0.00    +0.083 C 
ATOM      7  C   UNL     1      35.884 -20.476 -19.593  0.00  0.00    +0.012 C 
ATOM      8  C   UNL     1      34.775 -19.095 -21.099  0.00  0.00    +0.060 C 
ATOM      9  C   UNL     1      35.989 -19.405 -20.527  0.00  0.00    +0.010 C 
BRANCH   8  13
ATOM     10  N   UNL     1      34.333 -16.840 -21.580  0.00  0.00    -0.337 NA
ATOM     11  N   UNL     1      33.876 -16.068 -23.818  0.00  0.00    -0.170 NA
ATOM     12  N   UNL     1      33.898 -14.574 -22.008  0.00  0.00    -0.266 N 
ATOM     13  C   UNL     1      34.463 -18.084 -22.080  0.00  0.00    +0.152 C 
ATOM     14  C   UNL     1      34.317 -18.399 -23.414  0.00  0.00    +0.055 C 
ATOM     15  C   UNL     1      34.042 -15.893 -22.493  0.00  0.00    +0.145 C 
ATOM     16  C   UNL     1      34.021 -17.340 -24.245  0.00  0.00    +0.114 C 
ATOM     17  C   UNL     1      34.043 -14.202 -20.605  0.00  0.00    +0.120 C 
ATOM     18  H   UNL     1      33.685 -13.863 -22.657  0.00  0.00    +0.159 HD
ENDBRANCH   8  13
ENDBRANCH   3   6
BRANCH   2  19
ATOM     19  C   UNL     1      33.689 -22.755 -16.336  0.00  0.00    +0.055 C 
BRANCH  19  20
ATOM     20  C   UNL     1      34.168 -22.410 -14.913  0.00  0.00    +0.045 C 
BRANCH  20  23
ATOM     21 CL   UNL     1      34.276 -24.130 -12.359  0.00  0.00    -0.083 Cl
ATOM     22 CL   UNL     1      39.444 -24.963 -13.609  0.00  0.00    -0.082 Cl
ATOM     23  C   UNL     1      35.483 -23.066 -14.558  0.00  0.00    -0.010 C 
ATOM     24  C   UNL     1      35.606 -23.853 -13.424  0.00  0.00    +0.055 C 
ATOM     25  C   UNL     1      36.559 -22.853 -15.405  0.00  0.00    -0.003 C 
ATOM     26  C   UNL     1      36.836 -24.442 -13.129  0.00  0.00    +0.022 C 
ATOM     27  C   UNL     1      37.790 -23.441 -15.110  0.00  0.00    +0.011 C 
ATOM     28  C   UNL     1      37.927 -24.236 -13.972  0.00  0.00    +0.058 C 
ENDBRANCH  20  23
ENDBRANCH  19  20
BRANCH  19  29
ATOM     29  C   UNL     1      32.157 -22.808 -16.439  0.00  0.00    -0.066 C 
BRANCH  29  30
ATOM     30  N   UNL     1      31.548 -23.396 -15.251  0.00  0.00    +0.382 N 
ATOM     31  H   UNL     1      30.649 -23.808 -15.499  0.00  0.00    -0.089 HD
ATOM     32  H   UNL     1      31.407 -22.671 -14.547  0.00  0.00    -0.089 HD
ATOM     33  H   UNL     1      32.163 -24.119 -14.876  0.00  0.00    -0.089 HD
ENDBRANCH  29  30
ENDBRANCH  19  29
ENDBRANCH   2  19
TORSDOF 7
ENDMDL
MODEL 9
REMARK VINA RESULT:     -10.1      2.213      3.042
REMARK  Name = 16043304
REMARK  7 active torsions:
REMARK  status: ('A' for Active; 'I' for Inactive)
REMARK    1  A    between atoms: N_2  and  C_19
REMARK    2  A    between atoms: C_3  and  C_6
REMARK    3  A    between atoms: C_8  and  C_13
REMARK    4  A    between atoms: C_19  and  C_20
REMARK    5  A    between atoms: C_19  and  C_29
REMARK    6  A    between atoms: C_20  and  C_23
REMARK    7  A    between atoms: C_29  and  N_30
REMARK                            x       y       z     vdW  Elec       q    Type
REMARK                         _______ _______ _______ _____ _____    ______ ____
ROOT
ATOM      1  O   UNL     1      33.907 -18.339 -23.396  0.00  0.00    -0.270 OA
ATOM      2  N   UNL     1      34.195 -16.661 -21.855  0.00  0.00    -0.304 N 
ATOM      3  C   UNL     1      34.220 -17.993 -22.256  0.00  0.00    +0.252 C 
ATOM      4  H   UNL     1      34.454 -16.435 -20.933  0.00  0.00    +0.150 HD
ENDROOT
BRANCH   3   6
ATOM      5  S   UNL     1      33.504 -19.786 -20.354  0.00  0.00    -0.080 S 
ATOM      6  C   UNL     1      34.678 -18.953 -21.243  0.00  0.00    +0.083 C 
ATOM      7  C   UNL     1      35.953 -19.262 -20.921  0.00  0.00    +0.012 C 
ATOM      8  C   UNL     1      34.724 -20.613 -19.484  0.00  0.00    +0.060 C 
ATOM      9  C   UNL     1      35.988 -20.240 -19.886  0.00  0.00    +0.010 C 
BRANCH   8  13
ATOM     10  N   UNL     1      35.259 -21.774 -17.514  0.00  0.00    -0.337 NA
ATOM     11  N   UNL     1      33.739 -23.343 -16.494  0.00  0.00    -0.170 NA
ATOM     12  N   UNL     1      35.841 -22.908 -15.544  0.00  0.00    -0.266 N 
ATOM     13  C   UNL     1      34.335 -21.567 -18.473  0.00  0.00    +0.152 C 
ATOM     14  C   UNL     1      33.111 -22.198 -18.515  0.00  0.00    +0.055 C 
ATOM     15  C   UNL     1      34.900 -22.663 -16.568  0.00  0.00    +0.145 C 
ATOM     16  C   UNL     1      32.864 -23.085 -17.488  0.00  0.00    +0.114 C 
ATOM     17  C   UNL     1      37.146 -22.263 -15.467  0.00  0.00    +0.120 C 
ATOM     18  H   UNL     1      35.601 -23.555 -14.841  0.00  0.00    +0.159 HD
ENDBRANCH   8  13
ENDBRANCH   3   6
BRANCH   2  19
ATOM     19  C   UNL     1      33.797 -15.596 -22.753  0.00  0.00    +0.055 C 
BRANCH  19  20
ATOM     20  C   UNL     1      34.407 -14.252 -22.313  0.00  0.00    +0.045 C 
BRANCH  20  23
ATOM     21 CL   UNL     1      32.475 -14.255 -19.913  0.00  0.00    -0.083 Cl
ATOM     22 CL   UNL     1      30.395  -9.790 -22.083  0.00  0.00    -0.082 Cl
ATOM     23  C   UNL     1      33.386 -13.141 -22.228  0.00  0.00    -0.010 C 
ATOM     24  C   UNL     1      32.484 -13.079 -21.177  0.00  0.00    +0.055 C 
ATOM     25  C   UNL     1      33.382 -12.189 -23.235  0.00  0.00    -0.003 C 
ATOM     26  C   UNL     1      31.555 -12.039 -21.132  0.00  0.00    +0.022 C 
ATOM     27  C   UNL     1      32.453 -11.149 -23.191  0.00  0.00    +0.011 C 
ATOM     28  C   UNL     1      31.540 -11.074 -22.139  0.00  0.00    +0.058 C 
ENDBRANCH  20  23
ENDBRANCH  19  20
BRANCH  19  29
ATOM     29  C   UNL     1      34.202 -15.981 -24.184  0.00  0.00    -0.066 C 
BRANCH  29  30
ATOM     30  N   UNL     1      33.083 -15.888 -25.114  0.00  0.00    +0.382 N 
ATOM     31  H   UNL     1      32.771 -16.826 -25.364  0.00  0.00    -0.089 HD
ATOM     32  H   UNL     1      33.379 -15.393 -25.955  0.00  0.00    -0.089 HD
ATOM     33  H   UNL     1      32.315 -15.381 -24.674  0.00  0.00    -0.089 HD
ENDBRANCH  29  30
ENDBRANCH  19  29
ENDBRANCH   2  19
TORSDOF 7
ENDMDL
