MODEL 1
REMARK VINA RESULT:     -10.0      0.000      0.000
REMARK  Name = 223253
REMARK  9 active torsions:
REMARK  status: ('A' for Active; 'I' for Inactive)
REMARK    1  A    between atoms: C_6  and  O_21
REMARK    2  A    between atoms: C_6  and  C_26
REMARK    3  A    between atoms: C_9  and  O_23
REMARK    4  A    between atoms: C_26  and  C_27
REMARK    5  A    between atoms: C_27  and  O_28
REMARK    6  A    between atoms: O_28  and  C_30
REMARK    7  A    between atoms: C_30  and  C_31
REMARK    8  A    between atoms: C_31  and  C_32
REMARK    9  A    between atoms: C_32  and  C_33
REMARK                            x       y       z     vdW  Elec       q    Type
REMARK                         _______ _______ _______ _____ _____    ______ ____
ROOT
ATOM      1  O   UNL     1      30.070  -3.827 -24.001  0.00  0.00    -0.291 OA
ATOM      2  C   UNL     1      32.882 -11.607 -22.284  0.00  0.00    +0.031 C 
ATOM      3  C   UNL     1      31.801 -10.802 -21.530  0.00  0.00    +0.003 C 
ATOM      4  C   UNL     1      32.100  -9.297 -21.447  0.00  0.00    +0.003 C 
ATOM      5  C   UNL     1      32.200  -8.723 -22.898  0.00  0.00    +0.030 C 
ATOM      6  C   UNL     1      32.302 -13.037 -22.113  0.00  0.00    +0.143 C 
ATOM      7  C   UNL     1      32.937 -11.068 -23.727  0.00  0.00    +0.032 C 
ATOM      8  C   UNL     1      32.400  -7.153 -22.927  0.00  0.00    +0.018 C 
ATOM      9  C   UNL     1      33.179  -9.543 -23.797  0.00  0.00    +0.111 C 
ATOM     10  C   UNL     1      31.615 -11.588 -20.234  0.00  0.00    +0.003 C 
ATOM     11  C   UNL     1      31.776 -13.064 -20.659  0.00  0.00    +0.034 C 
ATOM     12  C   UNL     1      30.995  -8.575 -20.662  0.00  0.00    +0.004 C 
ATOM     13  C   UNL     1      34.282 -11.530 -21.615  0.00  0.00    +0.003 C 
ATOM     14  C   UNL     1      31.352  -6.494 -22.019  0.00  0.00    -0.042 C 
ATOM     15  C   UNL     1      31.212  -7.070 -20.632  0.00  0.00    +0.022 C 
ATOM     16  C   UNL     1      32.212  -6.670 -24.395  0.00  0.00    +0.012 C 
ATOM     17  C   UNL     1      33.789  -6.697 -22.424  0.00  0.00    +0.004 C 
ATOM     18  C   UNL     1      31.983  -5.172 -24.518  0.00  0.00    +0.069 C 
ATOM     19  C   UNL     1      30.602  -5.440 -22.377  0.00  0.00    +0.029 C 
ATOM     20  C   UNL     1      30.807  -4.755 -23.675  0.00  0.00    +0.173 C 
ENDROOT
BRANCH   6  21
ATOM     21  O   UNL     1      31.219 -13.265 -23.009  0.00  0.00    -0.380 OA
ATOM     22  H   UNL     1      31.243 -12.603 -23.719  0.00  0.00    +0.211 HD
ENDBRANCH   6  21
BRANCH   9  23
ATOM     23  O   UNL     1      34.534  -9.266 -23.474  0.00  0.00    -0.384 OA
ATOM     24  H   UNL     1      34.608  -9.068 -22.528  0.00  0.00    +0.210 HD
ENDBRANCH   9  23
BRANCH   6  26
ATOM     25  O   UNL     1      33.950 -14.653 -21.520  0.00  0.00    -0.290 OA
ATOM     26  C   UNL     1      33.285 -14.130 -22.413  0.00  0.00    +0.218 C 
BRANCH  26  27
ATOM     27  C   UNL     1      33.408 -14.542 -23.864  0.00  0.00    +0.274 C 
BRANCH  27  28
ATOM     28  O   UNL     1      34.241 -15.674 -23.992  0.00  0.00    -0.440 OA
BRANCH  28  30
ATOM     29  O   UNL     1      32.727 -16.969 -25.154  0.00  0.00    -0.250 OA
ATOM     30  C   UNL     1      33.618 -16.854 -24.324  0.00  0.00    +0.317 C 
BRANCH  30  31
ATOM     31  C   UNL     1      34.201 -17.984 -23.507  0.00  0.00    +0.110 C 
BRANCH  31  32
ATOM     32  C   UNL     1      35.124 -17.473 -22.404  0.00  0.00    +0.012 C 
BRANCH  32  33
ATOM     33  C   UNL     1      34.976 -18.289 -21.132  0.00  0.00    +0.001 C 
ATOM     34  C   UNL     1      36.220 -19.102 -20.790  0.00  0.00    +0.000 C 
ATOM     35  C   UNL     1      33.901 -19.368 -21.231  0.00  0.00    +0.000 C 
ATOM     36  C   UNL     1      35.719 -20.144 -19.795  0.00  0.00    +0.000 C 
ATOM     37  C   UNL     1      34.227 -20.324 -20.087  0.00  0.00    +0.000 C 
ENDBRANCH  32  33
ENDBRANCH  31  32
ENDBRANCH  30  31
ENDBRANCH  28  30
ENDBRANCH  27  28
ENDBRANCH  26  27
ENDBRANCH   6  26
TORSDOF 9
ENDMDL
MODEL 2
REMARK VINA RESULT:      -9.8      1.650      2.533
REMARK  Name = 223253
REMARK  9 active torsions:
REMARK  status: ('A' for Active; 'I' for Inactive)
REMARK    1  A    between atoms: C_6  and  O_21
REMARK    2  A    between atoms: C_6  and  C_26
REMARK    3  A    between atoms: C_9  and  O_23
REMARK    4  A    between atoms: C_26  and  C_27
REMARK    5  A    between atoms: C_27  and  O_28
REMARK    6  A    between atoms: O_28  and  C_30
REMARK    7  A    between atoms: C_30  and  C_31
REMARK    8  A    between atoms: C_31  and  C_32
REMARK    9  A    between atoms: C_32  and  C_33
REMARK                            x       y       z     vdW  Elec       q    Type
REMARK                         _______ _______ _______ _____ _____    ______ ____
ROOT
ATOM      1  O   UNL     1      29.727  -1.786 -23.765  0.00  0.00    -0.291 OA
ATOM      2  C   UNL     1      31.808  -9.730 -21.779  0.00  0.00    +0.031 C 
ATOM      3  C   UNL     1      31.306  -8.618 -20.833  0.00  0.00    +0.003 C 
ATOM      4  C   UNL     1      31.832  -7.220 -21.194  0.00  0.00    +0.003 C 
ATOM      5  C   UNL     1      31.365  -6.864 -22.643  0.00  0.00    +0.030 C 
ATOM      6  C   UNL     1      31.155 -10.962 -21.093  0.00  0.00    +0.143 C 
ATOM      7  C   UNL     1      31.299  -9.397 -23.196  0.00  0.00    +0.032 C 
ATOM      8  C   UNL     1      31.765  -5.394 -23.076  0.00  0.00    +0.018 C 
ATOM      9  C   UNL     1      31.711  -7.986 -23.672  0.00  0.00    +0.111 C 
ATOM     10  C   UNL     1      31.595  -9.178 -19.443  0.00  0.00    +0.003 C 
ATOM     11  C   UNL     1      31.329 -10.692 -19.581  0.00  0.00    +0.034 C 
ATOM     12  C   UNL     1      31.310  -6.177 -20.193  0.00  0.00    +0.004 C 
ATOM     13  C   UNL     1      33.353  -9.889 -21.774  0.00  0.00    +0.003 C 
ATOM     14  C   UNL     1      31.338  -4.411 -21.976  0.00  0.00    -0.042 C 
ATOM     15  C   UNL     1      31.742  -4.767 -20.567  0.00  0.00    +0.022 C 
ATOM     16  C   UNL     1      31.022  -5.064 -24.403  0.00  0.00    +0.012 C 
ATOM     17  C   UNL     1      33.284  -5.204 -23.291  0.00  0.00    +0.004 C 
ATOM     18  C   UNL     1      30.989  -3.579 -24.728  0.00  0.00    +0.069 C 
ATOM     19  C   UNL     1      30.674  -3.267 -22.206  0.00  0.00    +0.029 C 
ATOM     20  C   UNL     1      30.384  -2.809 -23.584  0.00  0.00    +0.173 C 
ENDROOT
BRANCH   6  21
ATOM     21  O   UNL     1      29.767 -11.047 -21.400  0.00  0.00    -0.380 OA
ATOM     22  H   UNL     1      29.250 -10.714 -20.649  0.00  0.00    +0.211 HD
ENDBRANCH   6  21
BRANCH   9  23
ATOM     23  O   UNL     1      33.093  -7.983 -23.998  0.00  0.00    -0.384 OA
ATOM     24  H   UNL     1      33.322  -7.146 -24.430  0.00  0.00    +0.210 HD
ENDBRANCH   9  23
BRANCH   6  26
ATOM     25  O   UNL     1      32.214 -13.066 -20.728  0.00  0.00    -0.290 OA
ATOM     26  C   UNL     1      31.729 -12.275 -21.536  0.00  0.00    +0.218 C 
BRANCH  26  27
ATOM     27  C   UNL     1      31.675 -12.564 -23.022  0.00  0.00    +0.274 C 
BRANCH  27  28
ATOM     28  O   UNL     1      32.948 -12.933 -23.504  0.00  0.00    -0.440 OA
BRANCH  28  30
ATOM     29  O   UNL     1      32.676 -13.321 -25.762  0.00  0.00    -0.250 OA
ATOM     30  C   UNL     1      32.967 -13.710 -24.640  0.00  0.00    +0.317 C 
BRANCH  30  31
ATOM     31  C   UNL     1      33.401 -15.114 -24.287  0.00  0.00    +0.110 C 
BRANCH  31  32
ATOM     32  C   UNL     1      34.248 -15.149 -23.018  0.00  0.00    +0.012 C 
BRANCH  32  33
ATOM     33  C   UNL     1      34.889 -16.510 -22.813  0.00  0.00    +0.001 C 
ATOM     34  C   UNL     1      34.141 -17.639 -23.512  0.00  0.00    +0.000 C 
ATOM     35  C   UNL     1      34.878 -16.966 -21.357  0.00  0.00    +0.000 C 
ATOM     36  C   UNL     1      34.657 -18.902 -22.829  0.00  0.00    +0.000 C 
ATOM     37  C   UNL     1      35.121 -18.470 -21.437  0.00  0.00    +0.000 C 
ENDBRANCH  32  33
ENDBRANCH  31  32
ENDBRANCH  30  31
ENDBRANCH  28  30
ENDBRANCH  27  28
ENDBRANCH  26  27
ENDBRANCH   6  26
TORSDOF 9
ENDMDL
MODEL 3
REMARK VINA RESULT:      -9.1      3.807      7.454
REMARK  Name = 223253
REMARK  9 active torsions:
REMARK  status: ('A' for Active; 'I' for Inactive)
REMARK    1  A    between atoms: C_6  and  O_21
REMARK    2  A    between atoms: C_6  and  C_26
REMARK    3  A    between atoms: C_9  and  O_23
REMARK    4  A    between atoms: C_26  and  C_27
REMARK    5  A    between atoms: C_27  and  O_28
REMARK    6  A    between atoms: O_28  and  C_30
REMARK    7  A    between atoms: C_30  and  C_31
REMARK    8  A    between atoms: C_31  and  C_32
REMARK    9  A    between atoms: C_32  and  C_33
REMARK                            x       y       z     vdW  Elec       q    Type
REMARK                         _______ _______ _______ _____ _____    ______ ____
ROOT
ATOM      1  O   UNL     1      37.789  -4.663 -30.000  0.00  0.00    -0.291 OA
ATOM      2  C   UNL     1      32.014  -5.673 -23.916  0.00  0.00    +0.031 C 
ATOM      3  C   UNL     1      32.073  -6.373 -25.292  0.00  0.00    +0.003 C 
ATOM      4  C   UNL     1      32.580  -5.464 -26.422  0.00  0.00    +0.003 C 
ATOM      5  C   UNL     1      34.024  -4.978 -26.069  0.00  0.00    +0.030 C 
ATOM      6  C   UNL     1      31.413  -6.828 -23.068  0.00  0.00    +0.143 C 
ATOM      7  C   UNL     1      33.449  -5.243 -23.554  0.00  0.00    +0.032 C 
ATOM      8  C   UNL     1      34.684  -4.118 -27.223  0.00  0.00    +0.018 C 
ATOM      9  C   UNL     1      34.110  -4.362 -24.637  0.00  0.00    +0.111 C 
ATOM     10  C   UNL     1      30.693  -7.012 -25.423  0.00  0.00    +0.003 C 
ATOM     11  C   UNL     1      30.343  -7.460 -23.988  0.00  0.00    +0.034 C 
ATOM     12  C   UNL     1      32.584  -6.224 -27.758  0.00  0.00    +0.004 C 
ATOM     13  C   UNL     1      31.051  -4.454 -23.889  0.00  0.00    +0.003 C 
ATOM     14  C   UNL     1      34.539  -4.867 -28.555  0.00  0.00    -0.042 C 
ATOM     15  C   UNL     1      33.161  -5.383 -28.886  0.00  0.00    +0.022 C 
ATOM     16  C   UNL     1      36.190  -3.928 -26.880  0.00  0.00    +0.012 C 
ATOM     17  C   UNL     1      34.033  -2.729 -27.409  0.00  0.00    +0.004 C 
ATOM     18  C   UNL     1      37.031  -3.475 -28.063  0.00  0.00    +0.069 C 
ATOM     19  C   UNL     1      35.542  -5.048 -29.430  0.00  0.00    +0.029 C 
ATOM     20  C   UNL     1      36.873  -4.436 -29.212  0.00  0.00    +0.173 C 
ENDROOT
BRANCH   6  21
ATOM     21  O   UNL     1      32.402  -7.805 -22.756  0.00  0.00    -0.380 OA
ATOM     22  H   UNL     1      31.975  -8.579 -22.354  0.00  0.00    +0.211 HD
ENDBRANCH   6  21
BRANCH   9  23
ATOM     23  O   UNL     1      33.542  -3.060 -24.597  0.00  0.00    -0.384 OA
ATOM     24  H   UNL     1      34.143  -2.460 -24.130  0.00  0.00    +0.210 HD
ENDBRANCH   9  23
BRANCH   6  26
ATOM     25  O   UNL     1      30.056  -5.472 -21.654  0.00  0.00    -0.290 OA
ATOM     26  C   UNL     1      30.875  -6.387 -21.739  0.00  0.00    +0.218 C 
BRANCH  26  27
ATOM     27  C   UNL     1      31.395  -7.127 -20.525  0.00  0.00    +0.274 C 
BRANCH  27  28
ATOM     28  O   UNL     1      31.021  -8.487 -20.573  0.00  0.00    -0.440 OA
BRANCH  28  30
ATOM     29  O   UNL     1      31.556  -8.820 -18.353  0.00  0.00    -0.250 OA
ATOM     30  C   UNL     1      31.367  -9.251 -19.482  0.00  0.00    +0.317 C 
BRANCH  30  31
ATOM     31  C   UNL     1      31.478 -10.701 -19.893  0.00  0.00    +0.110 C 
BRANCH  31  32
ATOM     32  C   UNL     1      31.245 -10.890 -21.389  0.00  0.00    +0.012 C 
BRANCH  32  33
ATOM     33  C   UNL     1      31.821 -12.206 -21.881  0.00  0.00    +0.001 C 
ATOM     34  C   UNL     1      32.450 -13.041 -20.771  0.00  0.00    +0.000 C 
ATOM     35  C   UNL     1      32.984 -12.028 -22.852  0.00  0.00    +0.000 C 
ATOM     36  C   UNL     1      33.328 -14.043 -21.514  0.00  0.00    +0.000 C 
ATOM     37  C   UNL     1      33.681 -13.385 -22.850  0.00  0.00    +0.000 C 
ENDBRANCH  32  33
ENDBRANCH  31  32
ENDBRANCH  30  31
ENDBRANCH  28  30
ENDBRANCH  27  28
ENDBRANCH  26  27
ENDBRANCH   6  26
TORSDOF 9
ENDMDL
MODEL 4
REMARK VINA RESULT:      -8.6      9.045     13.872
REMARK  Name = 223253
REMARK  9 active torsions:
REMARK  status: ('A' for Active; 'I' for Inactive)
REMARK    1  A    between atoms: C_6  and  O_21
REMARK    2  A    between atoms: C_6  and  C_26
REMARK    3  A    between atoms: C_9  and  O_23
REMARK    4  A    between atoms: C_26  and  C_27
REMARK    5  A    between atoms: C_27  and  O_28
REMARK    6  A    between atoms: O_28  and  C_30
REMARK    7  A    between atoms: C_30  and  C_31
REMARK    8  A    between atoms: C_31  and  C_32
REMARK    9  A    between atoms: C_32  and  C_33
REMARK                            x       y       z     vdW  Elec       q    Type
REMARK                         _______ _______ _______ _____ _____    ______ ____
ROOT
ATOM      1  O   UNL     1      33.284 -18.400 -21.537  0.00  0.00    -0.291 OA
ATOM      2  C   UNL     1      34.954 -23.296 -14.857  0.00  0.00    +0.031 C 
ATOM      3  C   UNL     1      35.930 -22.383 -15.630  0.00  0.00    +0.003 C 
ATOM      4  C   UNL     1      35.671 -22.347 -17.144  0.00  0.00    +0.003 C 
ATOM      5  C   UNL     1      34.220 -21.818 -17.394  0.00  0.00    +0.030 C 
ATOM      6  C   UNL     1      35.540 -23.144 -13.427  0.00  0.00    +0.143 C 
ATOM      7  C   UNL     1      33.532 -22.737 -15.068  0.00  0.00    +0.032 C 
ATOM      8  C   UNL     1      33.886 -21.639 -18.931  0.00  0.00    +0.018 C 
ATOM      9  C   UNL     1      33.152 -22.593 -16.559  0.00  0.00    +0.111 C 
ATOM     10  C   UNL     1      37.302 -22.827 -15.128  0.00  0.00    +0.003 C 
ATOM     11  C   UNL     1      37.072 -23.161 -13.639  0.00  0.00    +0.034 C 
ATOM     12  C   UNL     1      36.697 -21.440 -17.841  0.00  0.00    +0.004 C 
ATOM     13  C   UNL     1      35.030 -24.785 -15.295  0.00  0.00    +0.003 C 
ATOM     14  C   UNL     1      35.012 -20.841 -19.602  0.00  0.00    -0.042 C 
ATOM     15  C   UNL     1      36.420 -21.311 -19.331  0.00  0.00    +0.022 C 
ATOM     16  C   UNL     1      32.542 -20.862 -19.045  0.00  0.00    +0.012 C 
ATOM     17  C   UNL     1      33.759 -22.976 -19.696  0.00  0.00    +0.004 C 
ATOM     18  C   UNL     1      32.294 -20.275 -20.425  0.00  0.00    +0.069 C 
ATOM     19  C   UNL     1      34.810 -19.797 -20.423  0.00  0.00    +0.029 C 
ATOM     20  C   UNL     1      33.444 -19.392 -20.829  0.00  0.00    +0.173 C 
ENDROOT
BRANCH   6  21
ATOM     21  O   UNL     1      35.160 -21.902 -12.843  0.00  0.00    -0.380 OA
ATOM     22  H   UNL     1      35.503 -21.173 -13.384  0.00  0.00    +0.211 HD
ENDBRANCH   6  21
BRANCH   9  23
ATOM     23  O   UNL     1      32.898 -23.878 -17.107  0.00  0.00    -0.384 OA
ATOM     24  H   UNL     1      32.370 -24.398 -16.482  0.00  0.00    +0.210 HD
ENDBRANCH   9  23
BRANCH   6  26
ATOM     25  O   UNL     1      35.745 -25.170 -12.188  0.00  0.00    -0.290 OA
ATOM     26  C   UNL     1      35.058 -24.187 -12.461  0.00  0.00    +0.218 C 
BRANCH  26  27
ATOM     27  C   UNL     1      33.692 -23.957 -11.852  0.00  0.00    +0.274 C 
BRANCH  27  28
ATOM     28  O   UNL     1      32.686 -24.545 -12.648  0.00  0.00    -0.440 OA
BRANCH  28  30
ATOM     29  O   UNL     1      31.327 -22.700 -12.379  0.00  0.00    -0.250 OA
ATOM     30  C   UNL     1      31.496 -23.859 -12.728  0.00  0.00    +0.317 C 
BRANCH  30  31
ATOM     31  C   UNL     1      30.431 -24.759 -13.313  0.00  0.00    +0.110 C 
BRANCH  31  32
ATOM     32  C   UNL     1      30.183 -24.464 -14.790  0.00  0.00    +0.012 C 
BRANCH  32  33
ATOM     33  C   UNL     1      28.845 -23.777 -15.004  0.00  0.00    +0.001 C 
ATOM     34  C   UNL     1      28.257 -24.023 -16.389  0.00  0.00    +0.000 C 
ATOM     35  C   UNL     1      28.937 -22.255 -14.956  0.00  0.00    +0.000 C 
ATOM     36  C   UNL     1      27.207 -22.928 -16.544  0.00  0.00    +0.000 C 
ATOM     37  C   UNL     1      27.651 -21.785 -15.630  0.00  0.00    +0.000 C 
ENDBRANCH  32  33
ENDBRANCH  31  32
ENDBRANCH  30  31
ENDBRANCH  28  30
ENDBRANCH  27  28
ENDBRANCH  26  27
ENDBRANCH   6  26
TORSDOF 9
ENDMDL
MODEL 5
REMARK VINA RESULT:      -8.2      2.651     10.054
REMARK  Name = 223253
REMARK  9 active torsions:
REMARK  status: ('A' for Active; 'I' for Inactive)
REMARK    1  A    between atoms: C_6  and  O_21
REMARK    2  A    between atoms: C_6  and  C_26
REMARK    3  A    between atoms: C_9  and  O_23
REMARK    4  A    between atoms: C_26  and  C_27
REMARK    5  A    between atoms: C_27  and  O_28
REMARK    6  A    between atoms: O_28  and  C_30
REMARK    7  A    between atoms: C_30  and  C_31
REMARK    8  A    between atoms: C_31  and  C_32
REMARK    9  A    between atoms: C_32  and  C_33
REMARK                            x       y       z     vdW  Elec       q    Type
REMARK                         _______ _______ _______ _____ _____    ______ ____
ROOT
ATOM      1  O   UNL     1      34.578 -15.759 -21.590  0.00  0.00    -0.291 OA
ATOM      2  C   UNL     1      32.023  -7.709 -21.844  0.00  0.00    +0.031 C 
ATOM      3  C   UNL     1      31.995  -8.674 -20.639  0.00  0.00    +0.003 C 
ATOM      4  C   UNL     1      31.661 -10.124 -21.020  0.00  0.00    +0.003 C 
ATOM      5  C   UNL     1      32.742 -10.643 -22.025  0.00  0.00    +0.030 C 
ATOM      6  C   UNL     1      32.312  -6.377 -21.099  0.00  0.00    +0.143 C 
ATOM      7  C   UNL     1      33.126  -8.199 -22.804  0.00  0.00    +0.032 C 
ATOM      8  C   UNL     1      32.551 -12.169 -22.401  0.00  0.00    +0.018 C 
ATOM      9  C   UNL     1      32.947  -9.673 -23.232  0.00  0.00    +0.111 C 
ATOM     10  C   UNL     1      31.105  -7.954 -19.630  0.00  0.00    +0.003 C 
ATOM     11  C   UNL     1      31.445  -6.460 -19.821  0.00  0.00    +0.034 C 
ATOM     12  C   UNL     1      31.628 -11.013 -19.767  0.00  0.00    +0.004 C 
ATOM     13  C   UNL     1      30.659  -7.607 -22.581  0.00  0.00    +0.003 C 
ATOM     14  C   UNL     1      32.389 -12.989 -21.114  0.00  0.00    -0.042 C 
ATOM     15  C   UNL     1      31.383 -12.473 -20.114  0.00  0.00    +0.022 C 
ATOM     16  C   UNL     1      33.819 -12.637 -23.173  0.00  0.00    +0.012 C 
ATOM     17  C   UNL     1      31.304 -12.441 -23.273  0.00  0.00    +0.004 C 
ATOM     18  C   UNL     1      33.960 -14.148 -23.252  0.00  0.00    +0.069 C 
ATOM     19  C   UNL     1      33.052 -14.128 -20.857  0.00  0.00    +0.029 C 
ATOM     20  C   UNL     1      33.940 -14.745 -21.870  0.00  0.00    +0.173 C 
ENDROOT
BRANCH   6  21
ATOM     21  O   UNL     1      33.685  -6.280 -20.730  0.00  0.00    -0.380 OA
ATOM     22  H   UNL     1      34.176  -5.827 -21.434  0.00  0.00    +0.211 HD
ENDBRANCH   6  21
BRANCH   9  23
ATOM     23  O   UNL     1      31.877  -9.768 -24.161  0.00  0.00    -0.384 OA
ATOM     24  H   UNL     1      31.197  -9.113 -23.939  0.00  0.00    +0.210 HD
ENDBRANCH   9  23
BRANCH   6  26
ATOM     25  O   UNL     1      32.850  -4.769 -22.773  0.00  0.00    -0.290 OA
ATOM     26  C   UNL     1      32.047  -5.152 -21.923  0.00  0.00    +0.218 C 
BRANCH  26  27
ATOM     27  C   UNL     1      30.749  -4.425 -21.646  0.00  0.00    +0.274 C 
BRANCH  27  28
ATOM     28  O   UNL     1      30.152  -3.995 -22.850  0.00  0.00    -0.440 OA
BRANCH  28  30
ATOM     29  O   UNL     1      30.769  -1.787 -22.592  0.00  0.00    -0.250 OA
ATOM     30  C   UNL     1      30.525  -2.751 -23.304  0.00  0.00    +0.317 C 
BRANCH  30  31
ATOM     31  C   UNL     1      30.586  -2.759 -24.814  0.00  0.00    +0.110 C 
BRANCH  31  32
ATOM     32  C   UNL     1      31.984  -2.433 -25.331  0.00  0.00    +0.012 C 
BRANCH  32  33
ATOM     33  C   UNL     1      32.562  -3.582 -26.138  0.00  0.00    +0.001 C 
ATOM     34  C   UNL     1      31.838  -4.904 -25.907  0.00  0.00    +0.000 C 
ATOM     35  C   UNL     1      33.997  -3.926 -25.751  0.00  0.00    +0.000 C 
ATOM     36  C   UNL     1      32.815  -5.956 -26.424  0.00  0.00    +0.000 C 
ATOM     37  C   UNL     1      34.207  -5.330 -26.312  0.00  0.00    +0.000 C 
ENDBRANCH  32  33
ENDBRANCH  31  32
ENDBRANCH  30  31
ENDBRANCH  28  30
ENDBRANCH  27  28
ENDBRANCH  26  27
ENDBRANCH   6  26
TORSDOF 9
ENDMDL
MODEL 6
REMARK VINA RESULT:      -8.2      2.764      9.658
REMARK  Name = 223253
REMARK  9 active torsions:
REMARK  status: ('A' for Active; 'I' for Inactive)
REMARK    1  A    between atoms: C_6  and  O_21
REMARK    2  A    between atoms: C_6  and  C_26
REMARK    3  A    between atoms: C_9  and  O_23
REMARK    4  A    between atoms: C_26  and  C_27
REMARK    5  A    between atoms: C_27  and  O_28
REMARK    6  A    between atoms: O_28  and  C_30
REMARK    7  A    between atoms: C_30  and  C_31
REMARK    8  A    between atoms: C_31  and  C_32
REMARK    9  A    between atoms: C_32  and  C_33
REMARK                            x       y       z     vdW  Elec       q    Type
REMARK                         _______ _______ _______ _____ _____    ______ ____
ROOT
ATOM      1  O   UNL     1      34.488 -15.468 -21.336  0.00  0.00    -0.291 OA
ATOM      2  C   UNL     1      31.932  -7.444 -22.027  0.00  0.00    +0.031 C 
ATOM      3  C   UNL     1      31.980  -8.317 -20.754  0.00  0.00    +0.003 C 
ATOM      4  C   UNL     1      31.620  -9.790 -21.004  0.00  0.00    +0.003 C 
ATOM      5  C   UNL     1      32.634 -10.388 -22.034  0.00  0.00    +0.030 C 
ATOM      6  C   UNL     1      32.270  -6.063 -21.403  0.00  0.00    +0.143 C 
ATOM      7  C   UNL     1      32.971  -8.011 -23.016  0.00  0.00    +0.032 C 
ATOM      8  C   UNL     1      32.419 -11.937 -22.282  0.00  0.00    +0.018 C 
ATOM      9  C   UNL     1      32.763  -9.512 -23.320  0.00  0.00    +0.111 C 
ATOM     10  C   UNL     1      31.156  -7.518 -19.747  0.00  0.00    +0.003 C 
ATOM     11  C   UNL     1      31.485  -6.045 -20.070  0.00  0.00    +0.034 C 
ATOM     12  C   UNL     1      31.666 -10.582 -19.689  0.00  0.00    +0.004 C 
ATOM     13  C   UNL     1      30.525  -7.389 -22.681  0.00  0.00    +0.003 C 
ATOM     14  C   UNL     1      32.337 -12.658 -20.930  0.00  0.00    -0.042 C 
ATOM     15  C   UNL     1      31.398 -12.063 -19.910  0.00  0.00    +0.022 C 
ATOM     16  C   UNL     1      33.634 -12.468 -23.096  0.00  0.00    +0.012 C 
ATOM     17  C   UNL     1      31.118 -12.265 -23.051  0.00  0.00    +0.004 C 
ATOM     18  C   UNL     1      33.768 -13.982 -23.071  0.00  0.00    +0.069 C 
ATOM     19  C   UNL     1      33.014 -13.779 -20.632  0.00  0.00    +0.029 C 
ATOM     20  C   UNL     1      33.835 -14.474 -21.649  0.00  0.00    +0.173 C 
ENDROOT
BRANCH   6  21
ATOM     21  O   UNL     1      33.663  -5.947 -21.130  0.00  0.00    -0.380 OA
ATOM     22  H   UNL     1      34.148  -5.845 -21.965  0.00  0.00    +0.211 HD
ENDBRANCH   6  21
BRANCH   9  23
ATOM     23  O   UNL     1      31.637  -9.669 -24.170  0.00  0.00    -0.384 OA
ATOM     24  H   UNL     1      30.898 -10.039 -23.662  0.00  0.00    +0.210 HD
ENDBRANCH   9  23
BRANCH   6  26
ATOM     25  O   UNL     1      31.054  -4.109 -22.023  0.00  0.00    -0.290 OA
ATOM     26  C   UNL     1      31.955  -4.901 -22.298  0.00  0.00    +0.218 C 
BRANCH  26  27
ATOM     27  C   UNL     1      32.803  -4.764 -23.544  0.00  0.00    +0.274 C 
BRANCH  27  28
ATOM     28  O   UNL     1      31.994  -4.756 -24.700  0.00  0.00    -0.440 OA
BRANCH  28  30
ATOM     29  O   UNL     1      31.307  -6.565 -25.956  0.00  0.00    -0.250 OA
ATOM     30  C   UNL     1      32.181  -5.796 -25.580  0.00  0.00    +0.317 C 
BRANCH  30  31
ATOM     31  C   UNL     1      33.629  -5.841 -26.011  0.00  0.00    +0.110 C 
BRANCH  31  32
ATOM     32  C   UNL     1      33.808  -5.391 -27.458  0.00  0.00    +0.012 C 
BRANCH  32  33
ATOM     33  C   UNL     1      34.981  -4.438 -27.604  0.00  0.00    +0.001 C 
ATOM     34  C   UNL     1      36.133  -5.020 -28.416  0.00  0.00    +0.000 C 
ATOM     35  C   UNL     1      35.655  -4.106 -26.276  0.00  0.00    +0.000 C 
ATOM     36  C   UNL     1      37.320  -4.130 -28.063  0.00  0.00    +0.000 C 
ATOM     37  C   UNL     1      37.018  -3.551 -26.680  0.00  0.00    +0.000 C 
ENDBRANCH  32  33
ENDBRANCH  31  32
ENDBRANCH  30  31
ENDBRANCH  28  30
ENDBRANCH  27  28
ENDBRANCH  26  27
ENDBRANCH   6  26
TORSDOF 9
ENDMDL
MODEL 7
REMARK VINA RESULT:      -8.2      9.945     14.593
REMARK  Name = 223253
REMARK  9 active torsions:
REMARK  status: ('A' for Active; 'I' for Inactive)
REMARK    1  A    between atoms: C_6  and  O_21
REMARK    2  A    between atoms: C_6  and  C_26
REMARK    3  A    between atoms: C_9  and  O_23
REMARK    4  A    between atoms: C_26  and  C_27
REMARK    5  A    between atoms: C_27  and  O_28
REMARK    6  A    between atoms: O_28  and  C_30
REMARK    7  A    between atoms: C_30  and  C_31
REMARK    8  A    between atoms: C_31  and  C_32
REMARK    9  A    between atoms: C_32  and  C_33
REMARK                            x       y       z     vdW  Elec       q    Type
REMARK                         _______ _______ _______ _____ _____    ______ ____
ROOT
ATOM      1  O   UNL     1      27.027 -24.332 -16.225  0.00  0.00    -0.291 OA
ATOM      2  C   UNL     1      35.234 -23.559 -14.372  0.00  0.00    +0.031 C 
ATOM      3  C   UNL     1      34.221 -24.564 -13.783  0.00  0.00    +0.003 C 
ATOM      4  C   UNL     1      32.815 -23.976 -13.587  0.00  0.00    +0.003 C 
ATOM      5  C   UNL     1      32.269 -23.502 -14.974  0.00  0.00    +0.030 C 
ATOM      6  C   UNL     1      36.509 -24.446 -14.363  0.00  0.00    +0.143 C 
ATOM      7  C   UNL     1      34.713 -23.137 -15.760  0.00  0.00    +0.032 C 
ATOM      8  C   UNL     1      30.777 -22.977 -14.903  0.00  0.00    +0.018 C 
ATOM      9  C   UNL     1      33.275 -22.573 -15.723  0.00  0.00    +0.111 C 
ATOM     10  C   UNL     1      34.954 -25.138 -12.573  0.00  0.00    +0.003 C 
ATOM     11  C   UNL     1      36.428 -25.216 -13.024  0.00  0.00    +0.034 C 
ATOM     12  C   UNL     1      31.876 -25.028 -12.976  0.00  0.00    +0.004 C 
ATOM     13  C   UNL     1      35.460 -22.315 -13.468  0.00  0.00    +0.003 C 
ATOM     14  C   UNL     1      29.914 -24.008 -14.163  0.00  0.00    -0.042 C 
ATOM     15  C   UNL     1      30.452 -24.510 -12.846  0.00  0.00    +0.022 C 
ATOM     16  C   UNL     1      30.260 -22.797 -16.360  0.00  0.00    +0.012 C 
ATOM     17  C   UNL     1      30.630 -21.636 -14.148  0.00  0.00    +0.004 C 
ATOM     18  C   UNL     1      28.747 -22.682 -16.458  0.00  0.00    +0.069 C 
ATOM     19  C   UNL     1      28.722 -24.446 -14.601  0.00  0.00    +0.029 C 
ATOM     20  C   UNL     1      28.093 -23.875 -15.815  0.00  0.00    +0.173 C 
ENDROOT
BRANCH   6  21
ATOM     21  O   UNL     1      36.497 -25.376 -15.442  0.00  0.00    -0.380 OA
ATOM     22  H   UNL     1      37.186 -26.044 -15.300  0.00  0.00    +0.211 HD
ENDBRANCH   6  21
BRANCH   9  23
ATOM     23  O   UNL     1      33.294 -21.269 -15.160  0.00  0.00    -0.384 OA
ATOM     24  H   UNL     1      32.681 -20.698 -15.648  0.00  0.00    +0.210 HD
ENDBRANCH   9  23
BRANCH   6  26
ATOM     25  O   UNL     1      38.669 -23.706 -13.679  0.00  0.00    -0.290 OA
ATOM     26  C   UNL     1      37.785 -23.675 -14.534  0.00  0.00    +0.218 C 
BRANCH  26  27
ATOM     27  C   UNL     1      37.915 -22.867 -15.807  0.00  0.00    +0.274 C 
BRANCH  27  28
ATOM     28  O   UNL     1      37.650 -21.503 -15.561  0.00  0.00    -0.440 OA
BRANCH  28  30
ATOM     29  O   UNL     1      37.387 -19.617 -16.864  0.00  0.00    -0.250 OA
ATOM     30  C   UNL     1      37.128 -20.786 -16.613  0.00  0.00    +0.317 C 
BRANCH  30  31
ATOM     31  C   UNL     1      36.187 -21.662 -17.407  0.00  0.00    +0.110 C 
BRANCH  31  32
ATOM     32  C   UNL     1      36.089 -21.221 -18.865  0.00  0.00    +0.012 C 
BRANCH  32  33
ATOM     33  C   UNL     1      34.764 -20.539 -19.153  0.00  0.00    +0.001 C 
ATOM     34  C   UNL     1      33.584 -21.503 -19.181  0.00  0.00    +0.000 C 
ATOM     35  C   UNL     1      34.702 -19.908 -20.541  0.00  0.00    +0.000 C 
ATOM     36  C   UNL     1      32.489 -20.726 -19.907  0.00  0.00    +0.000 C 
ATOM     37  C   UNL     1      33.210 -19.707 -20.791  0.00  0.00    +0.000 C 
ENDBRANCH  32  33
ENDBRANCH  31  32
ENDBRANCH  30  31
ENDBRANCH  28  30
ENDBRANCH  27  28
ENDBRANCH  26  27
ENDBRANCH   6  26
TORSDOF 9
ENDMDL
MODEL 8
REMARK VINA RESULT:      -7.9      1.587      2.820
REMARK  Name = 223253
REMARK  9 active torsions:
REMARK  status: ('A' for Active; 'I' for Inactive)
REMARK    1  A    between atoms: C_6  and  O_21
REMARK    2  A    between atoms: C_6  and  C_26
REMARK    3  A    between atoms: C_9  and  O_23
REMARK    4  A    between atoms: C_26  and  C_27
REMARK    5  A    between atoms: C_27  and  O_28
REMARK    6  A    between atoms: O_28  and  C_30
REMARK    7  A    between atoms: C_30  and  C_31
REMARK    8  A    between atoms: C_31  and  C_32
REMARK    9  A    between atoms: C_32  and  C_33
REMARK                            x       y       z     vdW  Elec       q    Type
REMARK                         _______ _______ _______ _____ _____    ______ ____
ROOT
ATOM      1  O   UNL     1      32.153  -3.268 -22.127  0.00  0.00    -0.291 OA
ATOM      2  C   UNL     1      32.286 -11.694 -21.531  0.00  0.00    +0.031 C 
ATOM      3  C   UNL     1      33.002 -10.807 -22.573  0.00  0.00    +0.003 C 
ATOM      4  C   UNL     1      32.184  -9.577 -22.998  0.00  0.00    +0.003 C 
ATOM      5  C   UNL     1      31.900  -8.700 -21.735  0.00  0.00    +0.030 C 
ATOM      6  C   UNL     1      33.338 -12.830 -21.399  0.00  0.00    +0.143 C 
ATOM      7  C   UNL     1      32.057 -10.835 -20.272  0.00  0.00    +0.032 C 
ATOM      8  C   UNL     1      31.153  -7.347 -22.080  0.00  0.00    +0.018 C 
ATOM      9  C   UNL     1      31.287  -9.527 -20.562  0.00  0.00    +0.111 C 
ATOM     10  C   UNL     1      33.444 -11.803 -23.642  0.00  0.00    +0.003 C 
ATOM     11  C   UNL     1      33.824 -13.070 -22.847  0.00  0.00    +0.034 C 
ATOM     12  C   UNL     1      32.952  -8.764 -24.052  0.00  0.00    +0.004 C 
ATOM     13  C   UNL     1      30.945 -12.285 -22.046  0.00  0.00    +0.003 C 
ATOM     14  C   UNL     1      31.888  -6.644 -23.230  0.00  0.00    -0.042 C 
ATOM     15  C   UNL     1      32.210  -7.492 -24.436  0.00  0.00    +0.022 C 
ATOM     16  C   UNL     1      31.171  -6.449 -20.809  0.00  0.00    +0.012 C 
ATOM     17  C   UNL     1      29.688  -7.548 -22.532  0.00  0.00    +0.004 C 
ATOM     18  C   UNL     1      30.851  -4.990 -21.091  0.00  0.00    +0.069 C 
ATOM     19  C   UNL     1      32.216  -5.342 -23.229  0.00  0.00    +0.029 C 
ATOM     20  C   UNL     1      31.793  -4.443 -22.131  0.00  0.00    +0.173 C 
ENDROOT
BRANCH   6  21
ATOM     21  O   UNL     1      34.439 -12.421 -20.594  0.00  0.00    -0.380 OA
ATOM     22  H   UNL     1      34.560 -13.053 -19.867  0.00  0.00    +0.211 HD
ENDBRANCH   6  21
BRANCH   9  23
ATOM     23  O   UNL     1      29.919  -9.828 -20.798  0.00  0.00    -0.384 OA
ATOM     24  H   UNL     1      29.727 -10.726 -20.488  0.00  0.00    +0.210 HD
ENDBRANCH   9  23
BRANCH   6  26
ATOM     25  O   UNL     1      31.666 -14.114 -20.286  0.00  0.00    -0.290 OA
ATOM     26  C   UNL     1      32.812 -14.067 -20.732  0.00  0.00    +0.218 C 
BRANCH  26  27
ATOM     27  C   UNL     1      33.767 -15.238 -20.641  0.00  0.00    +0.274 C 
BRANCH  27  28
ATOM     28  O   UNL     1      34.505 -15.374 -21.836  0.00  0.00    -0.440 OA
BRANCH  28  30
ATOM     29  O   UNL     1      34.289 -16.954 -23.503  0.00  0.00    -0.250 OA
ATOM     30  C   UNL     1      34.588 -16.644 -22.359  0.00  0.00    +0.317 C 
BRANCH  30  31
ATOM     31  C   UNL     1      35.104 -17.594 -21.303  0.00  0.00    +0.110 C 
BRANCH  31  32
ATOM     32  C   UNL     1      34.603 -19.018 -21.521  0.00  0.00    +0.012 C 
BRANCH  32  33
ATOM     33  C   UNL     1      34.213 -19.679 -20.211  0.00  0.00    +0.001 C 
ATOM     34  C   UNL     1      35.063 -20.899 -19.875  0.00  0.00    +0.000 C 
ATOM     35  C   UNL     1      32.802 -20.260 -20.227  0.00  0.00    +0.000 C 
ATOM     36  C   UNL     1      34.247 -21.639 -18.820  0.00  0.00    +0.000 C 
ATOM     37  C   UNL     1      32.790 -21.237 -19.054  0.00  0.00    +0.000 C 
ENDBRANCH  32  33
ENDBRANCH  31  32
ENDBRANCH  30  31
ENDBRANCH  28  30
ENDBRANCH  27  28
ENDBRANCH  26  27
ENDBRANCH   6  26
TORSDOF 9
ENDMDL
MODEL 9
REMARK VINA RESULT:      -7.5      3.586      9.998
REMARK  Name = 223253
REMARK  9 active torsions:
REMARK  status: ('A' for Active; 'I' for Inactive)
REMARK    1  A    between atoms: C_6  and  O_21
REMARK    2  A    between atoms: C_6  and  C_26
REMARK    3  A    between atoms: C_9  and  O_23
REMARK    4  A    between atoms: C_26  and  C_27
REMARK    5  A    between atoms: C_27  and  O_28
REMARK    6  A    between atoms: O_28  and  C_30
REMARK    7  A    between atoms: C_30  and  C_31
REMARK    8  A    between atoms: C_31  and  C_32
REMARK    9  A    between atoms: C_32  and  C_33
REMARK                            x       y       z     vdW  Elec       q    Type
REMARK                         _______ _______ _______ _____ _____    ______ ____
ROOT
ATOM      1  O   UNL     1      33.202 -14.030 -20.626  0.00  0.00    -0.291 OA
ATOM      2  C   UNL     1      31.338  -6.024 -22.579  0.00  0.00    +0.031 C 
ATOM      3  C   UNL     1      31.841  -6.577 -21.228  0.00  0.00    +0.003 C 
ATOM      4  C   UNL     1      31.277  -7.963 -20.882  0.00  0.00    +0.003 C 
ATOM      5  C   UNL     1      31.699  -8.972 -22.000  0.00  0.00    +0.030 C 
ATOM      6  C   UNL     1      32.033  -4.635 -22.561  0.00  0.00    +0.143 C 
ATOM      7  C   UNL     1      31.803  -6.999 -23.680  0.00  0.00    +0.032 C 
ATOM      8  C   UNL     1      31.258 -10.460 -21.686  0.00  0.00    +0.018 C 
ATOM      9  C   UNL     1      31.349  -8.455 -23.431  0.00  0.00    +0.111 C 
ATOM     10  C   UNL     1      31.600  -5.421 -20.260  0.00  0.00    +0.003 C 
ATOM     11  C   UNL     1      31.893  -4.158 -21.097  0.00  0.00    +0.034 C 
ATOM     12  C   UNL     1      31.804  -8.430 -19.516  0.00  0.00    +0.004 C 
ATOM     13  C   UNL     1      29.797  -5.834 -22.628  0.00  0.00    +0.003 C 
ATOM     14  C   UNL     1      31.693 -10.824 -20.260  0.00  0.00    -0.042 C 
ATOM     15  C   UNL     1      31.334  -9.836 -19.177  0.00  0.00    +0.022 C 
ATOM     16  C   UNL     1      31.959 -11.397 -22.712  0.00  0.00    +0.012 C 
ATOM     17  C   UNL     1      29.730 -10.682 -21.766  0.00  0.00    +0.004 C 
ATOM     18  C   UNL     1      31.952 -12.861 -22.302  0.00  0.00    +0.069 C 
ATOM     19  C   UNL     1      32.327 -11.962 -19.933  0.00  0.00    +0.029 C 
ATOM     20  C   UNL     1      32.571 -13.022 -20.938  0.00  0.00    +0.173 C 
ENDROOT
BRANCH   6  21
ATOM     21  O   UNL     1      33.414  -4.746 -22.891  0.00  0.00    -0.380 OA
ATOM     22  H   UNL     1      33.582  -5.614 -23.291  0.00  0.00    +0.211 HD
ENDBRANCH   6  21
BRANCH   9  23
ATOM     23  O   UNL     1      29.959  -8.568 -23.699  0.00  0.00    -0.384 OA
ATOM     24  H   UNL     1      29.828  -9.037 -24.537  0.00  0.00    +0.210 HD
ENDBRANCH   9  23
BRANCH   6  26
ATOM     25  O   UNL     1      30.378  -3.136 -23.395  0.00  0.00    -0.290 OA
ATOM     26  C   UNL     1      31.475  -3.666 -23.562  0.00  0.00    +0.218 C 
BRANCH  26  27
ATOM     27  C   UNL     1      32.336  -3.385 -24.776  0.00  0.00    +0.274 C 
BRANCH  27  28
ATOM     28  O   UNL     1      31.657  -3.741 -25.961  0.00  0.00    -0.440 OA
BRANCH  28  30
ATOM     29  O   UNL     1      32.755  -3.286 -27.939  0.00  0.00    -0.250 OA
ATOM     30  C   UNL     1      32.447  -4.058 -27.042  0.00  0.00    +0.317 C 
BRANCH  30  31
ATOM     31  C   UNL     1      32.874  -5.505 -26.950  0.00  0.00    +0.110 C 
BRANCH  31  32
ATOM     32  C   UNL     1      34.330  -5.645 -26.514  0.00  0.00    +0.012 C 
BRANCH  32  33
ATOM     33  C   UNL     1      35.224  -4.646 -27.225  0.00  0.00    +0.001 C 
ATOM     34  C   UNL     1      36.198  -5.297 -28.201  0.00  0.00    +0.000 C 
ATOM     35  C   UNL     1      36.160  -3.898 -26.281  0.00  0.00    +0.000 C 
ATOM     36  C   UNL     1      37.254  -4.223 -28.442  0.00  0.00    +0.000 C 
ATOM     37  C   UNL     1      37.237  -3.329 -27.200  0.00  0.00    +0.000 C 
ENDBRANCH  32  33
ENDBRANCH  31  32
ENDBRANCH  30  31
ENDBRANCH  28  30
ENDBRANCH  27  28
ENDBRANCH  26  27
ENDBRANCH   6  26
TORSDOF 9
ENDMDL
