MODEL 1
REMARK VINA RESULT:     -11.6      0.000      0.000
REMARK  Name = 445900
REMARK  1 active torsions:
REMARK  status: ('A' for Active; 'I' for Inactive)
REMARK    1  A    between atoms: C_7  and  C_18
REMARK                            x       y       z     vdW  Elec       q    Type
REMARK                         _______ _______ _______ _____ _____    ______ ____
ROOT
ATOM      1  O   UNL     1      31.461 -22.115 -17.500  0.00  0.00    -0.275 OA
ATOM      2  O   UNL     1      31.506 -22.745 -12.742  0.00  0.00    -0.273 OA
ATOM      3  N   UNL     1      33.584 -23.626 -13.308  0.00  0.00    -0.274 N 
ATOM      4  N   UNL     1      32.915 -23.110 -15.978  0.00  0.00    -0.269 N 
ATOM      5  C   UNL     1      34.332 -24.357 -14.341  0.00  0.00    +0.117 C 
ATOM      6  C   UNL     1      34.275 -23.548 -15.642  0.00  0.00    +0.118 C 
ATOM      7  C   UNL     1      32.598 -22.470 -17.181  0.00  0.00    +0.226 C 
ATOM      8  C   UNL     1      35.767 -24.685 -13.970  0.00  0.00    -0.007 C 
ATOM      9  C   UNL     1      34.114 -23.584 -11.949  0.00  0.00    +0.098 C 
ATOM     10  C   UNL     1      31.850 -23.390 -15.018  0.00  0.00    +0.179 C 
ATOM     11  C   UNL     1      35.584 -23.192 -11.949  0.00  0.00    +0.048 C 
ATOM     12  C   UNL     1      32.296 -23.171 -13.585  0.00  0.00    +0.246 C 
ATOM     13  C   UNL     1      36.370 -24.124 -12.829  0.00  0.00    -0.023 C 
ATOM     14  C   UNL     1      36.515 -25.560 -14.773  0.00  0.00    -0.003 C 
ATOM     15  C   UNL     1      37.711 -24.409 -12.536  0.00  0.00    -0.004 C 
ATOM     16  C   UNL     1      37.844 -25.852 -14.463  0.00  0.00    -0.000 C 
ATOM     17  C   UNL     1      38.443 -25.273 -13.349  0.00  0.00    -0.000 C 
ENDROOT
BRANCH   7  18
ATOM     18  C   UNL     1      33.742 -22.221 -18.118  0.00  0.00    +0.077 C 
ATOM     19  C   UNL     1      33.301 -21.276 -19.239  0.00  0.00    +0.009 C 
ATOM     20  C   UNL     1      34.936 -21.656 -17.346  0.00  0.00    +0.009 C 
ATOM     21  C   UNL     1      34.462 -20.919 -20.164  0.00  0.00    +0.000 C 
ATOM     22  C   UNL     1      36.092 -21.299 -18.277  0.00  0.00    +0.000 C 
ATOM     23  C   UNL     1      35.648 -20.355 -19.389  0.00  0.00    +0.000 C 
ENDBRANCH   7  18
TORSDOF 1
ENDMDL
MODEL 2
REMARK VINA RESULT:     -10.9      1.669      5.649
REMARK  Name = 445900
REMARK  1 active torsions:
REMARK  status: ('A' for Active; 'I' for Inactive)
REMARK    1  A    between atoms: C_7  and  C_18
REMARK                            x       y       z     vdW  Elec       q    Type
REMARK                         _______ _______ _______ _____ _____    ______ ____
ROOT
ATOM      1  O   UNL     1      36.052 -25.464 -10.933  0.00  0.00    -0.275 OA
ATOM      2  O   UNL     1      31.910 -23.956 -12.834  0.00  0.00    -0.273 OA
ATOM      3  N   UNL     1      33.426 -23.090 -14.373  0.00  0.00    -0.274 N 
ATOM      4  N   UNL     1      35.454 -24.128 -12.744  0.00  0.00    -0.269 N 
ATOM      5  C   UNL     1      34.774 -22.527 -14.537  0.00  0.00    +0.117 C 
ATOM      6  C   UNL     1      35.793 -23.566 -14.057  0.00  0.00    +0.118 C 
ATOM      7  C   UNL     1      36.301 -24.996 -12.048  0.00  0.00    +0.226 C 
ATOM      8  C   UNL     1      35.098 -22.061 -15.946  0.00  0.00    -0.007 C 
ATOM      9  C   UNL     1      32.429 -22.850 -15.412  0.00  0.00    +0.098 C 
ATOM     10  C   UNL     1      34.186 -23.730 -12.137  0.00  0.00    +0.179 C 
ATOM     11  C   UNL     1      32.993 -23.158 -16.790  0.00  0.00    +0.048 C 
ATOM     12  C   UNL     1      33.061 -23.654 -13.152  0.00  0.00    +0.246 C 
ATOM     13  C   UNL     1      34.250 -22.368 -17.026  0.00  0.00    -0.023 C 
ATOM     14  C   UNL     1      36.261 -21.314 -16.185  0.00  0.00    -0.003 C 
ATOM     15  C   UNL     1      34.597 -21.963 -18.323  0.00  0.00    -0.004 C 
ATOM     16  C   UNL     1      36.590 -20.901 -17.477  0.00  0.00    -0.000 C 
ATOM     17  C   UNL     1      35.762 -21.230 -18.545  0.00  0.00    -0.000 C 
ENDROOT
BRANCH   7  18
ATOM     18  C   UNL     1      37.586 -25.356 -12.731  0.00  0.00    +0.077 C 
ATOM     19  C   UNL     1      37.298 -25.889 -14.137  0.00  0.00    +0.009 C 
ATOM     20  C   UNL     1      38.513 -24.139 -12.773  0.00  0.00    +0.009 C 
ATOM     21  C   UNL     1      38.585 -26.179 -14.905  0.00  0.00    +0.000 C 
ATOM     22  C   UNL     1      39.797 -24.434 -13.544  0.00  0.00    +0.000 C 
ATOM     23  C   UNL     1      39.503 -24.962 -14.945  0.00  0.00    +0.000 C 
ENDBRANCH   7  18
TORSDOF 1
ENDMDL
MODEL 3
REMARK VINA RESULT:     -10.6     12.093     15.262
REMARK  Name = 445900
REMARK  1 active torsions:
REMARK  status: ('A' for Active; 'I' for Inactive)
REMARK    1  A    between atoms: C_7  and  C_18
REMARK                            x       y       z     vdW  Elec       q    Type
REMARK                         _______ _______ _______ _____ _____    ______ ____
ROOT
ATOM      1  O   UNL     1      31.032  -6.926 -22.003  0.00  0.00    -0.275 OA
ATOM      2  O   UNL     1      31.271 -10.608 -18.933  0.00  0.00    -0.273 OA
ATOM      3  N   UNL     1      31.918 -11.657 -20.907  0.00  0.00    -0.274 N 
ATOM      4  N   UNL     1      31.478  -9.204 -22.186  0.00  0.00    -0.269 N 
ATOM      5  C   UNL     1      31.730 -11.683 -22.365  0.00  0.00    +0.117 C 
ATOM      6  C   UNL     1      32.103 -10.307 -22.925  0.00  0.00    +0.118 C 
ATOM      7  C   UNL     1      31.569  -7.869 -22.592  0.00  0.00    +0.226 C 
ATOM      8  C   UNL     1      32.491 -12.785 -23.081  0.00  0.00    -0.007 C 
ATOM      9  C   UNL     1      32.492 -12.825 -20.248  0.00  0.00    +0.098 C 
ATOM     10  C   UNL     1      30.702  -9.535 -20.993  0.00  0.00    +0.179 C 
ATOM     11  C   UNL     1      33.753 -13.289 -20.960  0.00  0.00    +0.048 C 
ATOM     12  C   UNL     1      31.361 -10.619 -20.161  0.00  0.00    +0.246 C 
ATOM     13  C   UNL     1      33.464 -13.550 -22.412  0.00  0.00    -0.023 C 
ATOM     14  C   UNL     1      32.228 -13.051 -24.434  0.00  0.00    -0.003 C 
ATOM     15  C   UNL     1      34.183 -14.530 -23.110  0.00  0.00    -0.004 C 
ATOM     16  C   UNL     1      32.937 -14.041 -25.116  0.00  0.00    -0.000 C 
ATOM     17  C   UNL     1      33.917 -14.775 -24.456  0.00  0.00    -0.000 C 
ENDROOT
BRANCH   7  18
ATOM     18  C   UNL     1      32.377  -7.607 -23.827  0.00  0.00    +0.077 C 
ATOM     19  C   UNL     1      31.696  -6.531 -24.677  0.00  0.00    +0.009 C 
ATOM     20  C   UNL     1      33.801  -7.198 -23.443  0.00  0.00    +0.009 C 
ATOM     21  C   UNL     1      32.533  -6.164 -25.900  0.00  0.00    +0.000 C 
ATOM     22  C   UNL     1      34.632  -6.831 -24.669  0.00  0.00    +0.000 C 
ATOM     23  C   UNL     1      33.950  -5.756 -25.510  0.00  0.00    +0.000 C 
ENDBRANCH   7  18
TORSDOF 1
ENDMDL
MODEL 4
REMARK VINA RESULT:     -10.1      2.167      5.582
REMARK  Name = 445900
REMARK  1 active torsions:
REMARK  status: ('A' for Active; 'I' for Inactive)
REMARK    1  A    between atoms: C_7  and  C_18
REMARK                            x       y       z     vdW  Elec       q    Type
REMARK                         _______ _______ _______ _____ _____    ______ ____
ROOT
ATOM      1  O   UNL     1      31.994 -24.102 -12.956  0.00  0.00    -0.275 OA
ATOM      2  O   UNL     1      36.742 -23.630 -13.478  0.00  0.00    -0.273 OA
ATOM      3  N   UNL     1      36.002 -22.766 -15.509  0.00  0.00    -0.274 N 
ATOM      4  N   UNL     1      33.407 -23.402 -14.669  0.00  0.00    -0.269 N 
ATOM      5  C   UNL     1      34.967 -22.871 -16.547  0.00  0.00    +0.117 C 
ATOM      6  C   UNL     1      33.603 -22.620 -15.895  0.00  0.00    +0.118 C 
ATOM      7  C   UNL     1      32.193 -23.435 -13.974  0.00  0.00    +0.226 C 
ATOM      8  C   UNL     1      35.174 -21.957 -17.741  0.00  0.00    -0.007 C 
ATOM      9  C   UNL     1      37.262 -22.105 -15.832  0.00  0.00    +0.098 C 
ATOM     10  C   UNL     1      34.529 -24.200 -14.181  0.00  0.00    +0.179 C 
ATOM     11  C   UNL     1      37.017 -20.764 -16.506  0.00  0.00    +0.048 C 
ATOM     12  C   UNL     1      35.853 -23.473 -14.316  0.00  0.00    +0.246 C 
ATOM     13  C   UNL     1      36.150 -20.944 -17.721  0.00  0.00    -0.023 C 
ATOM     14  C   UNL     1      34.381 -22.115 -18.889  0.00  0.00    -0.003 C 
ATOM     15  C   UNL     1      36.288 -20.085 -18.820  0.00  0.00    -0.004 C 
ATOM     16  C   UNL     1      34.538 -21.266 -19.985  0.00  0.00    -0.000 C 
ATOM     17  C   UNL     1      35.487 -20.249 -19.949  0.00  0.00    -0.000 C 
ENDROOT
BRANCH   7  18
ATOM     18  C   UNL     1      31.086 -22.594 -14.537  0.00  0.00    +0.077 C 
ATOM     19  C   UNL     1      30.790 -23.019 -15.977  0.00  0.00    +0.009 C 
ATOM     20  C   UNL     1      29.843 -22.710 -13.652  0.00  0.00    +0.009 C 
ATOM     21  C   UNL     1      29.604 -22.252 -16.558  0.00  0.00    +0.000 C 
ATOM     22  C   UNL     1      28.660 -21.944 -14.239  0.00  0.00    +0.000 C 
ATOM     23  C   UNL     1      28.368 -22.373 -15.673  0.00  0.00    +0.000 C 
ENDBRANCH   7  18
TORSDOF 1
ENDMDL
MODEL 5
REMARK VINA RESULT:     -10.1      2.591      5.226
REMARK  Name = 445900
REMARK  1 active torsions:
REMARK  status: ('A' for Active; 'I' for Inactive)
REMARK    1  A    between atoms: C_7  and  C_18
REMARK                            x       y       z     vdW  Elec       q    Type
REMARK                         _______ _______ _______ _____ _____    ______ ____
ROOT
ATOM      1  O   UNL     1      36.192 -22.162 -15.871  0.00  0.00    -0.275 OA
ATOM      2  O   UNL     1      33.752 -24.367 -12.376  0.00  0.00    -0.273 OA
ATOM      3  N   UNL     1      32.008 -23.740 -13.782  0.00  0.00    -0.274 N 
ATOM      4  N   UNL     1      33.940 -22.508 -15.392  0.00  0.00    -0.269 N 
ATOM      5  C   UNL     1      31.542 -22.712 -14.724  0.00  0.00    +0.117 C 
ATOM      6  C   UNL     1      32.556 -22.610 -15.868  0.00  0.00    +0.118 C 
ATOM      7  C   UNL     1      35.023 -22.277 -16.247  0.00  0.00    +0.226 C 
ATOM      8  C   UNL     1      30.139 -22.936 -15.261  0.00  0.00    -0.007 C 
ATOM      9  C   UNL     1      31.032 -24.647 -13.186  0.00  0.00    +0.098 C 
ATOM     10  C   UNL     1      34.179 -22.625 -13.956  0.00  0.00    +0.179 C 
ATOM     11  C   UNL     1      30.122 -25.243 -14.249  0.00  0.00    +0.048 C 
ATOM     12  C   UNL     1      33.321 -23.699 -13.315  0.00  0.00    +0.246 C 
ATOM     13  C   UNL     1      29.460 -24.149 -15.040  0.00  0.00    -0.023 C 
ATOM     14  C   UNL     1      29.501 -21.923 -15.994  0.00  0.00    -0.003 C 
ATOM     15  C   UNL     1      28.184 -24.344 -15.586  0.00  0.00    -0.004 C 
ATOM     16  C   UNL     1      28.223 -22.121 -16.519  0.00  0.00    -0.000 C 
ATOM     17  C   UNL     1      27.568 -23.332 -16.320  0.00  0.00    -0.000 C 
ENDROOT
BRANCH   7  18
ATOM     18  C   UNL     1      34.700 -22.163 -17.707  0.00  0.00    +0.077 C 
ATOM     19  C   UNL     1      33.261 -21.673 -17.887  0.00  0.00    +0.009 C 
ATOM     20  C   UNL     1      35.699 -21.227 -18.391  0.00  0.00    +0.009 C 
ATOM     21  C   UNL     1      32.920 -21.453 -19.358  0.00  0.00    +0.000 C 
ATOM     22  C   UNL     1      35.352 -21.009 -19.861  0.00  0.00    +0.000 C 
ATOM     23  C   UNL     1      33.918 -20.518 -20.033  0.00  0.00    +0.000 C 
ENDBRANCH   7  18
TORSDOF 1
ENDMDL
MODEL 6
REMARK VINA RESULT:      -9.2     14.887     18.676
REMARK  Name = 445900
REMARK  1 active torsions:
REMARK  status: ('A' for Active; 'I' for Inactive)
REMARK    1  A    between atoms: C_7  and  C_18
REMARK                            x       y       z     vdW  Elec       q    Type
REMARK                         _______ _______ _______ _____ _____    ______ ____
ROOT
ATOM      1  O   UNL     1      30.858  -9.115 -19.631  0.00  0.00    -0.275 OA
ATOM      2  O   UNL     1      30.128  -4.425 -20.343  0.00  0.00    -0.273 OA
ATOM      3  N   UNL     1      31.361  -4.958 -22.244  0.00  0.00    -0.274 N 
ATOM      4  N   UNL     1      31.544  -7.558 -21.221  0.00  0.00    -0.269 N 
ATOM      5  C   UNL     1      32.431  -5.814 -22.774  0.00  0.00    +0.117 C 
ATOM      6  C   UNL     1      32.019  -7.277 -22.580  0.00  0.00    +0.118 C 
ATOM      7  C   UNL     1      31.236  -8.848 -20.774  0.00  0.00    +0.226 C 
ATOM      8  C   UNL     1      32.801  -5.542 -24.221  0.00  0.00    -0.007 C 
ATOM      9  C   UNL     1      30.999  -3.747 -22.973  0.00  0.00    +0.098 C 
ATOM     10  C   UNL     1      31.421  -6.435 -20.295  0.00  0.00    +0.179 C 
ATOM     11  C   UNL     1      30.791  -4.042 -24.451  0.00  0.00    +0.048 C 
ATOM     12  C   UNL     1      30.860  -5.196 -20.965  0.00  0.00    +0.246 C 
ATOM     13  C   UNL     1      32.014  -4.699 -25.027  0.00  0.00    -0.023 C 
ATOM     14  C   UNL     1      33.945  -6.138 -24.774  0.00  0.00    -0.003 C 
ATOM     15  C   UNL     1      32.354  -4.501 -26.372  0.00  0.00    -0.004 C 
ATOM     16  C   UNL     1      34.285  -5.922 -26.111  0.00  0.00    -0.000 C 
ATOM     17  C   UNL     1      33.488  -5.109 -26.910  0.00  0.00    -0.000 C 
ENDROOT
BRANCH   7  18
ATOM     18  C   UNL     1      31.390  -9.950 -21.779  0.00  0.00    +0.077 C 
ATOM     19  C   UNL     1      32.677  -9.746 -22.583  0.00  0.00    +0.009 C 
ATOM     20  C   UNL     1      31.382 -11.306 -21.071  0.00  0.00    +0.009 C 
ATOM     21  C   UNL     1      32.924 -10.898 -23.554  0.00  0.00    +0.000 C 
ATOM     22  C   UNL     1      31.631 -12.454 -22.047  0.00  0.00    +0.000 C 
ATOM     23  C   UNL     1      32.916 -12.247 -22.842  0.00  0.00    +0.000 C 
ENDBRANCH   7  18
TORSDOF 1
ENDMDL
MODEL 7
REMARK VINA RESULT:      -8.8     17.341     20.498
REMARK  Name = 445900
REMARK  1 active torsions:
REMARK  status: ('A' for Active; 'I' for Inactive)
REMARK    1  A    between atoms: C_7  and  C_18
REMARK                            x       y       z     vdW  Elec       q    Type
REMARK                         _______ _______ _______ _____ _____    ______ ____
ROOT
ATOM      1  O   UNL     1      32.030  -2.141 -26.487  0.00  0.00    -0.275 OA
ATOM      2  O   UNL     1      30.104  -1.850 -22.101  0.00  0.00    -0.273 OA
ATOM      3  N   UNL     1      30.507  -4.138 -22.238  0.00  0.00    -0.274 N 
ATOM      4  N   UNL     1      31.423  -3.674 -24.844  0.00  0.00    -0.269 N 
ATOM      5  C   UNL     1      30.555  -5.291 -23.149  0.00  0.00    +0.117 C 
ATOM      6  C   UNL     1      31.591  -5.001 -24.240  0.00  0.00    +0.118 C 
ATOM      7  C   UNL     1      32.168  -3.241 -25.945  0.00  0.00    +0.226 C 
ATOM      8  C   UNL     1      30.839  -6.620 -22.471  0.00  0.00    -0.007 C 
ATOM      9  C   UNL     1      30.382  -4.375 -20.804  0.00  0.00    +0.098 C 
ATOM     10  C   UNL     1      30.407  -2.790 -24.278  0.00  0.00    +0.179 C 
ATOM     11  C   UNL     1      31.393  -5.409 -20.332  0.00  0.00    +0.048 C 
ATOM     12  C   UNL     1      30.369  -2.854 -22.763  0.00  0.00    +0.246 C 
ATOM     13  C   UNL     1      31.246  -6.679 -21.125  0.00  0.00    -0.023 C 
ATOM     14  C   UNL     1      30.699  -7.817 -23.192  0.00  0.00    -0.003 C 
ATOM     15  C   UNL     1      31.545  -7.916 -20.539  0.00  0.00    -0.004 C 
ATOM     16  C   UNL     1      30.982  -9.046 -22.594  0.00  0.00    -0.000 C 
ATOM     17  C   UNL     1      31.410  -9.095 -21.271  0.00  0.00    -0.000 C 
ENDROOT
BRANCH   7  18
ATOM     18  C   UNL     1      33.189  -4.204 -26.474  0.00  0.00    +0.077 C 
ATOM     19  C   UNL     1      33.118  -4.251 -28.003  0.00  0.00    +0.009 C 
ATOM     20  C   UNL     1      34.584  -3.803 -25.990  0.00  0.00    +0.009 C 
ATOM     21  C   UNL     1      34.204  -5.149 -28.590  0.00  0.00    +0.000 C 
ATOM     22  C   UNL     1      35.666  -4.703 -26.582  0.00  0.00    +0.000 C 
ATOM     23  C   UNL     1      35.592  -4.744 -28.105  0.00  0.00    +0.000 C 
ENDBRANCH   7  18
TORSDOF 1
ENDMDL
MODEL 8
REMARK VINA RESULT:      -8.6      2.044      4.797
REMARK  Name = 445900
REMARK  1 active torsions:
REMARK  status: ('A' for Active; 'I' for Inactive)
REMARK    1  A    between atoms: C_7  and  C_18
REMARK                            x       y       z     vdW  Elec       q    Type
REMARK                         _______ _______ _______ _____ _____    ______ ____
ROOT
ATOM      1  O   UNL     1      31.411 -22.412 -17.138  0.00  0.00    -0.275 OA
ATOM      2  O   UNL     1      36.105 -21.796 -17.927  0.00  0.00    -0.273 OA
ATOM      3  N   UNL     1      36.132 -22.463 -15.698  0.00  0.00    -0.274 N 
ATOM      4  N   UNL     1      33.335 -22.522 -15.831  0.00  0.00    -0.269 N 
ATOM      5  C   UNL     1      35.397 -22.412 -14.425  0.00  0.00    +0.117 C 
ATOM      6  C   UNL     1      34.017 -23.041 -14.640  0.00  0.00    +0.118 C 
ATOM      7  C   UNL     1      32.016 -22.853 -16.157  0.00  0.00    +0.226 C 
ATOM      8  C   UNL     1      36.114 -23.062 -13.255  0.00  0.00    -0.007 C 
ATOM      9  C   UNL     1      37.555 -22.787 -15.680  0.00  0.00    +0.098 C 
ATOM     10  C   UNL     1      34.070 -21.596 -16.689  0.00  0.00    +0.179 C 
ATOM     11  C   UNL     1      37.821 -24.026 -14.838  0.00  0.00    +0.048 C 
ATOM     12  C   UNL     1      35.521 -22.000 -16.863  0.00  0.00    +0.246 C 
ATOM     13  C   UNL     1      37.270 -23.840 -13.451  0.00  0.00    -0.023 C 
ATOM     14  C   UNL     1      35.621 -22.893 -11.952  0.00  0.00    -0.003 C 
ATOM     15  C   UNL     1      37.885 -24.466 -12.358  0.00  0.00    -0.004 C 
ATOM     16  C   UNL     1      36.250 -23.506 -10.867  0.00  0.00    -0.000 C 
ATOM     17  C   UNL     1      37.377 -24.295 -11.071  0.00  0.00    -0.000 C 
ENDROOT
BRANCH   7  18
ATOM     18  C   UNL     1      31.324 -23.805 -15.228  0.00  0.00    +0.077 C 
ATOM     19  C   UNL     1      31.051 -23.120 -13.887  0.00  0.00    +0.009 C 
ATOM     20  C   UNL     1      30.032 -24.315 -15.870  0.00  0.00    +0.009 C 
ATOM     21  C   UNL     1      30.262 -24.023 -12.942  0.00  0.00    +0.000 C 
ATOM     22  C   UNL     1      29.247 -25.216 -14.920  0.00  0.00    +0.000 C 
ATOM     23  C   UNL     1      28.975 -24.526 -13.587  0.00  0.00    +0.000 C 
ENDBRANCH   7  18
TORSDOF 1
ENDMDL
