MODEL 1
REMARK VINA RESULT:     -12.7      0.000      0.000
REMARK  Name = 447767
REMARK  2 active torsions:
REMARK  status: ('A' for Active; 'I' for Inactive)
REMARK    1  A    between atoms: N_2  and  C_10
REMARK    2  A    between atoms: C_8  and  C_24
REMARK                            x       y       z     vdW  Elec       q    Type
REMARK                         _______ _______ _______ _____ _____    ______ ____
ROOT
ATOM      1  O   UNL     1      30.465 -11.515 -20.927  0.00  0.00    -0.270 OA
ATOM      2  N   UNL     1      32.363  -7.480 -23.156  0.00  0.00    +0.396 N 
ATOM      3  N   UNL     1      31.574 -10.145 -22.463  0.00  0.00    -0.280 N 
ATOM      4  C   UNL     1      33.337  -8.580 -23.208  0.00  0.00    -0.054 C 
ATOM      5  C   UNL     1      31.382  -7.714 -22.086  0.00  0.00    -0.054 C 
ATOM      6  C   UNL     1      32.642  -9.923 -23.446  0.00  0.00    +0.071 C 
ATOM      7  C   UNL     1      30.642  -9.031 -22.312  0.00  0.00    +0.071 C 
ATOM      8  C   UNL     1      31.360 -11.328 -21.750  0.00  0.00    +0.249 C 
ATOM      9  H   UNL     1      31.867  -7.447 -24.047  0.00  0.00    -0.079 HD
ENDROOT
BRANCH   2  10
ATOM     10  C   UNL     1      33.042  -6.201 -22.959  0.00  0.00    -0.011 C 
ATOM     11  C   UNL     1      32.081  -5.096 -22.542  0.00  0.00    -0.038 C 
ATOM     12  C   UNL     1      33.599  -5.639 -24.261  0.00  0.00    -0.038 C 
ATOM     13  C   UNL     1      32.094  -4.045 -23.486  0.00  0.00    -0.006 C 
ATOM     14  C   UNL     1      33.026  -4.379 -24.542  0.00  0.00    -0.006 C 
ATOM     15  C   UNL     1      31.285  -5.034 -21.409  0.00  0.00    -0.006 C 
ATOM     16  C   UNL     1      34.547  -6.201 -25.101  0.00  0.00    -0.006 C 
ATOM     17  C   UNL     1      31.297  -2.926 -23.308  0.00  0.00    -0.000 C 
ATOM     18  C   UNL     1      33.391  -3.675 -25.678  0.00  0.00    -0.000 C 
ATOM     19  C   UNL     1      30.482  -3.907 -21.229  0.00  0.00    -0.000 C 
ATOM     20  C   UNL     1      34.915  -5.492 -26.246  0.00  0.00    -0.000 C 
ATOM     21  C   UNL     1      30.487  -2.863 -22.169  0.00  0.00    -0.000 C 
ATOM     22  C   UNL     1      34.341  -4.242 -26.532  0.00  0.00    -0.000 C 
ENDBRANCH   2  10
BRANCH   8  24
ATOM     23  N   UNL     1      34.713 -15.635 -22.925  0.00  0.00    -0.312 N 
ATOM     24  C   UNL     1      32.263 -12.460 -21.996  0.00  0.00    +0.054 C 
ATOM     25  C   UNL     1      32.292 -13.052 -23.262  0.00  0.00    +0.006 C 
ATOM     26  C   UNL     1      33.078 -12.923 -20.968  0.00  0.00    +0.006 C 
ATOM     27  C   UNL     1      33.162 -14.135 -23.490  0.00  0.00    +0.015 C 
ATOM     28  C   UNL     1      33.970 -14.583 -22.443  0.00  0.00    +0.048 C 
ATOM     29  C   UNL     1      33.949 -13.997 -21.172  0.00  0.00    +0.015 C 
ATOM     30  C   UNL     1      33.448 -14.956 -24.617  0.00  0.00    +0.017 C 
ATOM     31  C   UNL     1      34.405 -15.869 -24.238  0.00  0.00    +0.062 C 
ATOM     32  H   UNL     1      35.372 -16.146 -22.401  0.00  0.00    +0.152 HD
ENDBRANCH   8  24
TORSDOF 2
ENDMDL
MODEL 2
REMARK VINA RESULT:     -12.2      1.489      2.081
REMARK  Name = 447767
REMARK  2 active torsions:
REMARK  status: ('A' for Active; 'I' for Inactive)
REMARK    1  A    between atoms: N_2  and  C_10
REMARK    2  A    between atoms: C_8  and  C_24
REMARK                            x       y       z     vdW  Elec       q    Type
REMARK                         _______ _______ _______ _____ _____    ______ ____
ROOT
ATOM      1  O   UNL     1      31.322 -12.692 -20.493  0.00  0.00    -0.270 OA
ATOM      2  N   UNL     1      32.506  -8.606 -23.092  0.00  0.00    +0.396 N 
ATOM      3  N   UNL     1      31.997 -11.293 -22.240  0.00  0.00    -0.280 N 
ATOM      4  C   UNL     1      33.482  -9.671 -23.369  0.00  0.00    -0.054 C 
ATOM      5  C   UNL     1      31.807  -8.868 -21.826  0.00  0.00    -0.054 C 
ATOM      6  C   UNL     1      32.801 -11.039 -23.442  0.00  0.00    +0.071 C 
ATOM      7  C   UNL     1      31.084 -10.212 -21.877  0.00  0.00    +0.071 C 
ATOM      8  C   UNL     1      31.996 -12.478 -21.500  0.00  0.00    +0.249 C 
ATOM      9  H   UNL     1      31.818  -8.597 -23.844  0.00  0.00    -0.079 HD
ENDROOT
BRANCH   2  10
ATOM     10  C   UNL     1      33.165  -7.301 -23.055  0.00  0.00    -0.011 C 
ATOM     11  C   UNL     1      32.667  -6.437 -21.904  0.00  0.00    -0.038 C 
ATOM     12  C   UNL     1      32.804  -6.440 -24.257  0.00  0.00    -0.038 C 
ATOM     13  C   UNL     1      32.097  -5.240 -22.395  0.00  0.00    -0.006 C 
ATOM     14  C   UNL     1      32.182  -5.242 -23.839  0.00  0.00    -0.006 C 
ATOM     15  C   UNL     1      32.737  -6.695 -20.544  0.00  0.00    -0.006 C 
ATOM     16  C   UNL     1      33.032  -6.701 -25.598  0.00  0.00    -0.006 C 
ATOM     17  C   UNL     1      31.582  -4.295 -21.523  0.00  0.00    -0.000 C 
ATOM     18  C   UNL     1      31.771  -4.299 -24.767  0.00  0.00    -0.000 C 
ATOM     19  C   UNL     1      32.218  -5.742 -19.666  0.00  0.00    -0.000 C 
ATOM     20  C   UNL     1      32.618  -5.751 -26.534  0.00  0.00    -0.000 C 
ATOM     21  C   UNL     1      31.645  -4.555 -20.150  0.00  0.00    -0.000 C 
ATOM     22  C   UNL     1      31.993  -4.562 -26.122  0.00  0.00    -0.000 C 
ENDBRANCH   2  10
BRANCH   8  24
ATOM     23  N   UNL     1      35.281 -16.747 -22.970  0.00  0.00    -0.312 N 
ATOM     24  C   UNL     1      32.860 -13.578 -21.949  0.00  0.00    +0.054 C 
ATOM     25  C   UNL     1      33.310 -14.519 -21.019  0.00  0.00    +0.006 C 
ATOM     26  C   UNL     1      33.215 -13.667 -23.291  0.00  0.00    +0.006 C 
ATOM     27  C   UNL     1      34.136 -15.572 -21.458  0.00  0.00    +0.015 C 
ATOM     28  C   UNL     1      34.479 -15.641 -22.810  0.00  0.00    +0.048 C 
ATOM     29  C   UNL     1      34.033 -14.703 -23.749  0.00  0.00    +0.015 C 
ATOM     30  C   UNL     1      34.761 -16.677 -20.813  0.00  0.00    +0.017 C 
ATOM     31  C   UNL     1      35.458 -17.379 -21.768  0.00  0.00    +0.062 C 
ATOM     32  H   UNL     1      35.671 -17.042 -23.824  0.00  0.00    +0.152 HD
ENDBRANCH   8  24
TORSDOF 2
ENDMDL
MODEL 3
REMARK VINA RESULT:     -11.6      2.471      4.889
REMARK  Name = 447767
REMARK  2 active torsions:
REMARK  status: ('A' for Active; 'I' for Inactive)
REMARK    1  A    between atoms: N_2  and  C_10
REMARK    2  A    between atoms: C_8  and  C_24
REMARK                            x       y       z     vdW  Elec       q    Type
REMARK                         _______ _______ _______ _____ _____    ______ ____
ROOT
ATOM      1  O   UNL     1      33.266 -14.958 -25.447  0.00  0.00    -0.270 OA
ATOM      2  N   UNL     1      32.351 -10.624 -23.160  0.00  0.00    +0.396 N 
ATOM      3  N   UNL     1      33.394 -13.175 -23.940  0.00  0.00    -0.280 N 
ATOM      4  C   UNL     1      32.557 -11.680 -22.158  0.00  0.00    -0.054 C 
ATOM      5  C   UNL     1      31.991 -11.212 -24.458  0.00  0.00    -0.054 C 
ATOM      6  C   UNL     1      33.658 -12.649 -22.595  0.00  0.00    +0.071 C 
ATOM      7  C   UNL     1      33.088 -12.159 -24.943  0.00  0.00    +0.071 C 
ATOM      8  C   UNL     1      33.486 -14.517 -24.320  0.00  0.00    +0.249 C 
ATOM      9  H   UNL     1      33.225 -10.110 -23.270  0.00  0.00    -0.079 HD
ENDROOT
BRANCH   2  10
ATOM     10  C   UNL     1      31.319  -9.689 -22.716  0.00  0.00    -0.011 C 
ATOM     11  C   UNL     1      31.553  -8.280 -23.244  0.00  0.00    -0.038 C 
ATOM     12  C   UNL     1      31.360  -9.457 -21.212  0.00  0.00    -0.038 C 
ATOM     13  C   UNL     1      31.707  -7.370 -22.174  0.00  0.00    -0.006 C 
ATOM     14  C   UNL     1      31.588  -8.093 -20.926  0.00  0.00    -0.006 C 
ATOM     15  C   UNL     1      31.604  -7.854 -24.562  0.00  0.00    -0.006 C 
ATOM     16  C   UNL     1      31.189 -10.385 -20.197  0.00  0.00    -0.006 C 
ATOM     17  C   UNL     1      31.925  -6.023 -22.419  0.00  0.00    -0.000 C 
ATOM     18  C   UNL     1      31.658  -7.648 -19.616  0.00  0.00    -0.000 C 
ATOM     19  C   UNL     1      31.823  -6.498 -24.808  0.00  0.00    -0.000 C 
ATOM     20  C   UNL     1      31.259  -9.937 -18.876  0.00  0.00    -0.000 C 
ATOM     21  C   UNL     1      31.983  -5.592 -23.747  0.00  0.00    -0.000 C 
ATOM     22  C   UNL     1      31.493  -8.582 -18.589  0.00  0.00    -0.000 C 
ENDBRANCH   2  10
BRANCH   8  24
ATOM     23  N   UNL     1      35.010 -18.430 -20.640  0.00  0.00    -0.312 N 
ATOM     24  C   UNL     1      33.887 -15.500 -23.305  0.00  0.00    +0.054 C 
ATOM     25  C   UNL     1      34.047 -16.838 -23.672  0.00  0.00    +0.006 C 
ATOM     26  C   UNL     1      34.104 -15.083 -21.995  0.00  0.00    +0.006 C 
ATOM     27  C   UNL     1      34.433 -17.774 -22.693  0.00  0.00    +0.015 C 
ATOM     28  C   UNL     1      34.645 -17.332 -21.385  0.00  0.00    +0.048 C 
ATOM     29  C   UNL     1      34.489 -15.994 -21.007  0.00  0.00    +0.015 C 
ATOM     30  C   UNL     1      34.683 -19.175 -22.705  0.00  0.00    +0.017 C 
ATOM     31  C   UNL     1      35.035 -19.549 -21.429  0.00  0.00    +0.062 C 
ATOM     32  H   UNL     1      35.221 -18.414 -19.679  0.00  0.00    +0.152 HD
ENDBRANCH   8  24
TORSDOF 2
ENDMDL
MODEL 4
REMARK VINA RESULT:     -10.7      9.593     15.737
REMARK  Name = 447767
REMARK  2 active torsions:
REMARK  status: ('A' for Active; 'I' for Inactive)
REMARK    1  A    between atoms: N_2  and  C_10
REMARK    2  A    between atoms: C_8  and  C_24
REMARK                            x       y       z     vdW  Elec       q    Type
REMARK                         _______ _______ _______ _____ _____    ______ ____
ROOT
ATOM      1  O   UNL     1      36.065 -21.405 -20.146  0.00  0.00    -0.270 OA
ATOM      2  N   UNL     1      31.838 -22.071 -17.589  0.00  0.00    +0.396 N 
ATOM      3  N   UNL     1      33.799 -21.409 -19.568  0.00  0.00    -0.280 N 
ATOM      4  C   UNL     1      31.823 -20.751 -18.237  0.00  0.00    -0.054 C 
ATOM      5  C   UNL     1      33.216 -22.568 -17.469  0.00  0.00    -0.054 C 
ATOM      6  C   UNL     1      32.460 -20.812 -19.627  0.00  0.00    +0.071 C 
ATOM      7  C   UNL     1      33.871 -22.676 -18.845  0.00  0.00    +0.071 C 
ATOM      8  C   UNL     1      34.942 -20.904 -20.195  0.00  0.00    +0.249 C 
ATOM      9  H   UNL     1      31.310 -22.722 -18.170  0.00  0.00    -0.079 HD
ENDROOT
BRANCH   2  10
ATOM     10  C   UNL     1      31.200 -22.006 -16.275  0.00  0.00    -0.011 C 
ATOM     11  C   UNL     1      31.997 -22.747 -15.210  0.00  0.00    -0.038 C 
ATOM     12  C   UNL     1      29.877 -22.759 -16.240  0.00  0.00    -0.038 C 
ATOM     13  C   UNL     1      31.222 -23.785 -14.646  0.00  0.00    -0.006 C 
ATOM     14  C   UNL     1      29.920 -23.792 -15.278  0.00  0.00    -0.006 C 
ATOM     15  C   UNL     1      33.289 -22.498 -14.776  0.00  0.00    -0.006 C 
ATOM     16  C   UNL     1      28.735 -22.522 -16.989  0.00  0.00    -0.006 C 
ATOM     17  C   UNL     1      31.743 -24.592 -13.647  0.00  0.00    -0.000 C 
ATOM     18  C   UNL     1      28.820 -24.608 -15.068  0.00  0.00    -0.000 C 
ATOM     19  C   UNL     1      33.814 -23.310 -13.771  0.00  0.00    -0.000 C 
ATOM     20  C   UNL     1      27.626 -23.344 -16.778  0.00  0.00    -0.000 C 
ATOM     21  C   UNL     1      33.050 -24.348 -13.212  0.00  0.00    -0.000 C 
ATOM     22  C   UNL     1      27.669 -24.377 -15.827  0.00  0.00    -0.000 C 
ENDBRANCH   2  10
BRANCH   8  24
ATOM     23  N   UNL     1      34.318 -16.370 -23.393  0.00  0.00    -0.312 N 
ATOM     24  C   UNL     1      34.812 -19.677 -20.991  0.00  0.00    +0.054 C 
ATOM     25  C   UNL     1      34.151 -19.724 -22.221  0.00  0.00    +0.006 C 
ATOM     26  C   UNL     1      35.346 -18.487 -20.508  0.00  0.00    +0.006 C 
ATOM     27  C   UNL     1      34.028 -18.543 -22.978  0.00  0.00    +0.015 C 
ATOM     28  C   UNL     1      34.573 -17.360 -22.472  0.00  0.00    +0.048 C 
ATOM     29  C   UNL     1      35.236 -17.302 -21.242  0.00  0.00    +0.015 C 
ATOM     30  C   UNL     1      33.438 -18.227 -24.234  0.00  0.00    +0.017 C 
ATOM     31  C   UNL     1      33.633 -16.885 -24.462  0.00  0.00    +0.062 C 
ATOM     32  H   UNL     1      34.589 -15.429 -23.298  0.00  0.00    +0.152 HD
ENDBRANCH   8  24
TORSDOF 2
ENDMDL
MODEL 5
REMARK VINA RESULT:     -10.1     10.999     17.418
REMARK  Name = 447767
REMARK  2 active torsions:
REMARK  status: ('A' for Active; 'I' for Inactive)
REMARK    1  A    between atoms: N_2  and  C_10
REMARK    2  A    between atoms: C_8  and  C_24
REMARK                            x       y       z     vdW  Elec       q    Type
REMARK                         _______ _______ _______ _____ _____    ______ ____
ROOT
ATOM      1  O   UNL     1      32.635 -22.511 -19.003  0.00  0.00    -0.270 OA
ATOM      2  N   UNL     1      34.864 -23.555 -14.668  0.00  0.00    +0.396 N 
ATOM      3  N   UNL     1      33.898 -22.289 -17.048  0.00  0.00    -0.280 N 
ATOM      4  C   UNL     1      35.780 -22.788 -15.525  0.00  0.00    -0.054 C 
ATOM      5  C   UNL     1      33.814 -24.190 -15.478  0.00  0.00    -0.054 C 
ATOM      6  C   UNL     1      35.029 -21.712 -16.311  0.00  0.00    +0.071 C 
ATOM      7  C   UNL     1      33.019 -23.139 -16.250  0.00  0.00    +0.071 C 
ATOM      8  C   UNL     1      33.582 -22.029 -18.385  0.00  0.00    +0.249 C 
ATOM      9  H   UNL     1      34.420 -22.912 -14.013  0.00  0.00    -0.079 HD
ENDROOT
BRANCH   2  10
ATOM     10  C   UNL     1      35.598 -24.560 -13.900  0.00  0.00    -0.011 C 
ATOM     11  C   UNL     1      35.594 -24.260 -12.407  0.00  0.00    -0.038 C 
ATOM     12  C   UNL     1      37.089 -24.542 -14.207  0.00  0.00    -0.038 C 
ATOM     13  C   UNL     1      36.915 -24.094 -11.933  0.00  0.00    -0.006 C 
ATOM     14  C   UNL     1      37.833 -24.268 -13.038  0.00  0.00    -0.006 C 
ATOM     15  C   UNL     1      34.507 -24.164 -11.554  0.00  0.00    -0.006 C 
ATOM     16  C   UNL     1      37.718 -24.771 -15.421  0.00  0.00    -0.006 C 
ATOM     17  C   UNL     1      37.154 -23.819 -10.596  0.00  0.00    -0.000 C 
ATOM     18  C   UNL     1      39.216 -24.209 -13.078  0.00  0.00    -0.000 C 
ATOM     19  C   UNL     1      34.748 -23.887 -10.208  0.00  0.00    -0.000 C 
ATOM     20  C   UNL     1      39.112 -24.712 -15.462  0.00  0.00    -0.000 C 
ATOM     21  C   UNL     1      36.059 -23.715  -9.733  0.00  0.00    -0.000 C 
ATOM     22  C   UNL     1      39.853 -24.432 -14.302  0.00  0.00    -0.000 C 
ENDBRANCH   2  10
BRANCH   8  24
ATOM     23  N   UNL     1      36.626 -18.405 -21.348  0.00  0.00    -0.312 N 
ATOM     24  C   UNL     1      34.437 -21.095 -19.131  0.00  0.00    +0.054 C 
ATOM     25  C   UNL     1      33.871 -20.292 -20.125  0.00  0.00    +0.006 C 
ATOM     26  C   UNL     1      35.795 -21.024 -18.836  0.00  0.00    +0.006 C 
ATOM     27  C   UNL     1      34.696 -19.399 -20.834  0.00  0.00    +0.015 C 
ATOM     28  C   UNL     1      36.056 -19.345 -20.521  0.00  0.00    +0.048 C 
ATOM     29  C   UNL     1      36.633 -20.145 -19.528  0.00  0.00    +0.015 C 
ATOM     30  C   UNL     1      34.472 -18.458 -21.879  0.00  0.00    +0.017 C 
ATOM     31  C   UNL     1      35.677 -17.864 -22.173  0.00  0.00    +0.062 C 
ATOM     32  H   UNL     1      37.579 -18.158 -21.348  0.00  0.00    +0.152 HD
ENDBRANCH   8  24
TORSDOF 2
ENDMDL
MODEL 6
REMARK VINA RESULT:     -10.0     11.127     17.677
REMARK  Name = 447767
REMARK  2 active torsions:
REMARK  status: ('A' for Active; 'I' for Inactive)
REMARK    1  A    between atoms: N_2  and  C_10
REMARK    2  A    between atoms: C_8  and  C_24
REMARK                            x       y       z     vdW  Elec       q    Type
REMARK                         _______ _______ _______ _____ _____    ______ ____
ROOT
ATOM      1  O   UNL     1      33.449 -23.620 -18.776  0.00  0.00    -0.270 OA
ATOM      2  N   UNL     1      35.603 -22.422 -14.444  0.00  0.00    +0.396 N 
ATOM      3  N   UNL     1      34.188 -22.386 -16.933  0.00  0.00    -0.280 N 
ATOM      4  C   UNL     1      35.883 -21.379 -15.442  0.00  0.00    -0.054 C 
ATOM      5  C   UNL     1      35.227 -23.679 -15.106  0.00  0.00    -0.054 C 
ATOM      6  C   UNL     1      34.667 -21.133 -16.338  0.00  0.00    +0.071 C 
ATOM      7  C   UNL     1      33.992 -23.477 -15.982  0.00  0.00    +0.071 C 
ATOM      8  C   UNL     1      33.851 -22.570 -18.276  0.00  0.00    +0.249 C 
ATOM      9  H   UNL     1      34.820 -22.114 -13.867  0.00  0.00    -0.079 HD
ENDROOT
BRANCH   2  10
ATOM     10  C   UNL     1      36.762 -22.626 -13.575  0.00  0.00    -0.011 C 
ATOM     11  C   UNL     1      37.742 -23.639 -14.151  0.00  0.00    -0.038 C 
ATOM     12  C   UNL     1      36.383 -23.289 -12.257  0.00  0.00    -0.038 C 
ATOM     13  C   UNL     1      37.897 -24.734 -13.270  0.00  0.00    -0.006 C 
ATOM     14  C   UNL     1      37.063 -24.518 -12.107  0.00  0.00    -0.006 C 
ATOM     15  C   UNL     1      38.442 -23.574 -15.344  0.00  0.00    -0.006 C 
ATOM     16  C   UNL     1      35.524 -22.819 -11.277  0.00  0.00    -0.006 C 
ATOM     17  C   UNL     1      38.749 -25.779 -13.586  0.00  0.00    -0.000 C 
ATOM     18  C   UNL     1      36.876 -25.294 -10.975  0.00  0.00    -0.000 C 
ATOM     19  C   UNL     1      39.301 -24.626 -15.663  0.00  0.00    -0.000 C 
ATOM     20  C   UNL     1      35.336 -23.601 -10.136  0.00  0.00    -0.000 C 
ATOM     21  C   UNL     1      39.453 -25.719 -14.794  0.00  0.00    -0.000 C 
ATOM     22  C   UNL     1      36.004 -24.827  -9.987  0.00  0.00    -0.000 C 
ENDBRANCH   2  10
BRANCH   8  24
ATOM     23  N   UNL     1      34.566 -18.224 -21.707  0.00  0.00    -0.312 N 
ATOM     24  C   UNL     1      33.973 -21.423 -19.186  0.00  0.00    +0.054 C 
ATOM     25  C   UNL     1      35.240 -20.906 -19.471  0.00  0.00    +0.006 C 
ATOM     26  C   UNL     1      32.828 -20.872 -19.752  0.00  0.00    +0.006 C 
ATOM     27  C   UNL     1      35.349 -19.808 -20.346  0.00  0.00    +0.015 C 
ATOM     28  C   UNL     1      34.185 -19.271 -20.901  0.00  0.00    +0.048 C 
ATOM     29  C   UNL     1      32.912 -19.782 -20.623  0.00  0.00    +0.015 C 
ATOM     30  C   UNL     1      36.441 -19.045 -20.848  0.00  0.00    +0.017 C 
ATOM     31  C   UNL     1      35.928 -18.078 -21.681  0.00  0.00    +0.062 C 
ATOM     32  H   UNL     1      33.950 -17.659 -22.227  0.00  0.00    +0.152 HD
ENDBRANCH   8  24
TORSDOF 2
ENDMDL
MODEL 7
REMARK VINA RESULT:     -10.0      2.116      8.368
REMARK  Name = 447767
REMARK  2 active torsions:
REMARK  status: ('A' for Active; 'I' for Inactive)
REMARK    1  A    between atoms: N_2  and  C_10
REMARK    2  A    between atoms: C_8  and  C_24
REMARK                            x       y       z     vdW  Elec       q    Type
REMARK                         _______ _______ _______ _____ _____    ______ ____
ROOT
ATOM      1  O   UNL     1      30.534  -6.355 -22.439  0.00  0.00    -0.270 OA
ATOM      2  N   UNL     1      32.109 -11.078 -22.200  0.00  0.00    +0.396 N 
ATOM      3  N   UNL     1      31.926  -8.233 -22.475  0.00  0.00    -0.280 N 
ATOM      4  C   UNL     1      32.748 -10.399 -23.337  0.00  0.00    -0.054 C 
ATOM      5  C   UNL     1      30.887 -10.367 -21.799  0.00  0.00    -0.054 C 
ATOM      6  C   UNL     1      33.099  -8.951 -22.988  0.00  0.00    +0.071 C 
ATOM      7  C   UNL     1      31.206  -8.925 -21.409  0.00  0.00    +0.071 C 
ATOM      8  C   UNL     1      31.517  -6.957 -22.870  0.00  0.00    +0.249 C 
ATOM      9  H   UNL     1      32.759 -11.071 -21.414  0.00  0.00    -0.079 HD
ENDROOT
BRANCH   2  10
ATOM     10  C   UNL     1      31.807 -12.469 -22.536  0.00  0.00    -0.011 C 
ATOM     11  C   UNL     1      32.567 -13.451 -21.654  0.00  0.00    -0.038 C 
ATOM     12  C   UNL     1      32.316 -12.850 -23.920  0.00  0.00    -0.038 C 
ATOM     13  C   UNL     1      33.397 -14.281 -22.441  0.00  0.00    -0.006 C 
ATOM     14  C   UNL     1      33.243 -13.912 -23.832  0.00  0.00    -0.006 C 
ATOM     15  C   UNL     1      32.502 -13.598 -20.278  0.00  0.00    -0.006 C 
ATOM     16  C   UNL     1      31.961 -12.305 -25.143  0.00  0.00    -0.006 C 
ATOM     17  C   UNL     1      34.180 -15.260 -21.850  0.00  0.00    -0.000 C 
ATOM     18  C   UNL     1      33.833 -14.430 -24.973  0.00  0.00    -0.000 C 
ATOM     19  C   UNL     1      33.290 -14.583 -19.683  0.00  0.00    -0.000 C 
ATOM     20  C   UNL     1      32.556 -12.827 -26.294  0.00  0.00    -0.000 C 
ATOM     21  C   UNL     1      34.122 -15.405 -20.460  0.00  0.00    -0.000 C 
ATOM     22  C   UNL     1      33.484 -13.878 -26.209  0.00  0.00    -0.000 C 
ENDBRANCH   2  10
BRANCH   8  24
ATOM     23  N   UNL     1      34.420  -4.379 -26.884  0.00  0.00    -0.312 N 
ATOM     24  C   UNL     1      32.320  -6.252 -23.879  0.00  0.00    +0.054 C 
ATOM     25  C   UNL     1      32.015  -6.415 -25.233  0.00  0.00    +0.006 C 
ATOM     26  C   UNL     1      33.368  -5.433 -23.472  0.00  0.00    +0.006 C 
ATOM     27  C   UNL     1      32.788  -5.735 -26.194  0.00  0.00    +0.015 C 
ATOM     28  C   UNL     1      33.835  -4.919 -25.761  0.00  0.00    +0.048 C 
ATOM     29  C   UNL     1      34.148  -4.748 -24.408  0.00  0.00    +0.015 C 
ATOM     30  C   UNL     1      32.766  -5.666 -27.616  0.00  0.00    +0.017 C 
ATOM     31  C   UNL     1      33.781  -4.826 -28.010  0.00  0.00    +0.062 C 
ATOM     32  H   UNL     1      35.187  -3.762 -26.879  0.00  0.00    +0.152 HD
ENDBRANCH   8  24
TORSDOF 2
ENDMDL
