MODEL 1
REMARK VINA RESULT:     -11.8      0.000      0.000
REMARK  Name = 17755582
REMARK  6 active torsions:
REMARK  status: ('A' for Active; 'I' for Inactive)
REMARK    1  A    between atoms: S_1  and  C_4
REMARK    2  A    between atoms: S_1  and  N_19
REMARK    3  A    between atoms: C_5  and  N_10
REMARK    4  A    between atoms: N_10  and  C_17
REMARK    5  A    between atoms: N_19  and  C_21
REMARK    6  A    between atoms: C_21  and  C_25
REMARK                            x       y       z     vdW  Elec       q    Type
REMARK                         _______ _______ _______ _____ _____    ______ ____
ROOT
ATOM      1  S   UNL     1      33.121 -22.539 -18.324  0.00  0.00    +0.061 S 
ATOM      2  O   UNL     1      33.155 -23.964 -18.632  0.00  0.00    -0.153 OA
ATOM      3  O   UNL     1      31.921 -21.967 -17.728  0.00  0.00    -0.153 OA
ENDROOT
BRANCH   1   4
ATOM      4  C   UNL     1      34.467 -22.158 -17.280  0.00  0.00    +0.123 C 
ATOM      5  C   UNL     1      35.490 -22.180 -15.091  0.00  0.00    +0.050 C 
ATOM      6  C   UNL     1      34.414 -22.485 -15.925  0.00  0.00    +0.034 C 
ATOM      7  C   UNL     1      35.597 -21.527 -17.801  0.00  0.00    +0.020 C 
ATOM      8  C   UNL     1      36.619 -21.549 -15.612  0.00  0.00    +0.015 C 
ATOM      9  C   UNL     1      36.673 -21.222 -16.967  0.00  0.00    +0.003 C 
BRANCH   5  10
ATOM     10  N   UNL     1      35.436 -22.509 -13.727  0.00  0.00    -0.312 N 
ATOM     11  H   UNL     1      35.092 -21.805 -13.131  0.00  0.00    +0.152 HD
BRANCH  10  17
ATOM     12  O   UNL     1      38.340 -26.137 -13.089  0.00  0.00    -0.445 OA
ATOM     13  O   UNL     1      36.571 -26.081 -11.616  0.00  0.00    -0.245 OA
ATOM     14  C   UNL     1      38.095 -24.031 -14.121  0.00  0.00    +0.082 C 
ATOM     15  C   UNL     1      36.937 -24.345 -13.254  0.00  0.00    +0.072 C 
ATOM     16  C   UNL     1      38.711 -25.401 -14.265  0.00  0.00    +0.214 C 
ATOM     17  C   UNL     1      35.795 -23.670 -13.121  0.00  0.00    +0.064 C 
ATOM     18  C   UNL     1      37.211 -25.605 -12.537  0.00  0.00    +0.339 C 
ENDBRANCH  10  17
ENDBRANCH   5  10
ENDBRANCH   1   4
BRANCH   1  19
ATOM     19  N   UNL     1      33.497 -21.664 -19.744  0.00  0.00    -0.173 NA
ATOM     20  H   UNL     1      33.087 -22.179 -20.524  0.00  0.00    +0.149 HD
BRANCH  19  21
ATOM     21  C   UNL     1      33.059 -20.268 -19.880  0.00  0.00    +0.147 C 
BRANCH  21  25
ATOM     22  N   UNL     1      35.114 -19.204 -20.618  0.00  0.00    -0.335 NA
ATOM     23  N   UNL     1      35.313 -18.179 -22.790  0.00  0.00    -0.337 NA
ATOM     24  N   UNL     1      37.119 -18.187 -21.290  0.00  0.00    -0.283 N 
ATOM     25  C   UNL     1      33.841 -19.526 -20.928  0.00  0.00    +0.124 C 
ATOM     26  C   UNL     1      33.243 -19.213 -22.131  0.00  0.00    +0.112 C 
ATOM     27  C   UNL     1      34.034 -18.533 -23.033  0.00  0.00    +0.107 C 
ATOM     28  C   UNL     1      35.783 -18.540 -21.580  0.00  0.00    +0.195 C 
ATOM     29  C   UNL     1      33.474 -18.150 -24.361  0.00  0.00    +0.063 C 
ATOM     30  H   UNL     1      37.514 -18.426 -20.421  0.00  0.00    +0.156 HD
ATOM     31  H   UNL     1      37.655 -17.701 -21.958  0.00  0.00    +0.156 HD
ENDBRANCH  21  25
ENDBRANCH  19  21
ENDBRANCH   1  19
TORSDOF 6
ENDMDL
MODEL 2
REMARK VINA RESULT:     -11.8      4.059      5.845
REMARK  Name = 17755582
REMARK  6 active torsions:
REMARK  status: ('A' for Active; 'I' for Inactive)
REMARK    1  A    between atoms: S_1  and  C_4
REMARK    2  A    between atoms: S_1  and  N_19
REMARK    3  A    between atoms: C_5  and  N_10
REMARK    4  A    between atoms: N_10  and  C_17
REMARK    5  A    between atoms: N_19  and  C_21
REMARK    6  A    between atoms: C_21  and  C_25
REMARK                            x       y       z     vdW  Elec       q    Type
REMARK                         _______ _______ _______ _____ _____    ______ ____
ROOT
ATOM      1  S   UNL     1      34.204 -19.053 -21.707  0.00  0.00    +0.061 S 
ATOM      2  O   UNL     1      35.314 -19.309 -22.617  0.00  0.00    -0.153 OA
ATOM      3  O   UNL     1      32.838 -19.158 -22.203  0.00  0.00    -0.153 OA
ENDROOT
BRANCH   1   4
ATOM      4  C   UNL     1      34.353 -20.113 -20.328  0.00  0.00    +0.123 C 
ATOM      5  C   UNL     1      33.330 -21.489 -18.625  0.00  0.00    +0.050 C 
ATOM      6  C   UNL     1      33.210 -20.642 -19.727  0.00  0.00    +0.034 C 
ATOM      7  C   UNL     1      35.614 -20.432 -19.826  0.00  0.00    +0.020 C 
ATOM      8  C   UNL     1      34.592 -21.807 -18.124  0.00  0.00    +0.015 C 
ATOM      9  C   UNL     1      35.735 -21.278 -18.724  0.00  0.00    +0.003 C 
BRANCH   5  10
ATOM     10  N   UNL     1      32.180 -22.021 -18.020  0.00  0.00    -0.312 N 
ATOM     11  H   UNL     1      31.353 -21.968 -18.553  0.00  0.00    +0.152 HD
BRANCH  10  17
ATOM     12  O   UNL     1      29.695 -23.237 -14.232  0.00  0.00    -0.445 OA
ATOM     13  O   UNL     1      31.850 -24.046 -14.240  0.00  0.00    -0.245 OA
ATOM     14  C   UNL     1      29.559 -22.383 -16.426  0.00  0.00    +0.082 C 
ATOM     15  C   UNL     1      30.942 -22.788 -16.090  0.00  0.00    +0.072 C 
ATOM     16  C   UNL     1      28.947 -22.322 -15.048  0.00  0.00    +0.214 C 
ATOM     17  C   UNL     1      32.056 -22.601 -16.799  0.00  0.00    +0.064 C 
ATOM     18  C   UNL     1      30.937 -23.434 -14.764  0.00  0.00    +0.339 C 
ENDBRANCH  10  17
ENDBRANCH   5  10
ENDBRANCH   1   4
BRANCH   1  19
ATOM     19  N   UNL     1      34.414 -17.508 -21.009  0.00  0.00    -0.173 NA
ATOM     20  H   UNL     1      34.928 -17.645 -20.138  0.00  0.00    +0.149 HD
BRANCH  19  21
ATOM     21  C   UNL     1      35.120 -16.457 -21.756  0.00  0.00    +0.147 C 
BRANCH  21  25
ATOM     22  N   UNL     1      33.946 -15.191 -23.464  0.00  0.00    -0.335 NA
ATOM     23  N   UNL     1      32.561 -13.294 -22.921  0.00  0.00    -0.337 NA
ATOM     24  N   UNL     1      32.829 -13.995 -25.145  0.00  0.00    -0.283 N 
ATOM     25  C   UNL     1      34.208 -15.327 -22.148  0.00  0.00    +0.124 C 
ATOM     26  C   UNL     1      33.692 -14.499 -21.173  0.00  0.00    +0.112 C 
ATOM     27  C   UNL     1      32.866 -13.490 -21.622  0.00  0.00    +0.107 C 
ATOM     28  C   UNL     1      33.127 -14.168 -23.776  0.00  0.00    +0.195 C 
ATOM     29  C   UNL     1      32.261 -12.543 -20.642  0.00  0.00    +0.063 C 
ATOM     30  H   UNL     1      33.215 -14.605 -25.815  0.00  0.00    +0.156 HD
ATOM     31  H   UNL     1      32.235 -13.264 -25.431  0.00  0.00    +0.156 HD
ENDBRANCH  21  25
ENDBRANCH  19  21
ENDBRANCH   1  19
TORSDOF 6
ENDMDL
MODEL 3
REMARK VINA RESULT:     -11.8      4.090      5.217
REMARK  Name = 17755582
REMARK  6 active torsions:
REMARK  status: ('A' for Active; 'I' for Inactive)
REMARK    1  A    between atoms: S_1  and  C_4
REMARK    2  A    between atoms: S_1  and  N_19
REMARK    3  A    between atoms: C_5  and  N_10
REMARK    4  A    between atoms: N_10  and  C_17
REMARK    5  A    between atoms: N_19  and  C_21
REMARK    6  A    between atoms: C_21  and  C_25
REMARK                            x       y       z     vdW  Elec       q    Type
REMARK                         _______ _______ _______ _____ _____    ______ ____
ROOT
ATOM      1  S   UNL     1      35.308 -18.411 -21.977  0.00  0.00    +0.061 S 
ATOM      2  O   UNL     1      36.569 -17.936 -21.422  0.00  0.00    -0.153 OA
ATOM      3  O   UNL     1      35.304 -19.072 -23.275  0.00  0.00    -0.153 OA
ENDROOT
BRANCH   1   4
ATOM      4  C   UNL     1      34.560 -19.492 -20.827  0.00  0.00    +0.123 C 
ATOM      5  C   UNL     1      34.746 -21.018 -18.964  0.00  0.00    +0.050 C 
ATOM      6  C   UNL     1      35.343 -20.155 -19.882  0.00  0.00    +0.034 C 
ATOM      7  C   UNL     1      33.181 -19.692 -20.854  0.00  0.00    +0.020 C 
ATOM      8  C   UNL     1      33.366 -21.219 -18.991  0.00  0.00    +0.015 C 
ATOM      9  C   UNL     1      32.583 -20.556 -19.936  0.00  0.00    +0.003 C 
BRANCH   5  10
ATOM     10  N   UNL     1      35.533 -21.685 -18.012  0.00  0.00    -0.312 N 
ATOM     11  H   UNL     1      36.467 -21.857 -18.274  0.00  0.00    +0.152 HD
BRANCH  10  17
ATOM     12  O   UNL     1      36.543 -23.418 -13.772  0.00  0.00    -0.445 OA
ATOM     13  O   UNL     1      34.324 -22.878 -14.060  0.00  0.00    -0.245 OA
ATOM     14  C   UNL     1      37.460 -22.490 -15.737  0.00  0.00    +0.082 C 
ATOM     15  C   UNL     1      35.981 -22.464 -15.767  0.00  0.00    +0.072 C 
ATOM     16  C   UNL     1      37.695 -23.486 -14.627  0.00  0.00    +0.214 C 
ATOM     17  C   UNL     1      35.179 -22.124 -16.777  0.00  0.00    +0.064 C 
ATOM     18  C   UNL     1      35.472 -22.930 -14.463  0.00  0.00    +0.339 C 
ENDBRANCH  10  17
ENDBRANCH   5  10
ENDBRANCH   1   4
BRANCH   1  19
ATOM     19  N   UNL     1      34.206 -17.105 -22.026  0.00  0.00    -0.173 NA
ATOM     20  H   UNL     1      33.342 -17.432 -21.592  0.00  0.00    +0.149 HD
BRANCH  19  21
ATOM     21  C   UNL     1      34.551 -15.832 -21.379  0.00  0.00    +0.147 C 
BRANCH  21  25
ATOM     22  N   UNL     1      33.577 -14.590 -23.224  0.00  0.00    -0.335 NA
ATOM     23  N   UNL     1      32.208 -12.638 -22.868  0.00  0.00    -0.337 NA
ATOM     24  N   UNL     1      32.655 -13.419 -25.036  0.00  0.00    -0.283 N 
ATOM     25  C   UNL     1      33.715 -14.690 -21.886  0.00  0.00    +0.124 C 
ATOM     26  C   UNL     1      33.138 -13.816 -20.988  0.00  0.00    +0.112 C 
ATOM     27  C   UNL     1      32.388 -12.800 -21.541  0.00  0.00    +0.107 C 
ATOM     28  C   UNL     1      32.821 -13.555 -23.641  0.00  0.00    +0.195 C 
ATOM     29  C   UNL     1      31.726 -11.804 -20.649  0.00  0.00    +0.063 C 
ATOM     30  H   UNL     1      33.081 -14.061 -25.649  0.00  0.00    +0.156 HD
ATOM     31  H   UNL     1      32.112 -12.681 -25.397  0.00  0.00    +0.156 HD
ENDBRANCH  21  25
ENDBRANCH  19  21
ENDBRANCH   1  19
TORSDOF 6
ENDMDL
MODEL 4
REMARK VINA RESULT:     -11.7      1.272      1.890
REMARK  Name = 17755582
REMARK  6 active torsions:
REMARK  status: ('A' for Active; 'I' for Inactive)
REMARK    1  A    between atoms: S_1  and  C_4
REMARK    2  A    between atoms: S_1  and  N_19
REMARK    3  A    between atoms: C_5  and  N_10
REMARK    4  A    between atoms: N_10  and  C_17
REMARK    5  A    between atoms: N_19  and  C_21
REMARK    6  A    between atoms: C_21  and  C_25
REMARK                            x       y       z     vdW  Elec       q    Type
REMARK                         _______ _______ _______ _____ _____    ______ ____
ROOT
ATOM      1  S   UNL     1      33.691 -22.639 -18.989  0.00  0.00    +0.061 S 
ATOM      2  O   UNL     1      35.031 -22.070 -19.075  0.00  0.00    -0.153 OA
ATOM      3  O   UNL     1      33.446 -23.968 -19.532  0.00  0.00    -0.153 OA
ENDROOT
BRANCH   1   4
ATOM      4  C   UNL     1      33.191 -22.647 -17.316  0.00  0.00    +0.123 C 
ATOM      5  C   UNL     1      33.746 -22.605 -14.965  0.00  0.00    +0.050 C 
ATOM      6  C   UNL     1      34.147 -22.599 -16.302  0.00  0.00    +0.034 C 
ATOM      7  C   UNL     1      31.835 -22.701 -16.994  0.00  0.00    +0.020 C 
ATOM      8  C   UNL     1      32.391 -22.660 -14.644  0.00  0.00    +0.015 C 
ATOM      9  C   UNL     1      31.434 -22.708 -15.658  0.00  0.00    +0.003 C 
BRANCH   5  10
ATOM     10  N   UNL     1      34.709 -22.557 -13.944  0.00  0.00    -0.312 N 
ATOM     11  H   UNL     1      35.080 -21.666 -13.748  0.00  0.00    +0.152 HD
BRANCH  10  17
ATOM     12  O   UNL     1      37.769 -26.010 -13.098  0.00  0.00    -0.445 OA
ATOM     13  O   UNL     1      36.274 -25.641 -11.387  0.00  0.00    -0.245 OA
ATOM     14  C   UNL     1      37.299 -24.152 -14.473  0.00  0.00    +0.082 C 
ATOM     15  C   UNL     1      36.314 -24.274 -13.376  0.00  0.00    +0.072 C 
ATOM     16  C   UNL     1      37.916 -25.529 -14.443  0.00  0.00    +0.214 C 
ATOM     17  C   UNL     1      35.194 -23.575 -13.188  0.00  0.00    +0.064 C 
ATOM     18  C   UNL     1      36.736 -25.367 -12.479  0.00  0.00    +0.339 C 
ENDBRANCH  10  17
ENDBRANCH   5  10
ENDBRANCH   1   4
BRANCH   1  19
ATOM     19  N   UNL     1      32.587 -21.545 -19.699  0.00  0.00    -0.173 NA
ATOM     20  H   UNL     1      31.670 -21.754 -19.304  0.00  0.00    +0.149 HD
BRANCH  19  21
ATOM     21  C   UNL     1      32.793 -20.098 -19.551  0.00  0.00    +0.147 C 
BRANCH  21  25
ATOM     22  N   UNL     1      34.929 -19.239 -20.324  0.00  0.00    -0.335 NA
ATOM     23  N   UNL     1      35.262 -18.497 -22.593  0.00  0.00    -0.337 NA
ATOM     24  N   UNL     1      37.011 -18.417 -21.030  0.00  0.00    -0.283 N 
ATOM     25  C   UNL     1      33.652 -19.530 -20.647  0.00  0.00    +0.124 C 
ATOM     26  C   UNL     1      33.115 -19.335 -21.902  0.00  0.00    +0.112 C 
ATOM     27  C   UNL     1      33.975 -18.811 -22.845  0.00  0.00    +0.107 C 
ATOM     28  C   UNL     1      35.668 -18.733 -21.331  0.00  0.00    +0.195 C 
ATOM     29  C   UNL     1      33.484 -18.563 -24.232  0.00  0.00    +0.063 C 
ATOM     30  H   UNL     1      37.362 -18.569 -20.122  0.00  0.00    +0.156 HD
ATOM     31  H   UNL     1      37.597 -18.045 -21.727  0.00  0.00    +0.156 HD
ENDBRANCH  21  25
ENDBRANCH  19  21
ENDBRANCH   1  19
TORSDOF 6
ENDMDL
MODEL 5
REMARK VINA RESULT:     -11.6      3.139      6.387
REMARK  Name = 17755582
REMARK  6 active torsions:
REMARK  status: ('A' for Active; 'I' for Inactive)
REMARK    1  A    between atoms: S_1  and  C_4
REMARK    2  A    between atoms: S_1  and  N_19
REMARK    3  A    between atoms: C_5  and  N_10
REMARK    4  A    between atoms: N_10  and  C_17
REMARK    5  A    between atoms: N_19  and  C_21
REMARK    6  A    between atoms: C_21  and  C_25
REMARK                            x       y       z     vdW  Elec       q    Type
REMARK                         _______ _______ _______ _____ _____    ______ ____
ROOT
ATOM      1  S   UNL     1      38.188 -24.350 -14.337  0.00  0.00    +0.061 S 
ATOM      2  O   UNL     1      39.500 -24.192 -13.720  0.00  0.00    -0.153 OA
ATOM      3  O   UNL     1      37.840 -25.622 -14.956  0.00  0.00    -0.153 OA
ENDROOT
BRANCH   1   4
ATOM      4  C   UNL     1      36.961 -23.982 -13.151  0.00  0.00    +0.123 C 
ATOM      5  C   UNL     1      34.641 -23.956 -12.478  0.00  0.00    +0.050 C 
ATOM      6  C   UNL     1      35.621 -24.250 -13.427  0.00  0.00    +0.034 C 
ATOM      7  C   UNL     1      37.322 -23.420 -11.927  0.00  0.00    +0.020 C 
ATOM      8  C   UNL     1      35.002 -23.394 -11.254  0.00  0.00    +0.015 C 
ATOM      9  C   UNL     1      36.343 -23.125 -10.978  0.00  0.00    +0.003 C 
BRANCH   5  10
ATOM     10  N   UNL     1      33.291 -24.227 -12.756  0.00  0.00    -0.312 N 
ATOM     11  H   UNL     1      32.863 -24.901 -12.178  0.00  0.00    +0.152 HD
BRANCH  10  17
ATOM     12  O   UNL     1      29.198 -23.791 -15.005  0.00  0.00    -0.445 OA
ATOM     13  O   UNL     1      30.813 -22.305 -15.699  0.00  0.00    -0.245 OA
ATOM     14  C   UNL     1      30.263 -24.715 -13.114  0.00  0.00    +0.082 C 
ATOM     15  C   UNL     1      31.187 -23.856 -13.888  0.00  0.00    +0.072 C 
ATOM     16  C   UNL     1      29.170 -24.932 -14.132  0.00  0.00    +0.214 C 
ATOM     17  C   UNL     1      32.498 -23.682 -13.713  0.00  0.00    +0.064 C 
ATOM     18  C   UNL     1      30.431 -23.206 -14.974  0.00  0.00    +0.339 C 
ENDBRANCH  10  17
ENDBRANCH   5  10
ENDBRANCH   1   4
BRANCH   1  19
ATOM     19  N   UNL     1      37.973 -23.105 -15.488  0.00  0.00    -0.173 NA
ATOM     20  H   UNL     1      37.787 -23.560 -16.383  0.00  0.00    +0.149 HD
BRANCH  19  21
ATOM     21  C   UNL     1      36.916 -22.102 -15.294  0.00  0.00    +0.147 C 
BRANCH  21  25
ATOM     22  N   UNL     1      34.834 -22.659 -16.413  0.00  0.00    -0.335 NA
ATOM     23  N   UNL     1      34.311 -21.838 -18.618  0.00  0.00    -0.337 NA
ATOM     24  N   UNL     1      32.810 -23.220 -17.458  0.00  0.00    -0.283 N 
ATOM     25  C   UNL     1      36.006 -21.995 -16.486  0.00  0.00    +0.124 C 
ATOM     26  C   UNL     1      36.396 -21.244 -17.575  0.00  0.00    +0.112 C 
ATOM     27  C   UNL     1      35.499 -21.200 -18.621  0.00  0.00    +0.107 C 
ATOM     28  C   UNL     1      34.046 -22.539 -17.499  0.00  0.00    +0.195 C 
ATOM     29  C   UNL     1      35.833 -20.414 -19.844  0.00  0.00    +0.063 C 
ATOM     30  H   UNL     1      32.563 -23.748 -16.664  0.00  0.00    +0.156 HD
ATOM     31  H   UNL     1      32.193 -23.167 -18.223  0.00  0.00    +0.156 HD
ENDBRANCH  21  25
ENDBRANCH  19  21
ENDBRANCH   1  19
TORSDOF 6
ENDMDL
MODEL 6
REMARK VINA RESULT:     -11.5      5.532     11.126
REMARK  Name = 17755582
REMARK  6 active torsions:
REMARK  status: ('A' for Active; 'I' for Inactive)
REMARK    1  A    between atoms: S_1  and  C_4
REMARK    2  A    between atoms: S_1  and  N_19
REMARK    3  A    between atoms: C_5  and  N_10
REMARK    4  A    between atoms: N_10  and  C_17
REMARK    5  A    between atoms: N_19  and  C_21
REMARK    6  A    between atoms: C_21  and  C_25
REMARK                            x       y       z     vdW  Elec       q    Type
REMARK                         _______ _______ _______ _____ _____    ______ ____
ROOT
ATOM      1  S   UNL     1      35.298 -18.339 -21.866  0.00  0.00    +0.061 S 
ATOM      2  O   UNL     1      35.307 -19.378 -22.888  0.00  0.00    -0.153 OA
ATOM      3  O   UNL     1      36.546 -17.976 -21.208  0.00  0.00    -0.153 OA
ENDROOT
BRANCH   1   4
ATOM      4  C   UNL     1      34.614 -16.885 -22.550  0.00  0.00    +0.123 C 
ATOM      5  C   UNL     1      33.910 -14.587 -22.304  0.00  0.00    +0.050 C 
ATOM      6  C   UNL     1      34.456 -15.748 -21.758  0.00  0.00    +0.034 C 
ATOM      7  C   UNL     1      34.225 -16.860 -23.889  0.00  0.00    +0.020 C 
ATOM      8  C   UNL     1      33.522 -14.563 -23.644  0.00  0.00    +0.015 C 
ATOM      9  C   UNL     1      33.679 -15.700 -24.436  0.00  0.00    +0.003 C 
BRANCH   5  10
ATOM     10  N   UNL     1      33.752 -13.442 -21.507  0.00  0.00    -0.312 N 
ATOM     11  H   UNL     1      34.522 -13.205 -20.941  0.00  0.00    +0.152 HD
BRANCH  10  17
ATOM     12  O   UNL     1      31.308  -9.645 -22.778  0.00  0.00    -0.445 OA
ATOM     13  O   UNL     1      30.222 -10.997 -21.263  0.00  0.00    -0.245 OA
ATOM     14  C   UNL     1      33.146 -11.019 -23.323  0.00  0.00    +0.082 C 
ATOM     15  C   UNL     1      32.376 -11.574 -22.188  0.00  0.00    +0.072 C 
ATOM     16  C   UNL     1      32.629  -9.601 -23.340  0.00  0.00    +0.214 C 
ATOM     17  C   UNL     1      32.678 -12.617 -21.414  0.00  0.00    +0.064 C 
ATOM     18  C   UNL     1      31.171 -10.747 -21.984  0.00  0.00    +0.339 C 
ENDBRANCH  10  17
ENDBRANCH   5  10
ENDBRANCH   1   4
BRANCH   1  19
ATOM     19  N   UNL     1      34.151 -18.758 -20.670  0.00  0.00    -0.173 NA
ATOM     20  H   UNL     1      33.400 -18.070 -20.727  0.00  0.00    +0.149 HD
BRANCH  19  21
ATOM     21  C   UNL     1      33.515 -20.083 -20.699  0.00  0.00    +0.147 C 
BRANCH  21  25
ATOM     22  N   UNL     1      32.802 -21.595 -18.938  0.00  0.00    -0.335 NA
ATOM     23  N   UNL     1      34.316 -22.373 -17.232  0.00  0.00    -0.337 NA
ATOM     24  N   UNL     1      32.071 -23.057 -17.254  0.00  0.00    -0.283 N 
ATOM     25  C   UNL     1      33.822 -20.889 -19.468  0.00  0.00    +0.124 C 
ATOM     26  C   UNL     1      35.098 -20.874 -18.944  0.00  0.00    +0.112 C 
ATOM     27  C   UNL     1      35.289 -21.643 -17.815  0.00  0.00    +0.107 C 
ATOM     28  C   UNL     1      33.114 -22.305 -17.836  0.00  0.00    +0.195 C 
ATOM     29  C   UNL     1      36.636 -21.689 -17.175  0.00  0.00    +0.063 C 
ATOM     30  H   UNL     1      31.172 -23.045 -17.654  0.00  0.00    +0.156 HD
ATOM     31  H   UNL     1      32.243 -23.595 -16.448  0.00  0.00    +0.156 HD
ENDBRANCH  21  25
ENDBRANCH  19  21
ENDBRANCH   1  19
TORSDOF 6
ENDMDL
MODEL 7
REMARK VINA RESULT:     -11.5      3.342      9.549
REMARK  Name = 17755582
REMARK  6 active torsions:
REMARK  status: ('A' for Active; 'I' for Inactive)
REMARK    1  A    between atoms: S_1  and  C_4
REMARK    2  A    between atoms: S_1  and  N_19
REMARK    3  A    between atoms: C_5  and  N_10
REMARK    4  A    between atoms: N_10  and  C_17
REMARK    5  A    between atoms: N_19  and  C_21
REMARK    6  A    between atoms: C_21  and  C_25
REMARK                            x       y       z     vdW  Elec       q    Type
REMARK                         _______ _______ _______ _____ _____    ______ ____
ROOT
ATOM      1  S   UNL     1      33.425 -22.082 -18.744  0.00  0.00    +0.061 S 
ATOM      2  O   UNL     1      32.124 -21.516 -18.407  0.00  0.00    -0.153 OA
ATOM      3  O   UNL     1      33.487 -23.340 -19.477  0.00  0.00    -0.153 OA
ENDROOT
BRANCH   1   4
ATOM      4  C   UNL     1      34.337 -20.896 -19.645  0.00  0.00    +0.123 C 
ATOM      5  C   UNL     1      34.490 -19.315 -21.465  0.00  0.00    +0.050 C 
ATOM      6  C   UNL     1      33.761 -20.262 -20.746  0.00  0.00    +0.034 C 
ATOM      7  C   UNL     1      35.641 -20.583 -19.264  0.00  0.00    +0.020 C 
ATOM      8  C   UNL     1      35.794 -19.002 -21.083  0.00  0.00    +0.015 C 
ATOM      9  C   UNL     1      36.371 -19.636 -19.983  0.00  0.00    +0.003 C 
BRANCH   5  10
ATOM     10  N   UNL     1      33.911 -18.676 -22.573  0.00  0.00    -0.312 N 
ATOM     11  H   UNL     1      33.254 -19.209 -23.078  0.00  0.00    +0.152 HD
BRANCH  10  17
ATOM     12  O   UNL     1      34.329 -14.041 -21.990  0.00  0.00    -0.445 OA
ATOM     13  O   UNL     1      34.816 -14.766 -24.120  0.00  0.00    -0.245 OA
ATOM     14  C   UNL     1      34.152 -16.110 -20.872  0.00  0.00    +0.082 C 
ATOM     15  C   UNL     1      34.260 -16.295 -22.336  0.00  0.00    +0.072 C 
ATOM     16  C   UNL     1      33.788 -14.647 -20.806  0.00  0.00    +0.214 C 
ATOM     17  C   UNL     1      34.134 -17.421 -23.040  0.00  0.00    +0.064 C 
ATOM     18  C   UNL     1      34.502 -14.982 -22.963  0.00  0.00    +0.339 C 
ENDBRANCH  10  17
ENDBRANCH   5  10
ENDBRANCH   1   4
BRANCH   1  19
ATOM     19  N   UNL     1      34.340 -22.239 -17.310  0.00  0.00    -0.173 NA
ATOM     20  H   UNL     1      34.711 -21.313 -17.093  0.00  0.00    +0.149 HD
BRANCH  19  21
ATOM     21  C   UNL     1      33.701 -22.738 -16.085  0.00  0.00    +0.147 C 
BRANCH  21  25
ATOM     22  N   UNL     1      34.924 -24.718 -15.390  0.00  0.00    -0.335 NA
ATOM     23  N   UNL     1      36.450 -24.688 -13.526  0.00  0.00    -0.337 NA
ATOM     24  N   UNL     1      36.086 -26.654 -14.754  0.00  0.00    -0.283 N 
ATOM     25  C   UNL     1      34.681 -23.411 -15.163  0.00  0.00    +0.124 C 
ATOM     26  C   UNL     1      35.274 -22.684 -14.152  0.00  0.00    +0.112 C 
ATOM     27  C   UNL     1      36.159 -23.381 -13.357  0.00  0.00    +0.107 C 
ATOM     28  C   UNL     1      35.806 -25.286 -14.546  0.00  0.00    +0.195 C 
ATOM     29  C   UNL     1      36.851 -22.681 -12.236  0.00  0.00    +0.063 C 
ATOM     30  H   UNL     1      35.644 -27.142 -15.486  0.00  0.00    +0.156 HD
ATOM     31  H   UNL     1      36.724 -27.120 -14.167  0.00  0.00    +0.156 HD
ENDBRANCH  21  25
ENDBRANCH  19  21
ENDBRANCH   1  19
TORSDOF 6
ENDMDL
MODEL 8
REMARK VINA RESULT:     -11.3      3.379      7.835
REMARK  Name = 17755582
REMARK  6 active torsions:
REMARK  status: ('A' for Active; 'I' for Inactive)
REMARK    1  A    between atoms: S_1  and  C_4
REMARK    2  A    between atoms: S_1  and  N_19
REMARK    3  A    between atoms: C_5  and  N_10
REMARK    4  A    between atoms: N_10  and  C_17
REMARK    5  A    between atoms: N_19  and  C_21
REMARK    6  A    between atoms: C_21  and  C_25
REMARK                            x       y       z     vdW  Elec       q    Type
REMARK                         _______ _______ _______ _____ _____    ______ ____
ROOT
ATOM      1  S   UNL     1      32.297 -23.773 -13.162  0.00  0.00    +0.061 S 
ATOM      2  O   UNL     1      32.566 -22.683 -12.231  0.00  0.00    -0.153 OA
ATOM      3  O   UNL     1      31.596 -24.959 -12.686  0.00  0.00    -0.153 OA
ENDROOT
BRANCH   1   4
ATOM      4  C   UNL     1      31.409 -23.141 -14.525  0.00  0.00    +0.123 C 
ATOM      5  C   UNL     1      31.322 -22.514 -16.857  0.00  0.00    +0.050 C 
ATOM      6  C   UNL     1      32.031 -23.019 -15.767  0.00  0.00    +0.034 C 
ATOM      7  C   UNL     1      30.076 -22.759 -14.373  0.00  0.00    +0.020 C 
ATOM      8  C   UNL     1      29.989 -22.132 -16.704  0.00  0.00    +0.015 C 
ATOM      9  C   UNL     1      29.366 -22.254 -15.462  0.00  0.00    +0.003 C 
BRANCH   5  10
ATOM     10  N   UNL     1      31.948 -22.390 -18.107  0.00  0.00    -0.312 N 
ATOM     11  H   UNL     1      31.382 -22.583 -18.890  0.00  0.00    +0.152 HD
BRANCH  10  17
ATOM     12  O   UNL     1      35.164 -19.885 -20.427  0.00  0.00    -0.445 OA
ATOM     13  O   UNL     1      36.034 -21.219 -18.766  0.00  0.00    -0.245 OA
ATOM     14  C   UNL     1      32.858 -20.115 -19.987  0.00  0.00    +0.082 C 
ATOM     15  C   UNL     1      33.660 -21.055 -19.172  0.00  0.00    +0.072 C 
ATOM     16  C   UNL     1      33.872 -19.725 -21.035  0.00  0.00    +0.214 C 
ATOM     17  C   UNL     1      33.231 -22.039 -18.381  0.00  0.00    +0.064 C 
ATOM     18  C   UNL     1      35.091 -20.771 -19.392  0.00  0.00    +0.339 C 
ENDBRANCH  10  17
ENDBRANCH   5  10
ENDBRANCH   1   4
BRANCH   1  19
ATOM     19  N   UNL     1      33.772 -24.259 -13.875  0.00  0.00    -0.173 NA
ATOM     20  H   UNL     1      33.906 -23.676 -14.701  0.00  0.00    +0.149 HD
BRANCH  19  21
ATOM     21  C   UNL     1      35.018 -24.190 -13.099  0.00  0.00    +0.147 C 
BRANCH  21  25
ATOM     22  N   UNL     1      36.048 -22.625 -14.643  0.00  0.00    -0.335 NA
ATOM     23  N   UNL     1      38.283 -22.946 -15.486  0.00  0.00    -0.337 NA
ATOM     24  N   UNL     1      37.006 -21.086 -16.133  0.00  0.00    -0.283 N 
ATOM     25  C   UNL     1      36.190 -23.767 -13.940  0.00  0.00    +0.124 C 
ATOM     26  C   UNL     1      37.330 -24.542 -13.958  0.00  0.00    +0.112 C 
ATOM     27  C   UNL     1      38.355 -24.079 -14.756  0.00  0.00    +0.107 C 
ATOM     28  C   UNL     1      37.118 -22.278 -15.384  0.00  0.00    +0.195 C 
ATOM     29  C   UNL     1      39.629 -24.850 -14.842  0.00  0.00    +0.063 C 
ATOM     30  H   UNL     1      36.177 -20.557 -16.097  0.00  0.00    +0.156 HD
ATOM     31  H   UNL     1      37.758 -20.785 -16.693  0.00  0.00    +0.156 HD
ENDBRANCH  21  25
ENDBRANCH  19  21
ENDBRANCH   1  19
TORSDOF 6
ENDMDL
MODEL 9
REMARK VINA RESULT:     -11.3      3.599      5.941
REMARK  Name = 17755582
REMARK  6 active torsions:
REMARK  status: ('A' for Active; 'I' for Inactive)
REMARK    1  A    between atoms: S_1  and  C_4
REMARK    2  A    between atoms: S_1  and  N_19
REMARK    3  A    between atoms: C_5  and  N_10
REMARK    4  A    between atoms: N_10  and  C_17
REMARK    5  A    between atoms: N_19  and  C_21
REMARK    6  A    between atoms: C_21  and  C_25
REMARK                            x       y       z     vdW  Elec       q    Type
REMARK                         _______ _______ _______ _____ _____    ______ ____
ROOT
ATOM      1  S   UNL     1      33.098 -22.417 -18.544  0.00  0.00    +0.061 S 
ATOM      2  O   UNL     1      32.435 -21.207 -19.017  0.00  0.00    -0.153 OA
ATOM      3  O   UNL     1      33.427 -23.467 -19.499  0.00  0.00    -0.153 OA
ENDROOT
BRANCH   1   4
ATOM      4  C   UNL     1      34.569 -21.965 -17.720  0.00  0.00    +0.123 C 
ATOM      5  C   UNL     1      36.019 -22.117 -15.794  0.00  0.00    +0.050 C 
ATOM      6  C   UNL     1      34.843 -22.478 -16.452  0.00  0.00    +0.034 C 
ATOM      7  C   UNL     1      35.469 -21.092 -18.329  0.00  0.00    +0.020 C 
ATOM      8  C   UNL     1      36.920 -21.243 -16.403  0.00  0.00    +0.015 C 
ATOM      9  C   UNL     1      36.645 -20.730 -17.671  0.00  0.00    +0.003 C 
BRANCH   5  10
ATOM     10  N   UNL     1      36.296 -22.633 -14.517  0.00  0.00    -0.312 N 
ATOM     11  H   UNL     1      36.293 -21.978 -13.782  0.00  0.00    +0.152 HD
BRANCH  10  17
ATOM     12  O   UNL     1      39.157 -26.335 -14.183  0.00  0.00    -0.445 OA
ATOM     13  O   UNL     1      37.104 -26.643 -13.187  0.00  0.00    -0.245 OA
ATOM     14  C   UNL     1      39.046 -24.030 -14.670  0.00  0.00    +0.082 C 
ATOM     15  C   UNL     1      37.741 -24.546 -14.199  0.00  0.00    +0.072 C 
ATOM     16  C   UNL     1      39.744 -25.323 -15.015  0.00  0.00    +0.214 C 
ATOM     17  C   UNL     1      36.566 -23.915 -14.163  0.00  0.00    +0.064 C 
ATOM     18  C   UNL     1      37.909 -25.951 -13.786  0.00  0.00    +0.339 C 
ENDBRANCH  10  17
ENDBRANCH   5  10
ENDBRANCH   1   4
BRANCH   1  19
ATOM     19  N   UNL     1      32.162 -23.096 -17.286  0.00  0.00    -0.173 NA
ATOM     20  H   UNL     1      32.799 -23.647 -16.709  0.00  0.00    +0.149 HD
BRANCH  19  21
ATOM     21  C   UNL     1      31.415 -22.219 -16.374  0.00  0.00    +0.147 C 
BRANCH  21  25
ATOM     22  N   UNL     1      29.012 -22.114 -16.706  0.00  0.00    -0.335 NA
ATOM     23  N   UNL     1      27.503 -23.638 -15.607  0.00  0.00    -0.337 NA
ATOM     24  N   UNL     1      26.696 -21.978 -17.057  0.00  0.00    -0.283 N 
ATOM     25  C   UNL     1      30.034 -22.739 -16.087  0.00  0.00    +0.124 C 
ATOM     26  C   UNL     1      29.872 -23.805 -15.226  0.00  0.00    +0.112 C 
ATOM     27  C   UNL     1      28.572 -24.216 -15.022  0.00  0.00    +0.107 C 
ATOM     28  C   UNL     1      27.790 -22.608 -16.425  0.00  0.00    +0.195 C 
ATOM     29  C   UNL     1      28.297 -25.360 -14.106  0.00  0.00    +0.063 C 
ATOM     30  H   UNL     1      26.847 -21.220 -17.666  0.00  0.00    +0.156 HD
ATOM     31  H   UNL     1      25.780 -22.298 -16.888  0.00  0.00    +0.156 HD
ENDBRANCH  21  25
ENDBRANCH  19  21
ENDBRANCH   1  19
TORSDOF 6
ENDMDL
