MODEL 1
REMARK VINA RESULT:     -11.3      0.000      0.000
REMARK  Name = 465951
REMARK  4 active torsions:
REMARK  status: ('A' for Active; 'I' for Inactive)
REMARK    1  A    between atoms: C_2  and  N_16
REMARK    2  A    between atoms: C_3  and  N_9
REMARK    3  A    between atoms: C_17  and  C_20
REMARK    4  A    between atoms: C_20  and  N_22
REMARK                            x       y       z     vdW  Elec       q    Type
REMARK                         _______ _______ _______ _____ _____    ______ ____
ROOT
ATOM      1  F   UNL     1      37.691 -21.892 -16.238  0.00  0.00    -0.203 F 
ATOM      2  C   UNL     1      34.778 -21.318 -18.336  0.00  0.00    +0.059 C 
ATOM      3  C   UNL     1      35.482 -22.733 -15.993  0.00  0.00    +0.076 C 
ATOM      4  C   UNL     1      36.084 -21.258 -17.851  0.00  0.00    +0.046 C 
ATOM      5  C   UNL     1      33.819 -22.076 -17.664  0.00  0.00    +0.016 C 
ATOM      6  C   UNL     1      36.432 -21.956 -16.695  0.00  0.00    +0.155 C 
ATOM      7  C   UNL     1      34.167 -22.775 -16.508  0.00  0.00    +0.018 C 
ENDROOT
BRANCH   3   9
ATOM      8  S   UNL     1      36.542 -25.089 -12.260  0.00  0.00    -0.137 S 
ATOM      9  N   UNL     1      35.829 -23.436 -14.833  0.00  0.00    -0.304 N 
ATOM     10  C   UNL     1      35.626 -24.892 -14.856  0.00  0.00    +0.102 C 
ATOM     11  C   UNL     1      35.721 -22.768 -13.530  0.00  0.00    +0.102 C 
ATOM     12  C   UNL     1      36.654 -25.613 -13.993  0.00  0.00    +0.079 C 
ATOM     13  C   UNL     1      36.745 -23.308 -12.537  0.00  0.00    +0.079 C 
ENDBRANCH   3   9
BRANCH   2  16
ATOM     14  O   UNL     1      33.232 -19.587 -21.141  0.00  0.00    -0.434 OA
ATOM     15  O   UNL     1      32.058 -20.526 -19.443  0.00  0.00    -0.226 OA
ATOM     16  N   UNL     1      34.422 -20.605 -19.516  0.00  0.00    -0.221 N 
ATOM     17  C   UNL     1      34.606 -19.257 -21.389  0.00  0.00    +0.210 C 
ATOM     18  C   UNL     1      35.385 -20.214 -20.510  0.00  0.00    +0.147 C 
ATOM     19  C   UNL     1      33.142 -20.271 -19.951  0.00  0.00    +0.409 C 
BRANCH  17  20
ATOM     20  C   UNL     1      34.833 -17.795 -21.032  0.00  0.00    +0.135 C 
BRANCH  20  22
ATOM     21  O   UNL     1      34.253 -14.951 -21.039  0.00  0.00    -0.275 OA
ATOM     22  N   UNL     1      34.645 -16.948 -22.172  0.00  0.00    -0.301 N 
ATOM     23  C   UNL     1      34.369 -15.588 -22.084  0.00  0.00    +0.223 C 
ATOM     24  C   UNL     1      34.243 -14.933 -23.432  0.00  0.00    +0.095 C 
ATOM     25  H   UNL     1      34.714 -17.351 -23.068  0.00  0.00    +0.150 HD
ENDBRANCH  20  22
ENDBRANCH  17  20
ENDBRANCH   2  16
TORSDOF 4
ENDMDL
MODEL 2
REMARK VINA RESULT:     -11.0      1.105      1.722
REMARK  Name = 465951
REMARK  4 active torsions:
REMARK  status: ('A' for Active; 'I' for Inactive)
REMARK    1  A    between atoms: C_2  and  N_16
REMARK    2  A    between atoms: C_3  and  N_9
REMARK    3  A    between atoms: C_17  and  C_20
REMARK    4  A    between atoms: C_20  and  N_22
REMARK                            x       y       z     vdW  Elec       q    Type
REMARK                         _______ _______ _______ _____ _____    ______ ____
ROOT
ATOM      1  F   UNL     1      33.239 -23.540 -15.920  0.00  0.00    -0.203 F 
ATOM      2  C   UNL     1      34.851 -21.304 -18.291  0.00  0.00    +0.059 C 
ATOM      3  C   UNL     1      35.468 -22.719 -15.924  0.00  0.00    +0.076 C 
ATOM      4  C   UNL     1      33.877 -22.089 -17.673  0.00  0.00    +0.046 C 
ATOM      5  C   UNL     1      36.129 -21.218 -17.740  0.00  0.00    +0.016 C 
ATOM      6  C   UNL     1      34.182 -22.788 -16.505  0.00  0.00    +0.155 C 
ATOM      7  C   UNL     1      36.434 -21.915 -16.571  0.00  0.00    +0.018 C 
ENDROOT
BRANCH   3   9
ATOM      8  S   UNL     1      36.451 -24.898 -12.065  0.00  0.00    -0.137 S 
ATOM      9  N   UNL     1      35.776 -23.418 -14.750  0.00  0.00    -0.304 N 
ATOM     10  C   UNL     1      35.255 -22.862 -13.493  0.00  0.00    +0.102 C 
ATOM     11  C   UNL     1      37.032 -24.175 -14.674  0.00  0.00    +0.102 C 
ATOM     12  C   UNL     1      34.955 -23.959 -12.479  0.00  0.00    +0.079 C 
ATOM     13  C   UNL     1      36.903 -25.383 -13.752  0.00  0.00    +0.079 C 
ENDBRANCH   3   9
BRANCH   2  16
ATOM     14  O   UNL     1      33.413 -19.576 -21.154  0.00  0.00    -0.434 OA
ATOM     15  O   UNL     1      32.175 -20.520 -19.506  0.00  0.00    -0.226 OA
ATOM     16  N   UNL     1      34.540 -20.591 -19.484  0.00  0.00    -0.221 N 
ATOM     17  C   UNL     1      34.794 -19.241 -21.347  0.00  0.00    +0.210 C 
ATOM     18  C   UNL     1      35.541 -20.196 -20.438  0.00  0.00    +0.147 C 
ATOM     19  C   UNL     1      33.278 -20.262 -19.969  0.00  0.00    +0.409 C 
BRANCH  17  20
ATOM     20  C   UNL     1      35.002 -17.779 -20.980  0.00  0.00    +0.135 C 
BRANCH  20  22
ATOM     21  O   UNL     1      34.252 -14.976 -20.921  0.00  0.00    -0.275 OA
ATOM     22  N   UNL     1      34.748 -16.922 -22.100  0.00  0.00    -0.301 N 
ATOM     23  C   UNL     1      34.392 -15.584 -21.979  0.00  0.00    +0.223 C 
ATOM     24  C   UNL     1      34.208 -14.910 -23.313  0.00  0.00    +0.095 C 
ATOM     25  H   UNL     1      34.830 -17.302 -23.004  0.00  0.00    +0.150 HD
ENDBRANCH  20  22
ENDBRANCH  17  20
ENDBRANCH   2  16
TORSDOF 4
ENDMDL
MODEL 3
REMARK VINA RESULT:     -10.7      4.487      8.786
REMARK  Name = 465951
REMARK  4 active torsions:
REMARK  status: ('A' for Active; 'I' for Inactive)
REMARK    1  A    between atoms: C_2  and  N_16
REMARK    2  A    between atoms: C_3  and  N_9
REMARK    3  A    between atoms: C_17  and  C_20
REMARK    4  A    between atoms: C_20  and  N_22
REMARK                            x       y       z     vdW  Elec       q    Type
REMARK                         _______ _______ _______ _____ _____    ______ ____
ROOT
ATOM      1  F   UNL     1      36.588 -19.144 -20.817  0.00  0.00    -0.203 F 
ATOM      2  C   UNL     1      34.238 -21.092 -18.842  0.00  0.00    +0.059 C 
ATOM      3  C   UNL     1      34.219 -19.238 -20.975  0.00  0.00    +0.076 C 
ATOM      4  C   UNL     1      35.438 -20.561 -19.316  0.00  0.00    +0.046 C 
ATOM      5  C   UNL     1      33.029 -20.707 -19.421  0.00  0.00    +0.016 C 
ATOM      6  C   UNL     1      35.429 -19.647 -20.369  0.00  0.00    +0.155 C 
ATOM      7  C   UNL     1      33.019 -19.791 -20.474  0.00  0.00    +0.018 C 
ENDROOT
BRANCH   3   9
ATOM      8  S   UNL     1      34.213 -16.335 -24.465  0.00  0.00    -0.137 S 
ATOM      9  N   UNL     1      34.207 -18.319 -22.032  0.00  0.00    -0.304 N 
ATOM     10  C   UNL     1      34.100 -18.874 -23.390  0.00  0.00    +0.102 C 
ATOM     11  C   UNL     1      34.927 -17.049 -21.886  0.00  0.00    +0.102 C 
ATOM     12  C   UNL     1      33.355 -17.927 -24.322  0.00  0.00    +0.079 C 
ATOM     13  C   UNL     1      34.270 -15.936 -22.697  0.00  0.00    +0.079 C 
ENDBRANCH   3   9
BRANCH   2  16
ATOM     14  O   UNL     1      34.878 -23.232 -15.967  0.00  0.00    -0.434 OA
ATOM     15  O   UNL     1      36.356 -21.698 -16.745  0.00  0.00    -0.226 OA
ATOM     16  N   UNL     1      34.247 -22.026 -17.767  0.00  0.00    -0.221 N 
ATOM     17  C   UNL     1      33.492 -23.531 -16.180  0.00  0.00    +0.210 C 
ATOM     18  C   UNL     1      33.199 -22.989 -17.564  0.00  0.00    +0.147 C 
ATOM     19  C   UNL     1      35.261 -22.237 -16.837  0.00  0.00    +0.409 C 
BRANCH  17  20
ATOM     20  C   UNL     1      32.671 -22.860 -15.087  0.00  0.00    +0.135 C 
BRANCH  20  22
ATOM     21  O   UNL     1      31.841 -24.554 -12.881  0.00  0.00    -0.275 OA
ATOM     22  N   UNL     1      31.405 -23.511 -14.917  0.00  0.00    -0.301 N 
ATOM     23  C   UNL     1      31.091 -24.308 -13.822  0.00  0.00    +0.223 C 
ATOM     24  C   UNL     1      29.687 -24.847 -13.881  0.00  0.00    +0.095 C 
ATOM     25  H   UNL     1      30.720 -23.385 -15.613  0.00  0.00    +0.150 HD
ENDBRANCH  20  22
ENDBRANCH  17  20
ENDBRANCH   2  16
TORSDOF 4
ENDMDL
MODEL 4
REMARK VINA RESULT:     -10.0      4.454      8.891
REMARK  Name = 465951
REMARK  4 active torsions:
REMARK  status: ('A' for Active; 'I' for Inactive)
REMARK    1  A    between atoms: C_2  and  N_16
REMARK    2  A    between atoms: C_3  and  N_9
REMARK    3  A    between atoms: C_17  and  C_20
REMARK    4  A    between atoms: C_20  and  N_22
REMARK                            x       y       z     vdW  Elec       q    Type
REMARK                         _______ _______ _______ _____ _____    ______ ____
ROOT
ATOM      1  F   UNL     1      32.040 -19.735 -20.919  0.00  0.00    -0.203 F 
ATOM      2  C   UNL     1      34.570 -21.134 -18.713  0.00  0.00    +0.059 C 
ATOM      3  C   UNL     1      34.383 -19.342 -20.891  0.00  0.00    +0.076 C 
ATOM      4  C   UNL     1      33.330 -20.868 -19.294  0.00  0.00    +0.046 C 
ATOM      5  C   UNL     1      35.718 -20.515 -19.208  0.00  0.00    +0.016 C 
ATOM      6  C   UNL     1      33.237 -19.984 -20.369  0.00  0.00    +0.155 C 
ATOM      7  C   UNL     1      35.626 -19.631 -20.284  0.00  0.00    +0.018 C 
ENDROOT
BRANCH   3   9
ATOM      8  S   UNL     1      34.122 -16.542 -24.455  0.00  0.00    -0.137 S 
ATOM      9  N   UNL     1      34.293 -18.455 -21.970  0.00  0.00    -0.304 N 
ATOM     10  C   UNL     1      34.119 -19.050 -23.304  0.00  0.00    +0.102 C 
ATOM     11  C   UNL     1      34.996 -17.168 -21.902  0.00  0.00    +0.102 C 
ATOM     12  C   UNL     1      33.304 -18.144 -24.218  0.00  0.00    +0.079 C 
ATOM     13  C   UNL     1      34.273 -16.091 -22.705  0.00  0.00    +0.079 C 
ENDBRANCH   3   9
BRANCH   2  16
ATOM     14  O   UNL     1      35.450 -23.220 -15.863  0.00  0.00    -0.434 OA
ATOM     15  O   UNL     1      36.892 -21.779 -16.858  0.00  0.00    -0.226 OA
ATOM     16  N   UNL     1      34.665 -22.036 -17.616  0.00  0.00    -0.221 N 
ATOM     17  C   UNL     1      34.037 -23.459 -15.903  0.00  0.00    +0.210 C 
ATOM     18  C   UNL     1      33.607 -22.944 -17.261  0.00  0.00    +0.147 C 
ATOM     19  C   UNL     1      35.771 -22.268 -16.804  0.00  0.00    +0.409 C 
BRANCH  17  20
ATOM     20  C   UNL     1      33.380 -22.721 -14.745  0.00  0.00    +0.135 C 
BRANCH  20  22
ATOM     21  O   UNL     1      33.153 -24.342 -12.349  0.00  0.00    -0.275 OA
ATOM     22  N   UNL     1      34.233 -22.697 -13.594  0.00  0.00    -0.301 N 
ATOM     23  C   UNL     1      34.050 -23.514 -12.484  0.00  0.00    +0.223 C 
ATOM     24  C   UNL     1      35.102 -23.303 -11.429  0.00  0.00    +0.095 C 
ATOM     25  H   UNL     1      34.990 -22.068 -13.590  0.00  0.00    +0.150 HD
ENDBRANCH  20  22
ENDBRANCH  17  20
ENDBRANCH   2  16
TORSDOF 4
ENDMDL
MODEL 5
REMARK VINA RESULT:      -9.8      7.837     13.081
REMARK  Name = 465951
REMARK  4 active torsions:
REMARK  status: ('A' for Active; 'I' for Inactive)
REMARK    1  A    between atoms: C_2  and  N_16
REMARK    2  A    between atoms: C_3  and  N_9
REMARK    3  A    between atoms: C_17  and  C_20
REMARK    4  A    between atoms: C_20  and  N_22
REMARK                            x       y       z     vdW  Elec       q    Type
REMARK                         _______ _______ _______ _____ _____    ______ ____
ROOT
ATOM      1  F   UNL     1      30.287  -9.921 -20.813  0.00  0.00    -0.203 F 
ATOM      2  C   UNL     1      32.477 -11.753 -23.063  0.00  0.00    +0.059 C 
ATOM      3  C   UNL     1      31.952  -9.086 -22.287  0.00  0.00    +0.076 C 
ATOM      4  C   UNL     1      31.493 -11.483 -22.112  0.00  0.00    +0.046 C 
ATOM      5  C   UNL     1      33.201 -10.705 -23.632  0.00  0.00    +0.016 C 
ATOM      6  C   UNL     1      31.234 -10.168 -21.728  0.00  0.00    +0.155 C 
ATOM      7  C   UNL     1      32.942  -9.389 -23.250  0.00  0.00    +0.018 C 
ENDROOT
BRANCH   3   9
ATOM      8  S   UNL     1      31.135  -4.769 -21.147  0.00  0.00    -0.137 S 
ATOM      9  N   UNL     1      31.693  -7.764 -21.905  0.00  0.00    -0.304 N 
ATOM     10  C   UNL     1      31.339  -6.823 -22.979  0.00  0.00    +0.102 C 
ATOM     11  C   UNL     1      32.377  -7.210 -20.731  0.00  0.00    +0.102 C 
ATOM     12  C   UNL     1      30.387  -5.743 -22.482  0.00  0.00    +0.079 C 
ATOM     13  C   UNL     1      31.527  -6.149 -20.038  0.00  0.00    +0.079 C 
ENDBRANCH   3   9
BRANCH   2  16
ATOM     14  O   UNL     1      33.084 -14.950 -24.694  0.00  0.00    -0.434 OA
ATOM     15  O   UNL     1      32.648 -13.030 -25.818  0.00  0.00    -0.226 OA
ATOM     16  N   UNL     1      32.742 -13.096 -23.455  0.00  0.00    -0.221 N 
ATOM     17  C   UNL     1      33.427 -15.304 -23.347  0.00  0.00    +0.210 C 
ATOM     18  C   UNL     1      32.869 -14.172 -22.509  0.00  0.00    +0.147 C 
ATOM     19  C   UNL     1      32.813 -13.602 -24.750  0.00  0.00    +0.409 C 
BRANCH  17  20
ATOM     20  C   UNL     1      34.940 -15.438 -23.243  0.00  0.00    +0.135 C 
BRANCH  20  22
ATOM     21  O   UNL     1      34.665 -16.437 -20.532  0.00  0.00    -0.275 OA
ATOM     22  N   UNL     1      35.313 -16.731 -22.750  0.00  0.00    -0.301 N 
ATOM     23  C   UNL     1      35.144 -17.128 -21.429  0.00  0.00    +0.223 C 
ATOM     24  C   UNL     1      35.596 -18.543 -21.186  0.00  0.00    +0.095 C 
ATOM     25  H   UNL     1      35.709 -17.373 -23.382  0.00  0.00    +0.150 HD
ENDBRANCH  20  22
ENDBRANCH  17  20
ENDBRANCH   2  16
TORSDOF 4
ENDMDL
MODEL 6
REMARK VINA RESULT:      -9.7      2.900      4.562
REMARK  Name = 465951
REMARK  4 active torsions:
REMARK  status: ('A' for Active; 'I' for Inactive)
REMARK    1  A    between atoms: C_2  and  N_16
REMARK    2  A    between atoms: C_3  and  N_9
REMARK    3  A    between atoms: C_17  and  C_20
REMARK    4  A    between atoms: C_20  and  N_22
REMARK                            x       y       z     vdW  Elec       q    Type
REMARK                         _______ _______ _______ _____ _____    ______ ____
ROOT
ATOM      1  F   UNL     1      31.996 -20.584 -19.444  0.00  0.00    -0.203 F 
ATOM      2  C   UNL     1      34.332 -18.787 -21.573  0.00  0.00    +0.059 C 
ATOM      3  C   UNL     1      34.372 -20.587 -19.394  0.00  0.00    +0.076 C 
ATOM      4  C   UNL     1      33.135 -19.254 -21.031  0.00  0.00    +0.046 C 
ATOM      5  C   UNL     1      35.550 -19.209 -21.038  0.00  0.00    +0.016 C 
ATOM      6  C   UNL     1      33.153 -20.142 -19.956  0.00  0.00    +0.155 C 
ATOM      7  C   UNL     1      35.569 -20.097 -19.962  0.00  0.00    +0.018 C 
ENDROOT
BRANCH   3   9
ATOM      8  S   UNL     1      34.547 -23.488 -15.907  0.00  0.00    -0.137 S 
ATOM      9  N   UNL     1      34.394 -21.478 -18.314  0.00  0.00    -0.304 N 
ATOM     10  C   UNL     1      35.692 -21.683 -17.652  0.00  0.00    +0.102 C 
ATOM     11  C   UNL     1      33.448 -22.600 -18.289  0.00  0.00    +0.102 C 
ATOM     12  C   UNL     1      35.521 -21.980 -16.168  0.00  0.00    +0.079 C 
ATOM     13  C   UNL     1      33.086 -22.996 -16.861  0.00  0.00    +0.079 C 
ENDBRANCH   3   9
BRANCH   2  16
ATOM     14  O   UNL     1      34.014 -16.988 -24.721  0.00  0.00    -0.434 OA
ATOM     15  O   UNL     1      33.386 -19.149 -24.440  0.00  0.00    -0.226 OA
ATOM     16  N   UNL     1      34.313 -17.880 -22.671  0.00  0.00    -0.221 N 
ATOM     17  C   UNL     1      34.380 -15.898 -23.863  0.00  0.00    +0.210 C 
ATOM     18  C   UNL     1      34.898 -16.568 -22.607  0.00  0.00    +0.147 C 
ATOM     19  C   UNL     1      33.850 -18.123 -23.961  0.00  0.00    +0.409 C 
BRANCH  17  20
ATOM     20  C   UNL     1      33.153 -15.031 -23.618  0.00  0.00    +0.135 C 
BRANCH  20  22
ATOM     21  O   UNL     1      31.838 -12.769 -22.363  0.00  0.00    -0.275 OA
ATOM     22  N   UNL     1      33.458 -13.642 -23.791  0.00  0.00    -0.301 N 
ATOM     23  C   UNL     1      32.773 -12.618 -23.146  0.00  0.00    +0.223 C 
ATOM     24  C   UNL     1      33.313 -11.255 -23.486  0.00  0.00    +0.095 C 
ATOM     25  H   UNL     1      34.193 -13.399 -24.399  0.00  0.00    +0.150 HD
ENDBRANCH  20  22
ENDBRANCH  17  20
ENDBRANCH   2  16
TORSDOF 4
ENDMDL
MODEL 7
REMARK VINA RESULT:      -9.7      5.113     10.081
REMARK  Name = 465951
REMARK  4 active torsions:
REMARK  status: ('A' for Active; 'I' for Inactive)
REMARK    1  A    between atoms: C_2  and  N_16
REMARK    2  A    between atoms: C_3  and  N_9
REMARK    3  A    between atoms: C_17  and  C_20
REMARK    4  A    between atoms: C_20  and  N_22
REMARK                            x       y       z     vdW  Elec       q    Type
REMARK                         _______ _______ _______ _____ _____    ______ ____
ROOT
ATOM      1  F   UNL     1      33.556 -13.777 -19.926  0.00  0.00    -0.203 F 
ATOM      2  C   UNL     1      34.476 -16.797 -21.728  0.00  0.00    +0.059 C 
ATOM      3  C   UNL     1      33.581 -14.171 -22.268  0.00  0.00    +0.076 C 
ATOM      4  C   UNL     1      34.230 -15.913 -20.677  0.00  0.00    +0.046 C 
ATOM      5  C   UNL     1      34.280 -16.384 -23.046  0.00  0.00    +0.016 C 
ATOM      6  C   UNL     1      33.789 -14.617 -20.943  0.00  0.00    +0.155 C 
ATOM      7  C   UNL     1      33.837 -15.088 -23.313  0.00  0.00    +0.018 C 
ENDROOT
BRANCH   3   9
ATOM      8  S   UNL     1      32.041  -9.988 -23.127  0.00  0.00    -0.137 S 
ATOM      9  N   UNL     1      33.136 -12.871 -22.539  0.00  0.00    -0.304 N 
ATOM     10  C   UNL     1      31.828 -12.491 -21.985  0.00  0.00    +0.102 C 
ATOM     11  C   UNL     1      33.548 -12.217 -23.786  0.00  0.00    +0.102 C 
ATOM     12  C   UNL     1      31.773 -11.006 -21.650  0.00  0.00    +0.079 C 
ATOM     13  C   UNL     1      33.632 -10.702 -23.623  0.00  0.00    +0.079 C 
ENDBRANCH   3   9
BRANCH   2  16
ATOM     14  O   UNL     1      36.234 -19.887 -20.945  0.00  0.00    -0.434 OA
ATOM     15  O   UNL     1      37.234 -17.853 -21.002  0.00  0.00    -0.226 OA
ATOM     16  N   UNL     1      34.927 -18.120 -21.457  0.00  0.00    -0.221 N 
ATOM     17  C   UNL     1      34.885 -20.375 -20.940  0.00  0.00    +0.210 C 
ATOM     18  C   UNL     1      34.087 -19.276 -21.611  0.00  0.00    +0.147 C 
ATOM     19  C   UNL     1      36.217 -18.522 -21.119  0.00  0.00    +0.409 C 
BRANCH  17  20
ATOM     20  C   UNL     1      34.460 -20.634 -19.502  0.00  0.00    +0.135 C 
BRANCH  20  22
ATOM     21  O   UNL     1      34.693 -22.276 -17.120  0.00  0.00    -0.275 OA
ATOM     22  N   UNL     1      35.598 -20.760 -18.640  0.00  0.00    -0.301 N 
ATOM     23  C   UNL     1      35.623 -21.575 -17.514  0.00  0.00    +0.223 C 
ATOM     24  C   UNL     1      36.948 -21.540 -16.802  0.00  0.00    +0.095 C 
ATOM     25  H   UNL     1      36.405 -20.241 -18.857  0.00  0.00    +0.150 HD
ENDBRANCH  20  22
ENDBRANCH  17  20
ENDBRANCH   2  16
TORSDOF 4
ENDMDL
MODEL 8
REMARK VINA RESULT:      -9.6      4.338      8.705
REMARK  Name = 465951
REMARK  4 active torsions:
REMARK  status: ('A' for Active; 'I' for Inactive)
REMARK    1  A    between atoms: C_2  and  N_16
REMARK    2  A    between atoms: C_3  and  N_9
REMARK    3  A    between atoms: C_17  and  C_20
REMARK    4  A    between atoms: C_20  and  N_22
REMARK                            x       y       z     vdW  Elec       q    Type
REMARK                         _______ _______ _______ _____ _____    ______ ____
ROOT
ATOM      1  F   UNL     1      32.550 -20.956 -19.777  0.00  0.00    -0.203 F 
ATOM      2  C   UNL     1      34.864 -22.069 -17.203  0.00  0.00    +0.059 C 
ATOM      3  C   UNL     1      34.853 -20.435 -19.509  0.00  0.00    +0.076 C 
ATOM      4  C   UNL     1      33.690 -21.910 -17.940  0.00  0.00    +0.046 C 
ATOM      5  C   UNL     1      36.033 -21.422 -17.606  0.00  0.00    +0.016 C 
ATOM      6  C   UNL     1      33.684 -21.103 -19.078  0.00  0.00    +0.155 C 
ATOM      7  C   UNL     1      36.027 -20.616 -18.744  0.00  0.00    +0.018 C 
ENDROOT
BRANCH   3   9
ATOM      8  S   UNL     1      34.896 -17.738 -23.160  0.00  0.00    -0.137 S 
ATOM      9  N   UNL     1      34.850 -19.626 -20.652  0.00  0.00    -0.304 N 
ATOM     10  C   UNL     1      35.889 -18.588 -20.730  0.00  0.00    +0.102 C 
ATOM     11  C   UNL     1      33.579 -19.349 -21.332  0.00  0.00    +0.102 C 
ATOM     12  C   UNL     1      36.302 -18.318 -22.171  0.00  0.00    +0.079 C 
ATOM     13  C   UNL     1      33.781 -19.128 -22.828  0.00  0.00    +0.079 C 
ENDBRANCH   3   9
BRANCH   2  16
ATOM     14  O   UNL     1      34.219 -24.247 -14.358  0.00  0.00    -0.434 OA
ATOM     15  O   UNL     1      32.620 -23.594 -15.828  0.00  0.00    -0.226 OA
ATOM     16  N   UNL     1      34.870 -22.893 -16.041  0.00  0.00    -0.221 N 
ATOM     17  C   UNL     1      35.652 -24.208 -14.305  0.00  0.00    +0.210 C 
ATOM     18  C   UNL     1      36.029 -23.048 -15.204  0.00  0.00    +0.147 C 
ATOM     19  C   UNL     1      33.792 -23.569 -15.477  0.00  0.00    +0.409 C 
BRANCH  17  20
ATOM     20  C   UNL     1      36.198 -25.544 -14.790  0.00  0.00    +0.135 C 
BRANCH  20  22
ATOM     21  O   UNL     1      38.336 -25.740 -12.836  0.00  0.00    -0.275 OA
ATOM     22  N   UNL     1      37.609 -25.470 -15.032  0.00  0.00    -0.301 N 
ATOM     23  C   UNL     1      38.568 -25.575 -14.031  0.00  0.00    +0.223 C 
ATOM     24  C   UNL     1      39.973 -25.487 -14.563  0.00  0.00    +0.095 C 
ATOM     25  H   UNL     1      37.915 -25.337 -15.958  0.00  0.00    +0.150 HD
ENDBRANCH  20  22
ENDBRANCH  17  20
ENDBRANCH   2  16
TORSDOF 4
ENDMDL
MODEL 9
REMARK VINA RESULT:      -9.6      1.818      2.184
REMARK  Name = 465951
REMARK  4 active torsions:
REMARK  status: ('A' for Active; 'I' for Inactive)
REMARK    1  A    between atoms: C_2  and  N_16
REMARK    2  A    between atoms: C_3  and  N_9
REMARK    3  A    between atoms: C_17  and  C_20
REMARK    4  A    between atoms: C_20  and  N_22
REMARK                            x       y       z     vdW  Elec       q    Type
REMARK                         _______ _______ _______ _____ _____    ______ ____
ROOT
ATOM      1  F   UNL     1      37.574 -21.979 -15.833  0.00  0.00    -0.203 F 
ATOM      2  C   UNL     1      34.347 -21.997 -17.508  0.00  0.00    +0.059 C 
ATOM      3  C   UNL     1      35.557 -23.053 -15.183  0.00  0.00    +0.076 C 
ATOM      4  C   UNL     1      35.688 -21.726 -17.234  0.00  0.00    +0.046 C 
ATOM      5  C   UNL     1      33.604 -22.790 -16.634  0.00  0.00    +0.016 C 
ATOM      6  C   UNL     1      36.285 -22.246 -16.087  0.00  0.00    +0.155 C 
ATOM      7  C   UNL     1      34.201 -23.312 -15.487  0.00  0.00    +0.018 C 
ENDROOT
BRANCH   3   9
ATOM      8  S   UNL     1      37.526 -24.661 -11.422  0.00  0.00    -0.137 S 
ATOM      9  N   UNL     1      36.154 -23.579 -14.031  0.00  0.00    -0.304 N 
ATOM     10  C   UNL     1      36.402 -22.639 -12.926  0.00  0.00    +0.102 C 
ATOM     11  C   UNL     1      37.070 -24.719 -14.153  0.00  0.00    +0.102 C 
ATOM     12  C   UNL     1      36.302 -23.331 -11.573  0.00  0.00    +0.079 C 
ATOM     13  C   UNL     1      37.048 -25.592 -12.903  0.00  0.00    +0.079 C 
ENDBRANCH   3   9
BRANCH   2  16
ATOM     14  O   UNL     1      32.213 -20.682 -20.148  0.00  0.00    -0.434 OA
ATOM     15  O   UNL     1      31.443 -21.329 -18.116  0.00  0.00    -0.226 OA
ATOM     16  N   UNL     1      33.737 -21.464 -18.680  0.00  0.00    -0.221 N 
ATOM     17  C   UNL     1      33.497 -20.421 -20.732  0.00  0.00    +0.210 C 
ATOM     18  C   UNL     1      34.459 -21.249 -19.905  0.00  0.00    +0.147 C 
ATOM     19  C   UNL     1      32.389 -21.176 -18.876  0.00  0.00    +0.409 C 
BRANCH  17  20
ATOM     20  C   UNL     1      33.776 -18.926 -20.659  0.00  0.00    +0.135 C 
BRANCH  20  22
ATOM     21  O   UNL     1      36.571 -18.621 -19.940  0.00  0.00    -0.275 OA
ATOM     22  N   UNL     1      34.861 -18.560 -21.520  0.00  0.00    -0.301 N 
ATOM     23  C   UNL     1      36.177 -18.436 -21.090  0.00  0.00    +0.223 C 
ATOM     24  C   UNL     1      37.119 -18.064 -22.202  0.00  0.00    +0.095 C 
ATOM     25  H   UNL     1      34.663 -18.386 -22.469  0.00  0.00    +0.150 HD
ENDBRANCH  20  22
ENDBRANCH  17  20
ENDBRANCH   2  16
TORSDOF 4
ENDMDL
