MODEL 1
REMARK VINA RESULT:     -11.9      0.000      0.000
REMARK  Name = 9887812
REMARK  11 active torsions:
REMARK  status: ('A' for Active; 'I' for Inactive)
REMARK    1  A    between atoms: N_1  and  C_3
REMARK    2  A    between atoms: N_1  and  C_19
REMARK    3  A    between atoms: C_4  and  C_9
REMARK    4  A    between atoms: C_12  and  C_16
REMARK    5  A    between atoms: C_16  and  O_17
REMARK    6  A    between atoms: C_19  and  C_20
REMARK    7  A    between atoms: C_20  and  N_21
REMARK    8  A    between atoms: N_21  and  C_24
REMARK    9  A    between atoms: C_24  and  C_25
REMARK   10  A    between atoms: C_25  and  C_27
REMARK   11  A    between atoms: C_25  and  O_33
REMARK                            x       y       z     vdW  Elec       q    Type
REMARK                         _______ _______ _______ _____ _____    ______ ____
ROOT
ATOM      1  N   UNL     1      32.318 -21.803 -18.560  0.00  0.00    -0.335 N 
ATOM      2  H   UNL     1      31.445 -21.574 -18.952  0.00  0.00    +0.147 HD
ENDROOT
BRANCH   1   3
ATOM      3  C   UNL     1      33.475 -21.198 -19.092  0.00  0.00    +0.045 C 
ATOM      4  C   UNL     1      34.506 -19.635 -20.618  0.00  0.00    +0.001 C 
ATOM      5  C   UNL     1      33.361 -20.233 -20.092  0.00  0.00    +0.014 C 
ATOM      6  C   UNL     1      34.735 -21.566 -18.619  0.00  0.00    +0.014 C 
ATOM      7  C   UNL     1      35.766 -20.004 -20.146  0.00  0.00    +0.000 C 
ATOM      8  C   UNL     1      35.880 -20.970 -19.146  0.00  0.00    +0.001 C 
BRANCH   4   9
ATOM      9  C   UNL     1      34.387 -18.634 -21.656  0.00  0.00    +0.000 C 
ATOM     10  C   UNL     1      34.378 -17.279 -21.321  0.00  0.00    +0.006 C 
ATOM     11  C   UNL     1      34.282 -19.023 -22.991  0.00  0.00    +0.000 C 
ATOM     12  C   UNL     1      34.263 -16.315 -22.322  0.00  0.00    +0.075 C 
ATOM     13  C   UNL     1      34.166 -18.059 -23.992  0.00  0.00    +0.000 C 
ATOM     14  C   UNL     1      34.157 -16.704 -23.657  0.00  0.00    +0.006 C 
BRANCH  12  16
ATOM     15  O   UNL     1      34.277 -13.967 -22.781  0.00  0.00    -0.245 OA
ATOM     16  C   UNL     1      34.255 -14.903 -21.974  0.00  0.00    +0.338 C 
BRANCH  16  17
ATOM     17  O   UNL     1      34.219 -14.698 -20.628  0.00  0.00    -0.477 OA
ATOM     18  H   UNL     1      33.397 -14.625 -20.188  0.00  0.00    +0.295 HD
ENDBRANCH  16  17
ENDBRANCH  12  16
ENDBRANCH   4   9
ENDBRANCH   1   3
BRANCH   1  19
ATOM     19  C   UNL     1      32.356 -22.732 -17.472  0.00  0.00    +0.064 C 
BRANCH  19  20
ATOM     20  C   UNL     1      31.235 -22.416 -16.491  0.00  0.00    -0.060 C 
BRANCH  20  21
ATOM     21  N   UNL     1      31.305 -23.307 -15.338  0.00  0.00    +0.387 N 
ATOM     22  H   UNL     1      30.401 -23.311 -14.866  0.00  0.00    -0.084 HD
ATOM     23  H   UNL     1      31.541 -24.244 -15.664  0.00  0.00    -0.084 HD
BRANCH  21  24
ATOM     24  C   UNL     1      32.330 -22.866 -14.402  0.00  0.00    -0.047 C 
BRANCH  24  25
ATOM     25  C   UNL     1      33.291 -24.013 -14.067  0.00  0.00    +0.112 C 
BRANCH  25  27
ATOM     26 CL   UNL     1      38.294 -25.416 -14.282  0.00  0.00    -0.082 Cl
ATOM     27  C   UNL     1      34.717 -23.666 -14.434  0.00  0.00    +0.003 C 
ATOM     28  C   UNL     1      35.718 -24.596 -14.211  0.00  0.00    +0.009 C 
ATOM     29  C   UNL     1      34.990 -22.427 -14.989  0.00  0.00    -0.002 C 
ATOM     30  C   UNL     1      37.033 -24.276 -14.551  0.00  0.00    +0.057 C 
ATOM     31  C   UNL     1      36.304 -22.108 -15.328  0.00  0.00    +0.001 C 
ATOM     32  C   UNL     1      37.325 -23.031 -15.110  0.00  0.00    +0.011 C 
ENDBRANCH  25  27
BRANCH  25  33
ATOM     33  O   UNL     1      33.248 -24.301 -12.671  0.00  0.00    -0.382 OA
ATOM     34  H   UNL     1      32.707 -23.635 -12.219  0.00  0.00    +0.211 HD
ENDBRANCH  25  33
ENDBRANCH  24  25
ENDBRANCH  21  24
ENDBRANCH  20  21
ENDBRANCH  19  20
ENDBRANCH   1  19
TORSDOF 11
ENDMDL
MODEL 2
REMARK VINA RESULT:     -11.9      3.413     10.148
REMARK  Name = 9887812
REMARK  11 active torsions:
REMARK  status: ('A' for Active; 'I' for Inactive)
REMARK    1  A    between atoms: N_1  and  C_3
REMARK    2  A    between atoms: N_1  and  C_19
REMARK    3  A    between atoms: C_4  and  C_9
REMARK    4  A    between atoms: C_12  and  C_16
REMARK    5  A    between atoms: C_16  and  O_17
REMARK    6  A    between atoms: C_19  and  C_20
REMARK    7  A    between atoms: C_20  and  N_21
REMARK    8  A    between atoms: N_21  and  C_24
REMARK    9  A    between atoms: C_24  and  C_25
REMARK   10  A    between atoms: C_25  and  C_27
REMARK   11  A    between atoms: C_25  and  O_33
REMARK                            x       y       z     vdW  Elec       q    Type
REMARK                         _______ _______ _______ _____ _____    ______ ____
ROOT
ATOM      1  N   UNL     1      32.095 -21.809 -18.423  0.00  0.00    -0.335 N 
ATOM      2  H   UNL     1      31.243 -21.677 -18.898  0.00  0.00    +0.147 HD
ENDROOT
BRANCH   1   3
ATOM      3  C   UNL     1      32.061 -22.323 -17.110  0.00  0.00    +0.045 C 
ATOM      4  C   UNL     1      33.207 -23.235 -15.188  0.00  0.00    +0.001 C 
ATOM      5  C   UNL     1      33.242 -22.726 -16.487  0.00  0.00    +0.014 C 
ATOM      6  C   UNL     1      30.845 -22.429 -16.433  0.00  0.00    +0.014 C 
ATOM      7  C   UNL     1      31.992 -23.341 -14.512  0.00  0.00    +0.000 C 
ATOM      8  C   UNL     1      30.810 -22.938 -15.136  0.00  0.00    +0.001 C 
BRANCH   4   9
ATOM      9  C   UNL     1      34.432 -23.653 -14.543  0.00  0.00    +0.000 C 
ATOM     10  C   UNL     1      35.090 -24.807 -14.974  0.00  0.00    +0.006 C 
ATOM     11  C   UNL     1      34.957 -22.904 -13.490  0.00  0.00    +0.000 C 
ATOM     12  C   UNL     1      36.270 -25.209 -14.351  0.00  0.00    +0.075 C 
ATOM     13  C   UNL     1      36.138 -23.307 -12.867  0.00  0.00    +0.000 C 
ATOM     14  C   UNL     1      36.795 -24.460 -13.298  0.00  0.00    +0.006 C 
BRANCH  12  16
ATOM     15  O   UNL     1      37.919 -26.940 -14.233  0.00  0.00    -0.245 OA
ATOM     16  C   UNL     1      36.957 -26.411 -14.800  0.00  0.00    +0.338 C 
BRANCH  16  17
ATOM     17  O   UNL     1      36.423 -26.918 -15.946  0.00  0.00    -0.477 OA
ATOM     18  H   UNL     1      36.860 -27.612 -16.398  0.00  0.00    +0.295 HD
ENDBRANCH  16  17
ENDBRANCH  12  16
ENDBRANCH   4   9
ENDBRANCH   1   3
BRANCH   1  19
ATOM     19  C   UNL     1      33.313 -21.475 -19.095  0.00  0.00    +0.064 C 
BRANCH  19  20
ATOM     20  C   UNL     1      33.058 -20.342 -20.080  0.00  0.00    -0.060 C 
BRANCH  20  21
ATOM     21  N   UNL     1      34.310 -19.681 -20.428  0.00  0.00    +0.387 N 
ATOM     22  H   UNL     1      34.536 -18.996 -19.707  0.00  0.00    -0.084 HD
ATOM     23  H   UNL     1      35.044 -20.386 -20.491  0.00  0.00    -0.084 HD
BRANCH  21  24
ATOM     24  C   UNL     1      34.201 -19.004 -21.712  0.00  0.00    -0.047 C 
BRANCH  24  25
ATOM     25  C   UNL     1      35.213 -17.855 -21.811  0.00  0.00    +0.112 C 
BRANCH  25  27
ATOM     26 CL   UNL     1      33.477 -12.980 -21.302  0.00  0.00    -0.082 Cl
ATOM     27  C   UNL     1      34.598 -16.628 -22.447  0.00  0.00    +0.003 C 
ATOM     28  C   UNL     1      34.354 -15.512 -21.666  0.00  0.00    +0.009 C 
ATOM     29  C   UNL     1      34.293 -16.648 -23.798  0.00  0.00    -0.002 C 
ATOM     30  C   UNL     1      33.788 -14.380 -22.254  0.00  0.00    +0.057 C 
ATOM     31  C   UNL     1      33.727 -15.517 -24.384  0.00  0.00    +0.001 C 
ATOM     32  C   UNL     1      33.475 -14.383 -23.613  0.00  0.00    +0.011 C 
ENDBRANCH  25  27
BRANCH  25  33
ATOM     33  O   UNL     1      35.681 -17.497 -20.512  0.00  0.00    -0.382 OA
ATOM     34  H   UNL     1      35.985 -16.576 -20.521  0.00  0.00    +0.211 HD
ENDBRANCH  25  33
ENDBRANCH  24  25
ENDBRANCH  21  24
ENDBRANCH  20  21
ENDBRANCH  19  20
ENDBRANCH   1  19
TORSDOF 11
ENDMDL
MODEL 3
REMARK VINA RESULT:     -11.8      3.345     10.300
REMARK  Name = 9887812
REMARK  11 active torsions:
REMARK  status: ('A' for Active; 'I' for Inactive)
REMARK    1  A    between atoms: N_1  and  C_3
REMARK    2  A    between atoms: N_1  and  C_19
REMARK    3  A    between atoms: C_4  and  C_9
REMARK    4  A    between atoms: C_12  and  C_16
REMARK    5  A    between atoms: C_16  and  O_17
REMARK    6  A    between atoms: C_19  and  C_20
REMARK    7  A    between atoms: C_20  and  N_21
REMARK    8  A    between atoms: N_21  and  C_24
REMARK    9  A    between atoms: C_24  and  C_25
REMARK   10  A    between atoms: C_25  and  C_27
REMARK   11  A    between atoms: C_25  and  O_33
REMARK                            x       y       z     vdW  Elec       q    Type
REMARK                         _______ _______ _______ _____ _____    ______ ____
ROOT
ATOM      1  N   UNL     1      32.220 -22.076 -18.256  0.00  0.00    -0.335 N 
ATOM      2  H   UNL     1      31.441 -22.152 -18.853  0.00  0.00    +0.147 HD
ENDROOT
BRANCH   1   3
ATOM      3  C   UNL     1      32.085 -22.494 -16.916  0.00  0.00    +0.045 C 
ATOM      4  C   UNL     1      33.060 -23.387 -14.894  0.00  0.00    +0.001 C 
ATOM      5  C   UNL     1      33.194 -22.973 -16.219  0.00  0.00    +0.014 C 
ATOM      6  C   UNL     1      30.841 -22.430 -16.287  0.00  0.00    +0.014 C 
ATOM      7  C   UNL     1      31.816 -23.323 -14.265  0.00  0.00    +0.000 C 
ATOM      8  C   UNL     1      30.706 -22.844 -14.963  0.00  0.00    +0.001 C 
BRANCH   4   9
ATOM      9  C   UNL     1      34.210 -23.884 -14.171  0.00  0.00    +0.000 C 
ATOM     10  C   UNL     1      34.306 -23.691 -12.793  0.00  0.00    +0.006 C 
ATOM     11  C   UNL     1      35.224 -24.556 -14.854  0.00  0.00    +0.000 C 
ATOM     12  C   UNL     1      35.416 -24.171 -12.098  0.00  0.00    +0.075 C 
ATOM     13  C   UNL     1      36.334 -25.035 -14.158  0.00  0.00    +0.000 C 
ATOM     14  C   UNL     1      36.430 -24.843 -12.779  0.00  0.00    +0.006 C 
BRANCH  12  16
ATOM     15  O   UNL     1      34.940 -24.647  -9.801  0.00  0.00    -0.245 OA
ATOM     16  C   UNL     1      35.517 -23.971 -10.660  0.00  0.00    +0.338 C 
BRANCH  16  17
ATOM     17  O   UNL     1      36.334 -22.932 -10.335  0.00  0.00    -0.477 OA
ATOM     18  H   UNL     1      36.253 -22.517  -9.499  0.00  0.00    +0.295 HD
ENDBRANCH  16  17
ENDBRANCH  12  16
ENDBRANCH   4   9
ENDBRANCH   1   3
BRANCH   1  19
ATOM     19  C   UNL     1      33.439 -21.547 -18.786  0.00  0.00    +0.064 C 
BRANCH  19  20
ATOM     20  C   UNL     1      33.125 -20.500 -19.846  0.00  0.00    -0.060 C 
BRANCH  20  21
ATOM     21  N   UNL     1      34.338 -19.791 -20.234  0.00  0.00    +0.387 N 
ATOM     22  H   UNL     1      34.539 -19.071 -19.539  0.00  0.00    -0.084 HD
ATOM     23  H   UNL     1      35.105 -20.460 -20.286  0.00  0.00    -0.084 HD
BRANCH  21  24
ATOM     24  C   UNL     1      34.178 -19.163 -21.538  0.00  0.00    -0.047 C 
BRANCH  24  25
ATOM     25  C   UNL     1      35.208 -18.044 -21.735  0.00  0.00    +0.112 C 
BRANCH  25  27
ATOM     26 CL   UNL     1      33.770 -13.047 -21.779  0.00  0.00    -0.082 Cl
ATOM     27  C   UNL     1      34.618 -16.875 -22.491  0.00  0.00    +0.003 C 
ATOM     28  C   UNL     1      34.486 -15.653 -21.854  0.00  0.00    +0.009 C 
ATOM     29  C   UNL     1      34.224 -17.051 -23.807  0.00  0.00    -0.002 C 
ATOM     30  C   UNL     1      33.943 -14.575 -22.553  0.00  0.00    +0.057 C 
ATOM     31  C   UNL     1      33.680 -15.973 -24.505  0.00  0.00    +0.001 C 
ATOM     32  C   UNL     1      33.540 -14.735 -23.879  0.00  0.00    +0.011 C 
ENDBRANCH  25  27
BRANCH  25  33
ATOM     33  O   UNL     1      35.670 -17.570 -20.471  0.00  0.00    -0.382 OA
ATOM     34  H   UNL     1      35.729 -16.602 -20.490  0.00  0.00    +0.211 HD
ENDBRANCH  25  33
ENDBRANCH  24  25
ENDBRANCH  21  24
ENDBRANCH  20  21
ENDBRANCH  19  20
ENDBRANCH   1  19
TORSDOF 11
ENDMDL
MODEL 4
REMARK VINA RESULT:     -11.8      4.101      9.859
REMARK  Name = 9887812
REMARK  11 active torsions:
REMARK  status: ('A' for Active; 'I' for Inactive)
REMARK    1  A    between atoms: N_1  and  C_3
REMARK    2  A    between atoms: N_1  and  C_19
REMARK    3  A    between atoms: C_4  and  C_9
REMARK    4  A    between atoms: C_12  and  C_16
REMARK    5  A    between atoms: C_16  and  O_17
REMARK    6  A    between atoms: C_19  and  C_20
REMARK    7  A    between atoms: C_20  and  N_21
REMARK    8  A    between atoms: N_21  and  C_24
REMARK    9  A    between atoms: C_24  and  C_25
REMARK   10  A    between atoms: C_25  and  C_27
REMARK   11  A    between atoms: C_25  and  O_33
REMARK                            x       y       z     vdW  Elec       q    Type
REMARK                         _______ _______ _______ _____ _____    ______ ____
ROOT
ATOM      1  N   UNL     1      34.502 -21.932 -18.395  0.00  0.00    -0.335 N 
ATOM      2  H   UNL     1      35.377 -22.249 -18.714  0.00  0.00    +0.147 HD
ENDROOT
BRANCH   1   3
ATOM      3  C   UNL     1      34.077 -22.316 -17.106  0.00  0.00    +0.045 C 
ATOM      4  C   UNL     1      32.322 -23.030 -15.607  0.00  0.00    +0.001 C 
ATOM      5  C   UNL     1      32.742 -22.651 -16.882  0.00  0.00    +0.014 C 
ATOM      6  C   UNL     1      34.992 -22.360 -16.054  0.00  0.00    +0.014 C 
ATOM      7  C   UNL     1      33.237 -23.074 -14.555  0.00  0.00    +0.000 C 
ATOM      8  C   UNL     1      34.572 -22.739 -14.779  0.00  0.00    +0.001 C 
BRANCH   4   9
ATOM      9  C   UNL     1      30.936 -23.377 -15.376  0.00  0.00    +0.000 C 
ATOM     10  C   UNL     1      29.927 -22.735 -16.094  0.00  0.00    +0.006 C 
ATOM     11  C   UNL     1      30.610 -24.352 -14.434  0.00  0.00    +0.000 C 
ATOM     12  C   UNL     1      28.592 -23.070 -15.870  0.00  0.00    +0.075 C 
ATOM     13  C   UNL     1      29.274 -24.687 -14.210  0.00  0.00    +0.000 C 
ATOM     14  C   UNL     1      28.265 -24.045 -14.928  0.00  0.00    +0.006 C 
BRANCH  12  16
ATOM     15  O   UNL     1      27.105 -21.268 -16.390  0.00  0.00    -0.245 OA
ATOM     16  C   UNL     1      27.539 -22.402 -16.619  0.00  0.00    +0.338 C 
BRANCH  16  17
ATOM     17  O   UNL     1      27.055 -23.170 -17.635  0.00  0.00    -0.477 OA
ATOM     18  H   UNL     1      27.646 -23.568 -18.242  0.00  0.00    +0.295 HD
ENDBRANCH  16  17
ENDBRANCH  12  16
ENDBRANCH   4   9
ENDBRANCH   1   3
BRANCH   1  19
ATOM     19  C   UNL     1      33.719 -21.101 -19.256  0.00  0.00    +0.064 C 
BRANCH  19  20
ATOM     20  C   UNL     1      34.624 -20.430 -20.280  0.00  0.00    -0.060 C 
BRANCH  20  21
ATOM     21  N   UNL     1      34.059 -19.151 -20.695  0.00  0.00    +0.387 N 
ATOM     22  H   UNL     1      33.058 -19.265 -20.852  0.00  0.00    -0.084 HD
ATOM     23  H   UNL     1      34.229 -18.466 -19.960  0.00  0.00    -0.084 HD
BRANCH  21  24
ATOM     24  C   UNL     1      34.684 -18.682 -21.924  0.00  0.00    -0.047 C 
BRANCH  24  25
ATOM     25  C   UNL     1      35.230 -17.259 -21.749  0.00  0.00    +0.112 C 
BRANCH  25  27
ATOM     26 CL   UNL     1      33.306 -12.488 -22.507  0.00  0.00    -0.082 Cl
ATOM     27  C   UNL     1      34.523 -16.279 -22.659  0.00  0.00    +0.003 C 
ATOM     28  C   UNL     1      34.275 -14.994 -22.208  0.00  0.00    +0.009 C 
ATOM     29  C   UNL     1      34.139 -16.688 -23.925  0.00  0.00    -0.002 C 
ATOM     30  C   UNL     1      33.624 -14.091 -23.048  0.00  0.00    +0.057 C 
ATOM     31  C   UNL     1      33.488 -15.785 -24.764  0.00  0.00    +0.001 C 
ATOM     32  C   UNL     1      33.230 -14.486 -24.326  0.00  0.00    +0.011 C 
ENDBRANCH  25  27
BRANCH  25  33
ATOM     33  O   UNL     1      35.053 -16.824 -20.402  0.00  0.00    -0.382 OA
ATOM     34  H   UNL     1      34.120 -16.605 -20.252  0.00  0.00    +0.211 HD
ENDBRANCH  25  33
ENDBRANCH  24  25
ENDBRANCH  21  24
ENDBRANCH  20  21
ENDBRANCH  19  20
ENDBRANCH   1  19
TORSDOF 11
ENDMDL
MODEL 5
REMARK VINA RESULT:     -11.7      6.522     11.862
REMARK  Name = 9887812
REMARK  11 active torsions:
REMARK  status: ('A' for Active; 'I' for Inactive)
REMARK    1  A    between atoms: N_1  and  C_3
REMARK    2  A    between atoms: N_1  and  C_19
REMARK    3  A    between atoms: C_4  and  C_9
REMARK    4  A    between atoms: C_12  and  C_16
REMARK    5  A    between atoms: C_16  and  O_17
REMARK    6  A    between atoms: C_19  and  C_20
REMARK    7  A    between atoms: C_20  and  N_21
REMARK    8  A    between atoms: N_21  and  C_24
REMARK    9  A    between atoms: C_24  and  C_25
REMARK   10  A    between atoms: C_25  and  C_27
REMARK   11  A    between atoms: C_25  and  O_33
REMARK                            x       y       z     vdW  Elec       q    Type
REMARK                         _______ _______ _______ _____ _____    ______ ____
ROOT
ATOM      1  N   UNL     1      33.811 -13.482 -22.326  0.00  0.00    -0.335 N 
ATOM      2  H   UNL     1      33.847 -12.736 -22.968  0.00  0.00    +0.147 HD
ENDROOT
BRANCH   1   3
ATOM      3  C   UNL     1      33.945 -14.798 -22.815  0.00  0.00    +0.045 C 
ATOM      4  C   UNL     1      34.429 -17.134 -22.432  0.00  0.00    +0.001 C 
ATOM      5  C   UNL     1      34.296 -15.832 -21.948  0.00  0.00    +0.014 C 
ATOM      6  C   UNL     1      33.728 -15.065 -24.167  0.00  0.00    +0.014 C 
ATOM      7  C   UNL     1      34.212 -17.401 -23.784  0.00  0.00    +0.000 C 
ATOM      8  C   UNL     1      33.862 -16.366 -24.651  0.00  0.00    +0.001 C 
BRANCH   4   9
ATOM      9  C   UNL     1      34.793 -18.206 -21.532  0.00  0.00    +0.000 C 
ATOM     10  C   UNL     1      33.805 -19.031 -20.993  0.00  0.00    +0.006 C 
ATOM     11  C   UNL     1      36.133 -18.415 -21.203  0.00  0.00    +0.000 C 
ATOM     12  C   UNL     1      34.158 -20.064 -20.125  0.00  0.00    +0.075 C 
ATOM     13  C   UNL     1      36.484 -19.449 -20.335  0.00  0.00    +0.000 C 
ATOM     14  C   UNL     1      35.496 -20.274 -19.795  0.00  0.00    +0.006 C 
BRANCH  12  16
ATOM     15  O   UNL     1      31.961 -20.591 -19.335  0.00  0.00    -0.245 OA
ATOM     16  C   UNL     1      33.129 -20.925 -19.563  0.00  0.00    +0.338 C 
BRANCH  16  17
ATOM     17  O   UNL     1      33.586 -22.181 -19.301  0.00  0.00    -0.477 OA
ATOM     18  H   UNL     1      34.506 -22.356 -19.314  0.00  0.00    +0.295 HD
ENDBRANCH  16  17
ENDBRANCH  12  16
ENDBRANCH   4   9
ENDBRANCH   1   3
BRANCH   1  19
ATOM     19  C   UNL     1      33.627 -13.183 -20.939  0.00  0.00    +0.064 C 
BRANCH  19  20
ATOM     20  C   UNL     1      32.139 -13.113 -20.624  0.00  0.00    -0.060 C 
BRANCH  20  21
ATOM     21  N   UNL     1      31.421 -12.453 -21.709  0.00  0.00    +0.387 N 
ATOM     22  H   UNL     1      31.994 -12.481 -22.552  0.00  0.00    -0.084 HD
ATOM     23  H   UNL     1      30.539 -12.941 -21.860  0.00  0.00    -0.084 HD
BRANCH  21  24
ATOM     24  C   UNL     1      31.134 -11.065 -21.373  0.00  0.00    -0.047 C 
BRANCH  24  25
ATOM     25  C   UNL     1      31.551 -10.131 -22.515  0.00  0.00    +0.112 C 
BRANCH  25  27
ATOM     26 CL   UNL     1      33.896  -5.554 -23.284  0.00  0.00    -0.082 Cl
ATOM     27  C   UNL     1      31.885  -8.747 -22.004  0.00  0.00    +0.003 C 
ATOM     28  C   UNL     1      32.645  -7.900 -22.792  0.00  0.00    +0.009 C 
ATOM     29  C   UNL     1      31.421  -8.356 -20.760  0.00  0.00    -0.002 C 
ATOM     30  C   UNL     1      32.952  -6.623 -22.321  0.00  0.00    +0.057 C 
ATOM     31  C   UNL     1      31.729  -7.080 -20.288  0.00  0.00    +0.001 C 
ATOM     32  C   UNL     1      32.493  -6.213 -21.069  0.00  0.00    +0.011 C 
ENDBRANCH  25  27
BRANCH  25  33
ATOM     33  O   UNL     1      32.699 -10.649 -23.184  0.00  0.00    -0.382 OA
ATOM     34  H   UNL     1      32.524 -11.558 -23.472  0.00  0.00    +0.211 HD
ENDBRANCH  25  33
ENDBRANCH  24  25
ENDBRANCH  21  24
ENDBRANCH  20  21
ENDBRANCH  19  20
ENDBRANCH   1  19
TORSDOF 11
ENDMDL
MODEL 6
REMARK VINA RESULT:     -11.5      4.027     10.664
REMARK  Name = 9887812
REMARK  11 active torsions:
REMARK  status: ('A' for Active; 'I' for Inactive)
REMARK    1  A    between atoms: N_1  and  C_3
REMARK    2  A    between atoms: N_1  and  C_19
REMARK    3  A    between atoms: C_4  and  C_9
REMARK    4  A    between atoms: C_12  and  C_16
REMARK    5  A    between atoms: C_16  and  O_17
REMARK    6  A    between atoms: C_19  and  C_20
REMARK    7  A    between atoms: C_20  and  N_21
REMARK    8  A    between atoms: N_21  and  C_24
REMARK    9  A    between atoms: C_24  and  C_25
REMARK   10  A    between atoms: C_25  and  C_27
REMARK   11  A    between atoms: C_25  and  O_33
REMARK                            x       y       z     vdW  Elec       q    Type
REMARK                         _______ _______ _______ _____ _____    ______ ____
ROOT
ATOM      1  N   UNL     1      35.841 -20.949 -18.093  0.00  0.00    -0.335 N 
ATOM      2  H   UNL     1      36.328 -20.150 -17.786  0.00  0.00    +0.147 HD
ENDROOT
BRANCH   1   3
ATOM      3  C   UNL     1      35.347 -21.849 -17.126  0.00  0.00    +0.045 C 
ATOM      4  C   UNL     1      35.729 -23.335 -15.260  0.00  0.00    +0.001 C 
ATOM      5  C   UNL     1      36.219 -22.444 -16.216  0.00  0.00    +0.014 C 
ATOM      6  C   UNL     1      33.984 -22.146 -17.082  0.00  0.00    +0.014 C 
ATOM      7  C   UNL     1      34.367 -23.632 -15.216  0.00  0.00    +0.000 C 
ATOM      8  C   UNL     1      33.495 -23.037 -16.128  0.00  0.00    +0.001 C 
BRANCH   4   9
ATOM      9  C   UNL     1      36.635 -23.952 -14.315  0.00  0.00    +0.000 C 
ATOM     10  C   UNL     1      37.833 -24.513 -14.761  0.00  0.00    +0.006 C 
ATOM     11  C   UNL     1      36.311 -23.985 -12.959  0.00  0.00    +0.000 C 
ATOM     12  C   UNL     1      38.704 -25.108 -13.849  0.00  0.00    +0.075 C 
ATOM     13  C   UNL     1      37.184 -24.581 -12.048  0.00  0.00    +0.000 C 
ATOM     14  C   UNL     1      38.381 -25.142 -12.493  0.00  0.00    +0.006 C 
BRANCH  12  16
ATOM     15  O   UNL     1      40.800 -26.235 -13.594  0.00  0.00    -0.245 OA
ATOM     16  C   UNL     1      39.953 -25.692 -14.313  0.00  0.00    +0.338 C 
BRANCH  16  17
ATOM     17  O   UNL     1      40.111 -25.583 -15.661  0.00  0.00    -0.477 OA
ATOM     18  H   UNL     1      39.608 -26.125 -16.236  0.00  0.00    +0.295 HD
ENDBRANCH  16  17
ENDBRANCH  12  16
ENDBRANCH   4   9
ENDBRANCH   1   3
BRANCH   1  19
ATOM     19  C   UNL     1      35.665 -21.144 -19.499  0.00  0.00    +0.064 C 
BRANCH  19  20
ATOM     20  C   UNL     1      35.769 -19.805 -20.217  0.00  0.00    -0.060 C 
BRANCH  20  21
ATOM     21  N   UNL     1      34.442 -19.300 -20.544  0.00  0.00    +0.387 N 
ATOM     22  H   UNL     1      33.786 -20.080 -20.574  0.00  0.00    -0.084 HD
ATOM     23  H   UNL     1      34.163 -18.628 -19.829  0.00  0.00    -0.084 HD
BRANCH  21  24
ATOM     24  C   UNL     1      34.445 -18.629 -21.837  0.00  0.00    -0.047 C 
BRANCH  24  25
ATOM     25  C   UNL     1      35.106 -17.249 -21.734  0.00  0.00    +0.112 C 
BRANCH  25  27
ATOM     26 CL   UNL     1      33.372 -12.420 -22.575  0.00  0.00    -0.082 Cl
ATOM     27  C   UNL     1      34.456 -16.253 -22.668  0.00  0.00    +0.003 C 
ATOM     28  C   UNL     1      34.244 -14.956 -22.233  0.00  0.00    +0.009 C 
ATOM     29  C   UNL     1      34.090 -16.658 -23.940  0.00  0.00    -0.002 C 
ATOM     30  C   UNL     1      33.645 -14.037 -23.095  0.00  0.00    +0.057 C 
ATOM     31  C   UNL     1      33.491 -15.740 -24.802  0.00  0.00    +0.001 C 
ATOM     32  C   UNL     1      33.269 -14.430 -24.380  0.00  0.00    +0.011 C 
ENDBRANCH  25  27
BRANCH  25  33
ATOM     33  O   UNL     1      34.999 -16.748 -20.403  0.00  0.00    -0.382 OA
ATOM     34  H   UNL     1      35.886 -16.578 -20.048  0.00  0.00    +0.211 HD
ENDBRANCH  25  33
ENDBRANCH  24  25
ENDBRANCH  21  24
ENDBRANCH  20  21
ENDBRANCH  19  20
ENDBRANCH   1  19
TORSDOF 11
ENDMDL
MODEL 7
REMARK VINA RESULT:     -11.3      3.744     10.745
REMARK  Name = 9887812
REMARK  11 active torsions:
REMARK  status: ('A' for Active; 'I' for Inactive)
REMARK    1  A    between atoms: N_1  and  C_3
REMARK    2  A    between atoms: N_1  and  C_19
REMARK    3  A    between atoms: C_4  and  C_9
REMARK    4  A    between atoms: C_12  and  C_16
REMARK    5  A    between atoms: C_16  and  O_17
REMARK    6  A    between atoms: C_19  and  C_20
REMARK    7  A    between atoms: C_20  and  N_21
REMARK    8  A    between atoms: N_21  and  C_24
REMARK    9  A    between atoms: C_24  and  C_25
REMARK   10  A    between atoms: C_25  and  C_27
REMARK   11  A    between atoms: C_25  and  O_33
REMARK                            x       y       z     vdW  Elec       q    Type
REMARK                         _______ _______ _______ _____ _____    ______ ____
ROOT
ATOM      1  N   UNL     1      35.942 -20.955 -18.382  0.00  0.00    -0.335 N 
ATOM      2  H   UNL     1      36.703 -20.389 -18.119  0.00  0.00    +0.147 HD
ENDROOT
BRANCH   1   3
ATOM      3  C   UNL     1      35.316 -21.744 -17.395  0.00  0.00    +0.045 C 
ATOM      4  C   UNL     1      35.423 -22.966 -15.314  0.00  0.00    +0.001 C 
ATOM      5  C   UNL     1      36.043 -22.185 -16.290  0.00  0.00    +0.014 C 
ATOM      6  C   UNL     1      33.969 -22.084 -17.525  0.00  0.00    +0.014 C 
ATOM      7  C   UNL     1      34.076 -23.306 -15.443  0.00  0.00    +0.000 C 
ATOM      8  C   UNL     1      33.349 -22.865 -16.550  0.00  0.00    +0.001 C 
BRANCH   4   9
ATOM      9  C   UNL     1      36.177 -23.424 -14.168  0.00  0.00    +0.000 C 
ATOM     10  C   UNL     1      35.589 -23.433 -12.902  0.00  0.00    +0.006 C 
ATOM     11  C   UNL     1      37.494 -23.856 -14.328  0.00  0.00    +0.000 C 
ATOM     12  C   UNL     1      36.317 -23.874 -11.798  0.00  0.00    +0.075 C 
ATOM     13  C   UNL     1      38.222 -24.297 -13.223  0.00  0.00    +0.000 C 
ATOM     14  C   UNL     1      37.634 -24.306 -11.957  0.00  0.00    +0.006 C 
BRANCH  12  16
ATOM     15  O   UNL     1      34.949 -24.762 -10.048  0.00  0.00    -0.245 OA
ATOM     16  C   UNL     1      35.704 -23.884 -10.479  0.00  0.00    +0.338 C 
BRANCH  16  17
ATOM     17  O   UNL     1      36.051 -22.798  -9.735  0.00  0.00    -0.477 OA
ATOM     18  H   UNL     1      36.912 -22.735  -9.372  0.00  0.00    +0.295 HD
ENDBRANCH  16  17
ENDBRANCH  12  16
ENDBRANCH   4   9
ENDBRANCH   1   3
BRANCH   1  19
ATOM     19  C   UNL     1      35.518 -20.939 -19.749  0.00  0.00    +0.064 C 
BRANCH  19  20
ATOM     20  C   UNL     1      35.780 -19.564 -20.349  0.00  0.00    -0.060 C 
BRANCH  20  21
ATOM     21  N   UNL     1      34.520 -18.894 -20.650  0.00  0.00    +0.387 N 
ATOM     22  H   UNL     1      33.777 -19.590 -20.703  0.00  0.00    -0.084 HD
ATOM     23  H   UNL     1      34.325 -18.220 -19.910  0.00  0.00    -0.084 HD
BRANCH  21  24
ATOM     24  C   UNL     1      34.600 -18.183 -21.919  0.00  0.00    -0.047 C 
BRANCH  24  25
ATOM     25  C   UNL     1      35.004 -16.720 -21.700  0.00  0.00    +0.112 C 
BRANCH  25  27
ATOM     26 CL   UNL     1      32.896 -12.092 -22.783  0.00  0.00    -0.082 Cl
ATOM     27  C   UNL     1      34.338 -15.806 -22.704  0.00  0.00    +0.003 C 
ATOM     28  C   UNL     1      33.973 -14.528 -22.316  0.00  0.00    +0.009 C 
ATOM     29  C   UNL     1      34.109 -16.266 -23.989  0.00  0.00    -0.002 C 
ATOM     30  C   UNL     1      33.359 -13.685 -23.243  0.00  0.00    +0.057 C 
ATOM     31  C   UNL     1      33.495 -15.423 -24.915  0.00  0.00    +0.001 C 
ATOM     32  C   UNL     1      33.120 -14.132 -24.543  0.00  0.00    +0.011 C 
ENDBRANCH  25  27
BRANCH  25  33
ATOM     33  O   UNL     1      34.629 -16.295 -20.391  0.00  0.00    -0.382 OA
ATOM     34  H   UNL     1      33.694 -16.505 -20.238  0.00  0.00    +0.211 HD
ENDBRANCH  25  33
ENDBRANCH  24  25
ENDBRANCH  21  24
ENDBRANCH  20  21
ENDBRANCH  19  20
ENDBRANCH   1  19
TORSDOF 11
ENDMDL
MODEL 8
REMARK VINA RESULT:     -11.2      2.265      3.525
REMARK  Name = 9887812
REMARK  11 active torsions:
REMARK  status: ('A' for Active; 'I' for Inactive)
REMARK    1  A    between atoms: N_1  and  C_3
REMARK    2  A    between atoms: N_1  and  C_19
REMARK    3  A    between atoms: C_4  and  C_9
REMARK    4  A    between atoms: C_12  and  C_16
REMARK    5  A    between atoms: C_16  and  O_17
REMARK    6  A    between atoms: C_19  and  C_20
REMARK    7  A    between atoms: C_20  and  N_21
REMARK    8  A    between atoms: N_21  and  C_24
REMARK    9  A    between atoms: C_24  and  C_25
REMARK   10  A    between atoms: C_25  and  C_27
REMARK   11  A    between atoms: C_25  and  O_33
REMARK                            x       y       z     vdW  Elec       q    Type
REMARK                         _______ _______ _______ _____ _____    ______ ____
ROOT
ATOM      1  N   UNL     1      36.439 -21.340 -18.183  0.00  0.00    -0.335 N 
ATOM      2  H   UNL     1      37.075 -21.970 -18.594  0.00  0.00    +0.147 HD
ENDROOT
BRANCH   1   3
ATOM      3  C   UNL     1      35.271 -21.001 -18.897  0.00  0.00    +0.045 C 
ATOM      4  C   UNL     1      34.167 -19.699 -20.607  0.00  0.00    +0.001 C 
ATOM      5  C   UNL     1      35.323 -20.035 -19.901  0.00  0.00    +0.014 C 
ATOM      6  C   UNL     1      34.064 -21.632 -18.599  0.00  0.00    +0.014 C 
ATOM      7  C   UNL     1      32.959 -20.330 -20.308  0.00  0.00    +0.000 C 
ATOM      8  C   UNL     1      32.908 -21.297 -19.303  0.00  0.00    +0.001 C 
BRANCH   4   9
ATOM      9  C   UNL     1      34.221 -18.696 -21.648  0.00  0.00    +0.000 C 
ATOM     10  C   UNL     1      34.222 -17.342 -21.313  0.00  0.00    +0.006 C 
ATOM     11  C   UNL     1      34.272 -19.084 -22.987  0.00  0.00    +0.000 C 
ATOM     12  C   UNL     1      34.274 -16.376 -22.317  0.00  0.00    +0.075 C 
ATOM     13  C   UNL     1      34.323 -18.117 -23.991  0.00  0.00    +0.000 C 
ATOM     14  C   UNL     1      34.324 -16.762 -23.656  0.00  0.00    +0.006 C 
BRANCH  12  16
ATOM     15  O   UNL     1      34.300 -14.027 -22.775  0.00  0.00    -0.245 OA
ATOM     16  C   UNL     1      34.276 -14.964 -21.969  0.00  0.00    +0.338 C 
BRANCH  16  17
ATOM     17  O   UNL     1      34.248 -14.759 -20.623  0.00  0.00    -0.477 OA
ATOM     18  H   UNL     1      34.969 -14.338 -20.199  0.00  0.00    +0.295 HD
ENDBRANCH  16  17
ENDBRANCH  12  16
ENDBRANCH   4   9
ENDBRANCH   1   3
BRANCH   1  19
ATOM     19  C   UNL     1      36.739 -20.812 -16.888  0.00  0.00    +0.064 C 
BRANCH  19  20
ATOM     20  C   UNL     1      37.521 -21.843 -16.084  0.00  0.00    -0.060 C 
BRANCH  20  21
ATOM     21  N   UNL     1      36.666 -22.974 -15.743  0.00  0.00    +0.387 N 
ATOM     22  H   UNL     1      36.395 -23.456 -16.600  0.00  0.00    -0.084 HD
ATOM     23  H   UNL     1      37.186 -23.602 -15.131  0.00  0.00    -0.084 HD
BRANCH  21  24
ATOM     24  C   UNL     1      35.468 -22.528 -15.046  0.00  0.00    -0.047 C 
BRANCH  24  25
ATOM     25  C   UNL     1      34.708 -23.721 -14.452  0.00  0.00    +0.112 C 
BRANCH  25  27
ATOM     26 CL   UNL     1      29.894 -24.552 -12.669  0.00  0.00    -0.082 Cl
ATOM     27  C   UNL     1      33.214 -23.576 -14.645  0.00  0.00    +0.003 C 
ATOM     28  C   UNL     1      32.357 -24.075 -13.679  0.00  0.00    +0.009 C 
ATOM     29  C   UNL     1      32.737 -22.947 -15.782  0.00  0.00    -0.002 C 
ATOM     30  C   UNL     1      30.979 -23.940 -13.857  0.00  0.00    +0.057 C 
ATOM     31  C   UNL     1      31.360 -22.813 -15.959  0.00  0.00    +0.001 C 
ATOM     32  C   UNL     1      30.481 -23.309 -14.997  0.00  0.00    +0.011 C 
ENDBRANCH  25  27
BRANCH  25  33
ATOM     33  O   UNL     1      35.123 -24.933 -15.079  0.00  0.00    -0.382 OA
ATOM     34  H   UNL     1      35.685 -24.727 -15.842  0.00  0.00    +0.211 HD
ENDBRANCH  25  33
ENDBRANCH  24  25
ENDBRANCH  21  24
ENDBRANCH  20  21
ENDBRANCH  19  20
ENDBRANCH   1  19
TORSDOF 11
ENDMDL
MODEL 9
REMARK VINA RESULT:     -11.2      1.559      1.897
REMARK  Name = 9887812
REMARK  11 active torsions:
REMARK  status: ('A' for Active; 'I' for Inactive)
REMARK    1  A    between atoms: N_1  and  C_3
REMARK    2  A    between atoms: N_1  and  C_19
REMARK    3  A    between atoms: C_4  and  C_9
REMARK    4  A    between atoms: C_12  and  C_16
REMARK    5  A    between atoms: C_16  and  O_17
REMARK    6  A    between atoms: C_19  and  C_20
REMARK    7  A    between atoms: C_20  and  N_21
REMARK    8  A    between atoms: N_21  and  C_24
REMARK    9  A    between atoms: C_24  and  C_25
REMARK   10  A    between atoms: C_25  and  C_27
REMARK   11  A    between atoms: C_25  and  O_33
REMARK                            x       y       z     vdW  Elec       q    Type
REMARK                         _______ _______ _______ _____ _____    ______ ____
ROOT
ATOM      1  N   UNL     1      32.564 -21.881 -19.032  0.00  0.00    -0.335 N 
ATOM      2  H   UNL     1      32.122 -22.472 -19.683  0.00  0.00    +0.147 HD
ENDROOT
BRANCH   1   3
ATOM      3  C   UNL     1      33.671 -21.119 -19.459  0.00  0.00    +0.045 C 
ATOM      4  C   UNL     1      34.591 -19.336 -20.805  0.00  0.00    +0.001 C 
ATOM      5  C   UNL     1      33.495 -20.089 -20.383  0.00  0.00    +0.014 C 
ATOM      6  C   UNL     1      34.943 -21.395 -18.957  0.00  0.00    +0.014 C 
ATOM      7  C   UNL     1      35.863 -19.612 -20.303  0.00  0.00    +0.000 C 
ATOM      8  C   UNL     1      36.039 -20.643 -19.379  0.00  0.00    +0.001 C 
BRANCH   4   9
ATOM      9  C   UNL     1      34.408 -18.268 -21.764  0.00  0.00    +0.000 C 
ATOM     10  C   UNL     1      34.380 -16.941 -21.334  0.00  0.00    +0.006 C 
ATOM     11  C   UNL     1      34.260 -18.566 -23.118  0.00  0.00    +0.000 C 
ATOM     12  C   UNL     1      34.204 -15.913 -22.259  0.00  0.00    +0.075 C 
ATOM     13  C   UNL     1      34.083 -17.537 -24.044  0.00  0.00    +0.000 C 
ATOM     14  C   UNL     1      34.055 -16.210 -23.614  0.00  0.00    +0.006 C 
BRANCH  12  16
ATOM     15  O   UNL     1      34.184 -13.538 -22.551  0.00  0.00    -0.245 OA
ATOM     16  C   UNL     1      34.175 -14.529 -21.813  0.00  0.00    +0.338 C 
BRANCH  16  17
ATOM     17  O   UNL     1      34.137 -14.420 -20.456  0.00  0.00    -0.477 OA
ATOM     18  H   UNL     1      33.335 -14.201 -20.026  0.00  0.00    +0.295 HD
ENDBRANCH  16  17
ENDBRANCH  12  16
ENDBRANCH   4   9
ENDBRANCH   1   3
BRANCH   1  19
ATOM     19  C   UNL     1      32.054 -21.831 -17.697  0.00  0.00    +0.064 C 
BRANCH  19  20
ATOM     20  C   UNL     1      32.584 -23.017 -16.903  0.00  0.00    -0.060 C 
BRANCH  20  21
ATOM     21  N   UNL     1      33.417 -22.557 -15.798  0.00  0.00    +0.387 N 
ATOM     22  H   UNL     1      33.704 -21.595 -15.976  0.00  0.00    -0.084 HD
ATOM     23  H   UNL     1      32.876 -22.614 -14.936  0.00  0.00    -0.084 HD
BRANCH  21  24
ATOM     24  C   UNL     1      34.603 -23.391 -15.660  0.00  0.00    -0.047 C 
BRANCH  24  25
ATOM     25  C   UNL     1      35.834 -22.537 -15.328  0.00  0.00    +0.112 C 
BRANCH  25  27
ATOM     26 CL   UNL     1      39.724 -25.517 -13.588  0.00  0.00    -0.082 Cl
ATOM     27  C   UNL     1      36.602 -23.106 -14.156  0.00  0.00    +0.003 C 
ATOM     28  C   UNL     1      37.676 -23.947 -14.395  0.00  0.00    +0.009 C 
ATOM     29  C   UNL     1      36.217 -22.773 -12.869  0.00  0.00    -0.002 C 
ATOM     30  C   UNL     1      38.385 -24.470 -13.314  0.00  0.00    +0.057 C 
ATOM     31  C   UNL     1      36.926 -23.296 -11.788  0.00  0.00    +0.001 C 
ATOM     32  C   UNL     1      38.010 -24.145 -12.010  0.00  0.00    +0.011 C 
ENDBRANCH  25  27
BRANCH  25  33
ATOM     33  O   UNL     1      36.711 -22.479 -16.451  0.00  0.00    -0.382 OA
ATOM     34  H   UNL     1      36.288 -22.900 -17.215  0.00  0.00    +0.211 HD
ENDBRANCH  25  33
ENDBRANCH  24  25
ENDBRANCH  21  24
ENDBRANCH  20  21
ENDBRANCH  19  20
ENDBRANCH   1  19
TORSDOF 11
ENDMDL
