MODEL 1
REMARK VINA RESULT:     -12.4      0.000      0.000
REMARK  Name = 52913524
REMARK  9 active torsions:
REMARK  status: ('A' for Active; 'I' for Inactive)
REMARK    1  A    between atoms: C_1  and  C_10
REMARK    2  A    between atoms: C_4  and  C_24
REMARK    3  A    between atoms: C_5  and  C_22
REMARK    4  A    between atoms: C_8  and  O_13
REMARK    5  A    between atoms: C_9  and  O_15
REMARK    6  A    between atoms: C_11  and  O_17
REMARK    7  A    between atoms: C_12  and  C_19
REMARK    8  A    between atoms: C_19  and  O_20
REMARK    9  A    between atoms: C_24  and  C_27
REMARK                            x       y       z     vdW  Elec       q    Type
REMARK                         _______ _______ _______ _____ _____    ______ ____
ROOT
ATOM      1  C   UNL     1      33.769 -23.258 -14.550  0.00  0.00    +0.007 C 
ATOM      2  C   UNL     1      33.797 -23.245 -15.944  0.00  0.00    -0.006 C 
ATOM      3  C   UNL     1      32.594 -22.931 -13.872  0.00  0.00    -0.002 C 
ATOM      4  C   UNL     1      32.650 -22.905 -16.661  0.00  0.00    -0.022 C 
ATOM      5  C   UNL     1      31.475 -22.578 -15.983  0.00  0.00    -0.026 C 
ATOM      6  C   UNL     1      31.447 -22.591 -14.589  0.00  0.00    -0.005 C 
ENDROOT
BRANCH   1  10
ATOM      7  O   UNL     1      35.634 -24.732 -14.439  0.00  0.00    -0.347 OA
ATOM      8  C   UNL     1      34.696 -23.983 -12.310  0.00  0.00    +0.171 C 
ATOM      9  C   UNL     1      35.941 -24.508 -11.589  0.00  0.00    +0.169 C 
ATOM     10  C   UNL     1      35.016 -23.629 -13.771  0.00  0.00    +0.167 C 
ATOM     11  C   UNL     1      36.646 -25.587 -12.409  0.00  0.00    +0.169 C 
ATOM     12  C   UNL     1      36.876 -25.114 -13.846  0.00  0.00    +0.174 C 
BRANCH   8  13
ATOM     13  O   UNL     1      34.234 -22.809 -11.645  0.00  0.00    -0.379 OA
ATOM     14  H   UNL     1      34.212 -22.966 -10.688  0.00  0.00    +0.211 HD
ENDBRANCH   8  13
BRANCH   9  15
ATOM     15  O   UNL     1      35.558 -25.084 -10.339  0.00  0.00    -0.379 OA
ATOM     16  H   UNL     1      36.348 -25.231  -9.795  0.00  0.00    +0.211 HD
ENDBRANCH   9  15
BRANCH  11  17
ATOM     17  O   UNL     1      37.903 -25.889 -11.809  0.00  0.00    -0.379 OA
ATOM     18  H   UNL     1      38.475 -25.106 -11.845  0.00  0.00    +0.211 HD
ENDBRANCH  11  17
BRANCH  12  19
ATOM     19  C   UNL     1      37.478 -26.215 -14.714  0.00  0.00    +0.169 C 
BRANCH  19  20
ATOM     20  O   UNL     1      36.493 -26.655 -15.631  0.00  0.00    -0.379 OA
ATOM     21  H   UNL     1      35.873 -27.249 -15.179  0.00  0.00    +0.211 HD
ENDBRANCH  19  20
ENDBRANCH  12  19
ENDBRANCH   1  10
BRANCH   5  22
ATOM     22  C   UNL     1      30.235 -22.210 -16.730  0.00  0.00    +0.026 C 
ATOM     23  C   UNL     1      28.973 -22.430 -15.901  0.00  0.00    +0.005 C 
ENDBRANCH   5  22
BRANCH   4  24
ATOM     24  C   UNL     1      32.703 -22.897 -18.154  0.00  0.00    +0.052 C 
BRANCH  24  27
ATOM     25  O   UNL     1      33.774 -19.349 -21.324  0.00  0.00    -0.468 OA
ATOM     26  O   UNL     1      36.434 -19.160 -20.227  0.00  0.00    -0.468 OA
ATOM     27  C   UNL     1      33.690 -21.901 -18.727  0.00  0.00    -0.015 C 
ATOM     28  C   UNL     1      33.299 -21.053 -19.763  0.00  0.00    +0.036 C 
ATOM     29  C   UNL     1      34.989 -21.836 -18.222  0.00  0.00    -0.001 C 
ATOM     30  C   UNL     1      34.211 -20.141 -20.294  0.00  0.00    +0.172 C 
ATOM     31  C   UNL     1      35.503 -20.057 -19.770  0.00  0.00    +0.172 C 
ATOM     32  C   UNL     1      35.897 -20.915 -18.743  0.00  0.00    +0.040 C 
ATOM     33  C   UNL     1      34.860 -18.717 -22.008  0.00  0.00    +0.253 C 
ATOM     34  C   UNL     1      35.835 -18.125 -21.011  0.00  0.00    +0.253 C 
ENDBRANCH  24  27
ENDBRANCH   4  24
TORSDOF 9
ENDMDL
MODEL 2
REMARK VINA RESULT:     -11.8      1.115      2.341
REMARK  Name = 52913524
REMARK  9 active torsions:
REMARK  status: ('A' for Active; 'I' for Inactive)
REMARK    1  A    between atoms: C_1  and  C_10
REMARK    2  A    between atoms: C_4  and  C_24
REMARK    3  A    between atoms: C_5  and  C_22
REMARK    4  A    between atoms: C_8  and  O_13
REMARK    5  A    between atoms: C_9  and  O_15
REMARK    6  A    between atoms: C_11  and  O_17
REMARK    7  A    between atoms: C_12  and  C_19
REMARK    8  A    between atoms: C_19  and  O_20
REMARK    9  A    between atoms: C_24  and  C_27
REMARK                            x       y       z     vdW  Elec       q    Type
REMARK                         _______ _______ _______ _____ _____    ______ ____
ROOT
ATOM      1  C   UNL     1      33.904 -23.714 -14.669  0.00  0.00    +0.007 C 
ATOM      2  C   UNL     1      33.843 -23.599 -16.058  0.00  0.00    -0.006 C 
ATOM      3  C   UNL     1      32.830 -23.290 -13.886  0.00  0.00    -0.002 C 
ATOM      4  C   UNL     1      32.708 -23.059 -16.663  0.00  0.00    -0.022 C 
ATOM      5  C   UNL     1      31.635 -22.634 -15.880  0.00  0.00    -0.026 C 
ATOM      6  C   UNL     1      31.695 -22.750 -14.491  0.00  0.00    -0.005 C 
ENDROOT
BRANCH   1  10
ATOM      7  O   UNL     1      35.814 -23.242 -13.330  0.00  0.00    -0.347 OA
ATOM      8  C   UNL     1      36.065 -24.979 -15.031  0.00  0.00    +0.171 C 
ATOM      9  C   UNL     1      37.375 -25.422 -14.371  0.00  0.00    +0.169 C 
ATOM     10  C   UNL     1      35.137 -24.303 -14.011  0.00  0.00    +0.167 C 
ATOM     11  C   UNL     1      37.987 -24.295 -13.540  0.00  0.00    +0.169 C 
ATOM     12  C   UNL     1      36.949 -23.694 -12.591  0.00  0.00    +0.174 C 
BRANCH   8  13
ATOM     13  O   UNL     1      35.403 -26.124 -15.564  0.00  0.00    -0.379 OA
ATOM     14  H   UNL     1      35.123 -25.942 -16.475  0.00  0.00    +0.211 HD
ENDBRANCH   8  13
BRANCH   9  15
ATOM     15  O   UNL     1      38.316 -25.786 -15.382  0.00  0.00    -0.379 OA
ATOM     16  H   UNL     1      38.320 -25.111 -16.078  0.00  0.00    +0.211 HD
ENDBRANCH   9  15
BRANCH  11  17
ATOM     17  O   UNL     1      39.076 -24.811 -12.778  0.00  0.00    -0.379 OA
ATOM     18  H   UNL     1      39.284 -24.197 -12.056  0.00  0.00    +0.211 HD
ENDBRANCH  11  17
BRANCH  12  19
ATOM     19  C   UNL     1      37.506 -22.495 -11.830  0.00  0.00    +0.169 C 
BRANCH  19  20
ATOM     20  O   UNL     1      36.475 -21.952 -11.027  0.00  0.00    -0.379 OA
ATOM     21  H   UNL     1      35.658 -21.890 -11.548  0.00  0.00    +0.211 HD
ENDBRANCH  19  20
ENDBRANCH  12  19
ENDBRANCH   1  10
BRANCH   5  22
ATOM     22  C   UNL     1      30.410 -22.052 -16.505  0.00  0.00    +0.026 C 
ATOM     23  C   UNL     1      29.128 -22.640 -15.925  0.00  0.00    +0.005 C 
ENDBRANCH   5  22
BRANCH   4  24
ATOM     24  C   UNL     1      32.666 -22.944 -18.152  0.00  0.00    +0.052 C 
BRANCH  24  27
ATOM     25  O   UNL     1      33.694 -19.344 -21.277  0.00  0.00    -0.468 OA
ATOM     26  O   UNL     1      36.360 -19.155 -20.196  0.00  0.00    -0.468 OA
ATOM     27  C   UNL     1      33.643 -21.934 -18.717  0.00  0.00    -0.015 C 
ATOM     28  C   UNL     1      33.240 -21.073 -19.738  0.00  0.00    +0.036 C 
ATOM     29  C   UNL     1      34.945 -21.869 -18.220  0.00  0.00    -0.001 C 
ATOM     30  C   UNL     1      34.143 -20.148 -20.262  0.00  0.00    +0.172 C 
ATOM     31  C   UNL     1      35.438 -20.064 -19.746  0.00  0.00    +0.172 C 
ATOM     32  C   UNL     1      35.844 -20.935 -18.735  0.00  0.00    +0.040 C 
ATOM     33  C   UNL     1      34.771 -18.696 -21.960  0.00  0.00    +0.253 C 
ATOM     34  C   UNL     1      35.751 -18.113 -20.961  0.00  0.00    +0.253 C 
ENDBRANCH  24  27
ENDBRANCH   4  24
TORSDOF 9
ENDMDL
MODEL 3
REMARK VINA RESULT:     -11.6      3.277      7.851
REMARK  Name = 52913524
REMARK  9 active torsions:
REMARK  status: ('A' for Active; 'I' for Inactive)
REMARK    1  A    between atoms: C_1  and  C_10
REMARK    2  A    between atoms: C_4  and  C_24
REMARK    3  A    between atoms: C_5  and  C_22
REMARK    4  A    between atoms: C_8  and  O_13
REMARK    5  A    between atoms: C_9  and  O_15
REMARK    6  A    between atoms: C_11  and  O_17
REMARK    7  A    between atoms: C_12  and  C_19
REMARK    8  A    between atoms: C_19  and  O_20
REMARK    9  A    between atoms: C_24  and  C_27
REMARK                            x       y       z     vdW  Elec       q    Type
REMARK                         _______ _______ _______ _____ _____    ______ ____
ROOT
ATOM      1  C   UNL     1      35.411 -21.732 -17.534  0.00  0.00    +0.007 C 
ATOM      2  C   UNL     1      34.604 -22.572 -16.766  0.00  0.00    -0.006 C 
ATOM      3  C   UNL     1      36.613 -21.253 -17.015  0.00  0.00    -0.002 C 
ATOM      4  C   UNL     1      35.000 -22.932 -15.478  0.00  0.00    -0.022 C 
ATOM      5  C   UNL     1      36.203 -22.452 -14.958  0.00  0.00    -0.026 C 
ATOM      6  C   UNL     1      37.009 -21.613 -15.727  0.00  0.00    -0.005 C 
ENDROOT
BRANCH   1  10
ATOM      7  O   UNL     1      35.659 -20.129 -19.276  0.00  0.00    -0.347 OA
ATOM      8  C   UNL     1      33.458 -21.167 -19.041  0.00  0.00    +0.171 C 
ATOM      9  C   UNL     1      33.064 -20.619 -20.416  0.00  0.00    +0.169 C 
ATOM     10  C   UNL     1      34.981 -21.343 -18.935  0.00  0.00    +0.167 C 
ATOM     11  C   UNL     1      33.914 -19.407 -20.796  0.00  0.00    +0.169 C 
ATOM     12  C   UNL     1      35.403 -19.710 -20.617  0.00  0.00    +0.174 C 
BRANCH   8  13
ATOM     13  O   UNL     1      32.836 -22.437 -18.851  0.00  0.00    -0.379 OA
ATOM     14  H   UNL     1      33.338 -23.118 -19.325  0.00  0.00    +0.211 HD
ENDBRANCH   8  13
BRANCH   9  15
ATOM     15  O   UNL     1      31.696 -20.207 -20.388  0.00  0.00    -0.379 OA
ATOM     16  H   UNL     1      31.629 -19.338 -19.964  0.00  0.00    +0.211 HD
ENDBRANCH   9  15
BRANCH  11  17
ATOM     17  O   UNL     1      33.665 -19.066 -22.157  0.00  0.00    -0.379 OA
ATOM     18  H   UNL     1      34.484 -18.741 -22.564  0.00  0.00    +0.211 HD
ENDBRANCH  11  17
BRANCH  12  19
ATOM     19  C   UNL     1      36.266 -18.480 -20.884  0.00  0.00    +0.169 C 
BRANCH  19  20
ATOM     20  O   UNL     1      35.502 -17.323 -20.599  0.00  0.00    -0.379 OA
ATOM     21  H   UNL     1      35.742 -16.617 -21.219  0.00  0.00    +0.211 HD
ENDBRANCH  19  20
ENDBRANCH  12  19
ENDBRANCH   1  10
BRANCH   5  22
ATOM     22  C   UNL     1      36.647 -22.822 -13.581  0.00  0.00    +0.026 C 
ATOM     23  C   UNL     1      37.634 -23.985 -13.585  0.00  0.00    +0.005 C 
ENDBRANCH   5  22
BRANCH   4  24
ATOM     24  C   UNL     1      34.120 -23.831 -14.674  0.00  0.00    +0.052 C 
BRANCH  24  27
ATOM     25  O   UNL     1      29.810 -22.918 -16.766  0.00  0.00    -0.468 OA
ATOM     26  O   UNL     1      28.744 -22.076 -14.223  0.00  0.00    -0.468 OA
ATOM     27  C   UNL     1      32.685 -23.356 -14.574  0.00  0.00    -0.015 C 
ATOM     28  C   UNL     1      31.872 -23.357 -15.707  0.00  0.00    +0.036 C 
ATOM     29  C   UNL     1      32.180 -22.912 -13.351  0.00  0.00    -0.001 C 
ATOM     30  C   UNL     1      30.553 -22.912 -15.614  0.00  0.00    +0.172 C 
ATOM     31  C   UNL     1      30.040 -22.494 -14.385  0.00  0.00    +0.172 C 
ATOM     32  C   UNL     1      30.858 -22.479 -13.255  0.00  0.00    +0.040 C 
ATOM     33  C   UNL     1      28.620 -22.134 -16.637  0.00  0.00    +0.253 C 
ATOM     34  C   UNL     1      27.921 -22.453 -15.330  0.00  0.00    +0.253 C 
ENDBRANCH  24  27
ENDBRANCH   4  24
TORSDOF 9
ENDMDL
MODEL 4
REMARK VINA RESULT:     -11.4      2.508      6.766
REMARK  Name = 52913524
REMARK  9 active torsions:
REMARK  status: ('A' for Active; 'I' for Inactive)
REMARK    1  A    between atoms: C_1  and  C_10
REMARK    2  A    between atoms: C_4  and  C_24
REMARK    3  A    between atoms: C_5  and  C_22
REMARK    4  A    between atoms: C_8  and  O_13
REMARK    5  A    between atoms: C_9  and  O_15
REMARK    6  A    between atoms: C_11  and  O_17
REMARK    7  A    between atoms: C_12  and  C_19
REMARK    8  A    between atoms: C_19  and  O_20
REMARK    9  A    between atoms: C_24  and  C_27
REMARK                            x       y       z     vdW  Elec       q    Type
REMARK                         _______ _______ _______ _____ _____    ______ ____
ROOT
ATOM      1  C   UNL     1      33.146 -22.663 -17.083  0.00  0.00    +0.007 C 
ATOM      2  C   UNL     1      34.433 -22.384 -16.621  0.00  0.00    -0.006 C 
ATOM      3  C   UNL     1      32.748 -22.224 -18.345  0.00  0.00    -0.002 C 
ATOM      4  C   UNL     1      35.320 -21.664 -17.422  0.00  0.00    -0.022 C 
ATOM      5  C   UNL     1      34.921 -21.225 -18.684  0.00  0.00    -0.026 C 
ATOM      6  C   UNL     1      33.635 -21.504 -19.146  0.00  0.00    -0.005 C 
ENDROOT
BRANCH   1  10
ATOM      7  O   UNL     1      30.979 -22.680 -16.100  0.00  0.00    -0.347 OA
ATOM      8  C   UNL     1      32.773 -23.745 -14.826  0.00  0.00    +0.171 C 
ATOM      9  C   UNL     1      31.727 -24.392 -13.913  0.00  0.00    +0.169 C 
ATOM     10  C   UNL     1      32.182 -23.446 -16.213  0.00  0.00    +0.167 C 
ATOM     11  C   UNL     1      30.411 -23.615 -13.936  0.00  0.00    +0.169 C 
ATOM     12  C   UNL     1      29.955 -23.361 -15.374  0.00  0.00    +0.174 C 
BRANCH   8  13
ATOM     13  O   UNL     1      33.873 -24.640 -14.981  0.00  0.00    -0.379 OA
ATOM     14  H   UNL     1      33.541 -25.534 -15.158  0.00  0.00    +0.211 HD
ENDBRANCH   8  13
BRANCH   9  15
ATOM     15  O   UNL     1      32.211 -24.401 -12.569  0.00  0.00    -0.379 OA
ATOM     16  H   UNL     1      32.687 -25.230 -12.403  0.00  0.00    +0.211 HD
ENDBRANCH   9  15
BRANCH  11  17
ATOM     17  O   UNL     1      29.411 -24.363 -13.251  0.00  0.00    -0.379 OA
ATOM     18  H   UNL     1      29.792 -25.198 -12.934  0.00  0.00    +0.211 HD
ENDBRANCH  11  17
BRANCH  12  19
ATOM     19  C   UNL     1      28.702 -22.491 -15.425  0.00  0.00    +0.169 C 
BRANCH  19  20
ATOM     20  O   UNL     1      28.516 -22.047 -16.755  0.00  0.00    -0.379 OA
ATOM     21  H   UNL     1      27.571 -21.907 -16.920  0.00  0.00    +0.211 HD
ENDBRANCH  19  20
ENDBRANCH  12  19
ENDBRANCH   1  10
BRANCH   5  22
ATOM     22  C   UNL     1      35.853 -20.452 -19.559  0.00  0.00    +0.026 C 
ATOM     23  C   UNL     1      35.117 -19.676 -20.646  0.00  0.00    +0.005 C 
ENDBRANCH   5  22
BRANCH   4  24
ATOM     24  C   UNL     1      36.692 -21.377 -16.906  0.00  0.00    +0.052 C 
BRANCH  24  27
ATOM     25  O   UNL     1      36.013 -22.724 -12.268  0.00  0.00    -0.468 OA
ATOM     26  O   UNL     1      38.198 -24.593 -12.482  0.00  0.00    -0.468 OA
ATOM     27  C   UNL     1      37.087 -22.220 -15.711  0.00  0.00    -0.015 C 
ATOM     28  C   UNL     1      36.371 -22.115 -14.519  0.00  0.00    +0.036 C 
ATOM     29  C   UNL     1      38.169 -23.096 -15.803  0.00  0.00    -0.001 C 
ATOM     30  C   UNL     1      36.741 -22.887 -13.418  0.00  0.00    +0.172 C 
ATOM     31  C   UNL     1      37.807 -23.784 -13.518  0.00  0.00    +0.172 C 
ATOM     32  C   UNL     1      38.531 -23.878 -14.706  0.00  0.00    +0.040 C 
ATOM     33  C   UNL     1      36.677 -23.285 -11.132  0.00  0.00    +0.253 C 
ATOM     34  C   UNL     1      37.201 -24.669 -11.460  0.00  0.00    +0.253 C 
ENDBRANCH  24  27
ENDBRANCH   4  24
TORSDOF 9
ENDMDL
MODEL 5
REMARK VINA RESULT:     -11.2      2.441      5.530
REMARK  Name = 52913524
REMARK  9 active torsions:
REMARK  status: ('A' for Active; 'I' for Inactive)
REMARK    1  A    between atoms: C_1  and  C_10
REMARK    2  A    between atoms: C_4  and  C_24
REMARK    3  A    between atoms: C_5  and  C_22
REMARK    4  A    between atoms: C_8  and  O_13
REMARK    5  A    between atoms: C_9  and  O_15
REMARK    6  A    between atoms: C_11  and  O_17
REMARK    7  A    between atoms: C_12  and  C_19
REMARK    8  A    between atoms: C_19  and  O_20
REMARK    9  A    between atoms: C_24  and  C_27
REMARK                            x       y       z     vdW  Elec       q    Type
REMARK                         _______ _______ _______ _____ _____    ______ ____
ROOT
ATOM      1  C   UNL     1      36.129 -22.250 -15.945  0.00  0.00    +0.007 C 
ATOM      2  C   UNL     1      34.844 -22.548 -16.398  0.00  0.00    -0.006 C 
ATOM      3  C   UNL     1      36.965 -21.434 -16.707  0.00  0.00    -0.002 C 
ATOM      4  C   UNL     1      34.395 -22.031 -17.613  0.00  0.00    -0.022 C 
ATOM      5  C   UNL     1      35.232 -21.214 -18.375  0.00  0.00    -0.026 C 
ATOM      6  C   UNL     1      36.516 -20.916 -17.922  0.00  0.00    -0.005 C 
ENDROOT
BRANCH   1  10
ATOM      7  O   UNL     1      37.654 -23.755 -14.909  0.00  0.00    -0.347 OA
ATOM      8  C   UNL     1      35.481 -23.473 -13.827  0.00  0.00    +0.171 C 
ATOM      9  C   UNL     1      36.024 -24.172 -12.577  0.00  0.00    +0.169 C 
ATOM     10  C   UNL     1      36.616 -22.812 -14.624  0.00  0.00    +0.167 C 
ATOM     11  C   UNL     1      37.222 -25.059 -12.912  0.00  0.00    +0.169 C 
ATOM     12  C   UNL     1      38.259 -24.286 -13.729  0.00  0.00    +0.174 C 
BRANCH   8  13
ATOM     13  O   UNL     1      34.553 -22.465 -13.430  0.00  0.00    -0.379 OA
ATOM     14  H   UNL     1      34.151 -22.066 -14.217  0.00  0.00    +0.211 HD
ENDBRANCH   8  13
BRANCH   9  15
ATOM     15  O   UNL     1      35.004 -25.001 -12.016  0.00  0.00    -0.379 OA
ATOM     16  H   UNL     1      34.675 -24.599 -11.197  0.00  0.00    +0.211 HD
ENDBRANCH   9  15
BRANCH  11  17
ATOM     17  O   UNL     1      37.823 -25.515 -11.702  0.00  0.00    -0.379 OA
ATOM     18  H   UNL     1      38.568 -24.936 -11.474  0.00  0.00    +0.211 HD
ENDBRANCH  11  17
BRANCH  12  19
ATOM     19  C   UNL     1      39.413 -25.181 -14.170  0.00  0.00    +0.169 C 
BRANCH  19  20
ATOM     20  O   UNL     1      38.932 -26.506 -14.300  0.00  0.00    -0.379 OA
ATOM     21  H   UNL     1      37.989 -26.486 -14.530  0.00  0.00    +0.211 HD
ENDBRANCH  19  20
ENDBRANCH  12  19
ENDBRANCH   1  10
BRANCH   5  22
ATOM     22  C   UNL     1      34.774 -20.649 -19.679  0.00  0.00    +0.026 C 
ATOM     23  C   UNL     1      35.801 -19.704 -20.293  0.00  0.00    +0.005 C 
ENDBRANCH   5  22
BRANCH   4  24
ATOM     24  C   UNL     1      33.016 -22.364 -18.078  0.00  0.00    +0.052 C 
BRANCH  24  27
ATOM     25  O   UNL     1      31.997 -24.360 -13.746  0.00  0.00    -0.468 OA
ATOM     26  O   UNL     1      29.317 -23.306 -13.881  0.00  0.00    -0.468 OA
ATOM     27  C   UNL     1      32.038 -22.634 -16.953  0.00  0.00    -0.015 C 
ATOM     28  C   UNL     1      32.446 -23.366 -15.837  0.00  0.00    +0.036 C 
ATOM     29  C   UNL     1      30.729 -22.157 -17.036  0.00  0.00    -0.001 C 
ATOM     30  C   UNL     1      31.542 -23.619 -14.806  0.00  0.00    +0.172 C 
ATOM     31  C   UNL     1      30.241 -23.118 -14.876  0.00  0.00    +0.172 C 
ATOM     32  C   UNL     1      29.829 -22.400 -15.999  0.00  0.00    +0.040 C 
ATOM     33  C   UNL     1      30.923 -24.847 -12.936  0.00  0.00    +0.253 C 
ATOM     34  C   UNL     1      29.928 -23.737 -12.662  0.00  0.00    +0.253 C 
ENDBRANCH  24  27
ENDBRANCH   4  24
TORSDOF 9
ENDMDL
MODEL 6
REMARK VINA RESULT:     -10.5     11.513     17.650
REMARK  Name = 52913524
REMARK  9 active torsions:
REMARK  status: ('A' for Active; 'I' for Inactive)
REMARK    1  A    between atoms: C_1  and  C_10
REMARK    2  A    between atoms: C_4  and  C_24
REMARK    3  A    between atoms: C_5  and  C_22
REMARK    4  A    between atoms: C_8  and  O_13
REMARK    5  A    between atoms: C_9  and  O_15
REMARK    6  A    between atoms: C_11  and  O_17
REMARK    7  A    between atoms: C_12  and  C_19
REMARK    8  A    between atoms: C_19  and  O_20
REMARK    9  A    between atoms: C_24  and  C_27
REMARK                            x       y       z     vdW  Elec       q    Type
REMARK                         _______ _______ _______ _____ _____    ______ ____
ROOT
ATOM      1  C   UNL     1      32.146  -6.488 -22.178  0.00  0.00    +0.007 C 
ATOM      2  C   UNL     1      31.593  -7.706 -22.573  0.00  0.00    -0.006 C 
ATOM      3  C   UNL     1      32.253  -6.176 -20.823  0.00  0.00    -0.002 C 
ATOM      4  C   UNL     1      31.145  -8.612 -21.611  0.00  0.00    -0.022 C 
ATOM      5  C   UNL     1      31.251  -8.300 -20.255  0.00  0.00    -0.026 C 
ATOM      6  C   UNL     1      31.805  -7.082 -19.861  0.00  0.00    -0.005 C 
ENDROOT
BRANCH   1  10
ATOM      7  O   UNL     1      31.576  -4.572 -23.470  0.00  0.00    -0.347 OA
ATOM      8  C   UNL     1      33.057  -6.207 -24.522  0.00  0.00    +0.171 C 
ATOM      9  C   UNL     1      33.391  -5.187 -25.614  0.00  0.00    +0.169 C 
ATOM     10  C   UNL     1      32.634  -5.504 -23.224  0.00  0.00    +0.167 C 
ATOM     11  C   UNL     1      32.295  -4.130 -25.743  0.00  0.00    +0.169 C 
ATOM     12  C   UNL     1      31.952  -3.534 -24.376  0.00  0.00    +0.174 C 
BRANCH   8  13
ATOM     13  O   UNL     1      34.213  -7.001 -24.257  0.00  0.00    -0.379 OA
ATOM     14  H   UNL     1      34.682  -7.177 -25.088  0.00  0.00    +0.211 HD
ENDBRANCH   8  13
BRANCH   9  15
ATOM     15  O   UNL     1      33.508  -5.857 -26.871  0.00  0.00    -0.379 OA
ATOM     16  H   UNL     1      33.156  -5.289 -27.574  0.00  0.00    +0.211 HD
ENDBRANCH   9  15
BRANCH  11  17
ATOM     17  O   UNL     1      32.743  -3.091 -26.609  0.00  0.00    -0.379 OA
ATOM     18  H   UNL     1      33.450  -3.429 -27.181  0.00  0.00    +0.211 HD
ENDBRANCH  11  17
BRANCH  12  19
ATOM     19  C   UNL     1      30.784  -2.557 -24.463  0.00  0.00    +0.169 C 
BRANCH  19  20
ATOM     20  O   UNL     1      30.004  -2.683 -23.288  0.00  0.00    -0.379 OA
ATOM     21  H   UNL     1      30.574  -2.582 -22.509  0.00  0.00    +0.211 HD
ENDBRANCH  19  20
ENDBRANCH  12  19
ENDBRANCH   1  10
BRANCH   5  22
ATOM     22  C   UNL     1      30.778  -9.253 -19.208  0.00  0.00    +0.026 C 
ATOM     23  C   UNL     1      31.898  -9.680 -18.265  0.00  0.00    +0.005 C 
ENDBRANCH   5  22
BRANCH   4  24
ATOM     24  C   UNL     1      30.555  -9.910 -22.057  0.00  0.00    +0.052 C 
BRANCH  24  27
ATOM     25  O   UNL     1      32.712 -14.007 -20.523  0.00  0.00    -0.468 OA
ATOM     26  O   UNL     1      34.371 -14.026 -22.881  0.00  0.00    -0.468 OA
ATOM     27  C   UNL     1      31.576 -11.011 -22.255  0.00  0.00    -0.015 C 
ATOM     28  C   UNL     1      31.689 -12.033 -21.312  0.00  0.00    +0.036 C 
ATOM     29  C   UNL     1      32.406 -11.000 -23.377  0.00  0.00    -0.001 C 
ATOM     30  C   UNL     1      32.635 -13.042 -21.494  0.00  0.00    +0.172 C 
ATOM     31  C   UNL     1      33.446 -13.045 -22.630  0.00  0.00    +0.172 C 
ATOM     32  C   UNL     1      33.342 -12.016 -23.565  0.00  0.00    +0.040 C 
ATOM     33  C   UNL     1      33.916 -14.772 -20.626  0.00  0.00    +0.253 C 
ATOM     34  C   UNL     1      34.156 -15.181 -22.066  0.00  0.00    +0.253 C 
ENDBRANCH  24  27
ENDBRANCH   4  24
TORSDOF 9
ENDMDL
MODEL 7
REMARK VINA RESULT:     -10.5      2.620      6.737
REMARK  Name = 52913524
REMARK  9 active torsions:
REMARK  status: ('A' for Active; 'I' for Inactive)
REMARK    1  A    between atoms: C_1  and  C_10
REMARK    2  A    between atoms: C_4  and  C_24
REMARK    3  A    between atoms: C_5  and  C_22
REMARK    4  A    between atoms: C_8  and  O_13
REMARK    5  A    between atoms: C_9  and  O_15
REMARK    6  A    between atoms: C_11  and  O_17
REMARK    7  A    between atoms: C_12  and  C_19
REMARK    8  A    between atoms: C_19  and  O_20
REMARK    9  A    between atoms: C_24  and  C_27
REMARK                            x       y       z     vdW  Elec       q    Type
REMARK                         _______ _______ _______ _____ _____    ______ ____
ROOT
ATOM      1  C   UNL     1      32.819 -22.229 -16.709  0.00  0.00    +0.007 C 
ATOM      2  C   UNL     1      34.155 -22.070 -16.342  0.00  0.00    -0.006 C 
ATOM      3  C   UNL     1      32.434 -22.049 -18.037  0.00  0.00    -0.002 C 
ATOM      4  C   UNL     1      35.106 -21.728 -17.304  0.00  0.00    -0.022 C 
ATOM      5  C   UNL     1      34.720 -21.547 -18.633  0.00  0.00    -0.026 C 
ATOM      6  C   UNL     1      33.385 -21.707 -18.999  0.00  0.00    -0.005 C 
ENDROOT
BRANCH   1  10
ATOM      7  O   UNL     1      32.355 -23.619 -14.833  0.00  0.00    -0.347 OA
ATOM      8  C   UNL     1      30.474 -23.085 -16.299  0.00  0.00    +0.171 C 
ATOM      9  C   UNL     1      29.507 -23.606 -15.232  0.00  0.00    +0.169 C 
ATOM     10  C   UNL     1      31.786 -22.602 -15.663  0.00  0.00    +0.167 C 
ATOM     11  C   UNL     1      30.200 -24.582 -14.282  0.00  0.00    +0.169 C 
ATOM     12  C   UNL     1      31.503 -23.987 -13.747  0.00  0.00    +0.174 C 
BRANCH   8  13
ATOM     13  O   UNL     1      29.865 -21.991 -16.983  0.00  0.00    -0.379 OA
ATOM     14  H   UNL     1      29.617 -21.306 -16.342  0.00  0.00    +0.211 HD
ENDBRANCH   8  13
BRANCH   9  15
ATOM     15  O   UNL     1      28.428 -24.296 -15.864  0.00  0.00    -0.379 OA
ATOM     16  H   UNL     1      28.284 -23.928 -16.750  0.00  0.00    +0.211 HD
ENDBRANCH   9  15
BRANCH  11  17
ATOM     17  O   UNL     1      29.332 -24.872 -13.189  0.00  0.00    -0.379 OA
ATOM     18  H   UNL     1      28.553 -24.295 -13.234  0.00  0.00    +0.211 HD
ENDBRANCH  11  17
BRANCH  12  19
ATOM     19  C   UNL     1      32.269 -24.986 -12.885  0.00  0.00    +0.169 C 
BRANCH  19  20
ATOM     20  O   UNL     1      33.433 -24.353 -12.387  0.00  0.00    -0.379 OA
ATOM     21  H   UNL     1      34.078 -25.026 -12.119  0.00  0.00    +0.211 HD
ENDBRANCH  19  20
ENDBRANCH  12  19
ENDBRANCH   1  10
BRANCH   5  22
ATOM     22  C   UNL     1      35.720 -21.180 -19.680  0.00  0.00    +0.026 C 
ATOM     23  C   UNL     1      35.344 -19.899 -20.416  0.00  0.00    +0.005 C 
ENDBRANCH   5  22
BRANCH   4  24
ATOM     24  C   UNL     1      36.531 -21.562 -16.888  0.00  0.00    +0.052 C 
BRANCH  24  27
ATOM     25  O   UNL     1      35.782 -22.680 -12.200  0.00  0.00    -0.468 OA
ATOM     26  O   UNL     1      37.954 -24.573 -12.295  0.00  0.00    -0.468 OA
ATOM     27  C   UNL     1      36.904 -22.350 -15.649  0.00  0.00    -0.015 C 
ATOM     28  C   UNL     1      36.174 -22.182 -14.472  0.00  0.00    +0.036 C 
ATOM     29  C   UNL     1      37.980 -23.238 -15.685  0.00  0.00    -0.001 C 
ATOM     30  C   UNL     1      36.524 -22.903 -13.331  0.00  0.00    +0.172 C 
ATOM     31  C   UNL     1      37.583 -23.812 -13.374  0.00  0.00    +0.172 C 
ATOM     32  C   UNL     1      38.321 -23.969 -14.547  0.00  0.00    +0.040 C 
ATOM     33  C   UNL     1      36.427 -23.190 -11.029  0.00  0.00    +0.253 C 
ATOM     34  C   UNL     1      36.943 -24.593 -11.285  0.00  0.00    +0.253 C 
ENDBRANCH  24  27
ENDBRANCH   4  24
TORSDOF 9
ENDMDL
MODEL 8
REMARK VINA RESULT:     -10.5      2.363      5.137
REMARK  Name = 52913524
REMARK  9 active torsions:
REMARK  status: ('A' for Active; 'I' for Inactive)
REMARK    1  A    between atoms: C_1  and  C_10
REMARK    2  A    between atoms: C_4  and  C_24
REMARK    3  A    between atoms: C_5  and  C_22
REMARK    4  A    between atoms: C_8  and  O_13
REMARK    5  A    between atoms: C_9  and  O_15
REMARK    6  A    between atoms: C_11  and  O_17
REMARK    7  A    between atoms: C_12  and  C_19
REMARK    8  A    between atoms: C_19  and  O_20
REMARK    9  A    between atoms: C_24  and  C_27
REMARK                            x       y       z     vdW  Elec       q    Type
REMARK                         _______ _______ _______ _____ _____    ______ ____
ROOT
ATOM      1  C   UNL     1      34.440 -23.694 -14.902  0.00  0.00    +0.007 C 
ATOM      2  C   UNL     1      35.006 -22.670 -15.662  0.00  0.00    -0.006 C 
ATOM      3  C   UNL     1      35.259 -24.626 -14.266  0.00  0.00    -0.002 C 
ATOM      4  C   UNL     1      36.392 -22.579 -15.786  0.00  0.00    -0.022 C 
ATOM      5  C   UNL     1      37.212 -23.512 -15.150  0.00  0.00    -0.026 C 
ATOM      6  C   UNL     1      36.646 -24.535 -14.391  0.00  0.00    -0.005 C 
ENDROOT
BRANCH   1  10
ATOM      7  O   UNL     1      32.352 -22.878 -15.703  0.00  0.00    -0.347 OA
ATOM      8  C   UNL     1      32.463 -23.481 -13.337  0.00  0.00    +0.171 C 
ATOM      9  C   UNL     1      30.934 -23.428 -13.261  0.00  0.00    +0.169 C 
ATOM     10  C   UNL     1      32.932 -23.792 -14.767  0.00  0.00    +0.167 C 
ATOM     11  C   UNL     1      30.353 -22.552 -14.370  0.00  0.00    +0.169 C 
ATOM     12  C   UNL     1      30.925 -22.948 -15.732  0.00  0.00    +0.174 C 
BRANCH   8  13
ATOM     13  O   UNL     1      32.936 -24.509 -12.467  0.00  0.00    -0.379 OA
ATOM     14  H   UNL     1      32.246 -25.181 -12.354  0.00  0.00    +0.211 HD
ENDBRANCH   8  13
BRANCH   9  15
ATOM     15  O   UNL     1      30.540 -22.871 -12.006  0.00  0.00    -0.379 OA
ATOM     16  H   UNL     1      29.916 -22.144 -12.157  0.00  0.00    +0.211 HD
ENDBRANCH   9  15
BRANCH  11  17
ATOM     17  O   UNL     1      28.936 -22.703 -14.395  0.00  0.00    -0.379 OA
ATOM     18  H   UNL     1      28.653 -22.952 -15.289  0.00  0.00    +0.211 HD
ENDBRANCH  11  17
BRANCH  12  19
ATOM     19  C   UNL     1      30.445 -22.016 -16.841  0.00  0.00    +0.169 C 
BRANCH  19  20
ATOM     20  O   UNL     1      29.042 -22.150 -16.965  0.00  0.00    -0.379 OA
ATOM     21  H   UNL     1      28.747 -21.723 -17.785  0.00  0.00    +0.211 HD
ENDBRANCH  19  20
ENDBRANCH  12  19
ENDBRANCH   1  10
BRANCH   5  22
ATOM     22  C   UNL     1      38.699 -23.436 -15.270  0.00  0.00    +0.026 C 
ATOM     23  C   UNL     1      39.386 -24.701 -14.767  0.00  0.00    +0.005 C 
ENDBRANCH   5  22
BRANCH   4  24
ATOM     24  C   UNL     1      36.976 -21.475 -16.605  0.00  0.00    +0.052 C 
BRANCH  24  27
ATOM     25  O   UNL     1      36.189 -18.618 -20.480  0.00  0.00    -0.468 OA
ATOM     26  O   UNL     1      33.753 -20.051 -21.052  0.00  0.00    -0.468 OA
ATOM     27  C   UNL     1      36.122 -21.074 -17.791  0.00  0.00    -0.015 C 
ATOM     28  C   UNL     1      36.533 -20.033 -18.623  0.00  0.00    +0.036 C 
ATOM     29  C   UNL     1      34.924 -21.742 -18.045  0.00  0.00    -0.001 C 
ATOM     30  C   UNL     1      35.742 -19.661 -19.710  0.00  0.00    +0.172 C 
ATOM     31  C   UNL     1      34.557 -20.348 -19.981  0.00  0.00    +0.172 C 
ATOM     32  C   UNL     1      34.139 -21.379 -19.140  0.00  0.00    +0.040 C 
ATOM     33  C   UNL     1      35.161 -18.104 -21.330  0.00  0.00    +0.253 C 
ATOM     34  C   UNL     1      34.430 -19.241 -22.017  0.00  0.00    +0.253 C 
ENDBRANCH  24  27
ENDBRANCH   4  24
TORSDOF 9
ENDMDL
MODEL 9
REMARK VINA RESULT:     -10.3     11.613     17.649
REMARK  Name = 52913524
REMARK  9 active torsions:
REMARK  status: ('A' for Active; 'I' for Inactive)
REMARK    1  A    between atoms: C_1  and  C_10
REMARK    2  A    between atoms: C_4  and  C_24
REMARK    3  A    between atoms: C_5  and  C_22
REMARK    4  A    between atoms: C_8  and  O_13
REMARK    5  A    between atoms: C_9  and  O_15
REMARK    6  A    between atoms: C_11  and  O_17
REMARK    7  A    between atoms: C_12  and  C_19
REMARK    8  A    between atoms: C_19  and  O_20
REMARK    9  A    between atoms: C_24  and  C_27
REMARK                            x       y       z     vdW  Elec       q    Type
REMARK                         _______ _______ _______ _____ _____    ______ ____
ROOT
ATOM      1  C   UNL     1      31.263  -6.756 -22.522  0.00  0.00    +0.007 C 
ATOM      2  C   UNL     1      30.788  -8.068 -22.553  0.00  0.00    -0.006 C 
ATOM      3  C   UNL     1      31.993  -6.305 -21.422  0.00  0.00    -0.002 C 
ATOM      4  C   UNL     1      31.042  -8.927 -21.484  0.00  0.00    -0.022 C 
ATOM      5  C   UNL     1      31.771  -8.475 -20.384  0.00  0.00    -0.026 C 
ATOM      6  C   UNL     1      32.247  -7.164 -20.353  0.00  0.00    -0.005 C 
ENDROOT
BRANCH   1  10
ATOM      7  O   UNL     1      32.040  -5.995 -24.639  0.00  0.00    -0.347 OA
ATOM      8  C   UNL     1      30.892  -4.357 -23.235  0.00  0.00    +0.171 C 
ATOM      9  C   UNL     1      30.775  -3.420 -24.440  0.00  0.00    +0.169 C 
ATOM     10  C   UNL     1      30.988  -5.823 -23.685  0.00  0.00    +0.167 C 
ATOM     11  C   UNL     1      31.834  -3.737 -25.496  0.00  0.00    +0.169 C 
ATOM     12  C   UNL     1      31.840  -5.230 -25.828  0.00  0.00    +0.174 C 
BRANCH   8  13
ATOM     13  O   UNL     1      29.735  -4.205 -22.414  0.00  0.00    -0.379 OA
ATOM     14  H   UNL     1      29.205  -5.016 -22.447  0.00  0.00    +0.211 HD
ENDBRANCH   8  13
BRANCH   9  15
ATOM     15  O   UNL     1      30.968  -2.071 -24.013  0.00  0.00    -0.379 OA
ATOM     16  H   UNL     1      30.139  -1.578 -24.115  0.00  0.00    +0.211 HD
ENDBRANCH   9  15
BRANCH  11  17
ATOM     17  O   UNL     1      31.555  -2.994 -26.680  0.00  0.00    -0.379 OA
ATOM     18  H   UNL     1      32.388  -2.680 -27.067  0.00  0.00    +0.211 HD
ENDBRANCH  11  17
BRANCH  12  19
ATOM     19  C   UNL     1      32.962  -5.590 -26.797  0.00  0.00    +0.169 C 
BRANCH  19  20
ATOM     20  O   UNL     1      34.005  -4.645 -26.648  0.00  0.00    -0.379 OA
ATOM     21  H   UNL     1      33.930  -3.969 -27.340  0.00  0.00    +0.211 HD
ENDBRANCH  19  20
ENDBRANCH  12  19
ENDBRANCH   1  10
BRANCH   5  22
ATOM     22  C   UNL     1      32.055  -9.376 -19.228  0.00  0.00    +0.026 C 
ATOM     23  C   UNL     1      30.906  -9.411 -18.225  0.00  0.00    +0.005 C 
ENDBRANCH   5  22
BRANCH   4  24
ATOM     24  C   UNL     1      30.522 -10.326 -21.539  0.00  0.00    +0.052 C 
BRANCH  24  27
ATOM     25  O   UNL     1      32.898 -14.471 -20.556  0.00  0.00    -0.468 OA
ATOM     26  O   UNL     1      34.445 -14.167 -22.970  0.00  0.00    -0.468 OA
ATOM     27  C   UNL     1      31.573 -11.356 -21.900  0.00  0.00    -0.015 C 
ATOM     28  C   UNL     1      31.767 -12.467 -21.081  0.00  0.00    +0.036 C 
ATOM     29  C   UNL     1      32.348 -11.189 -23.049  0.00  0.00    -0.001 C 
ATOM     30  C   UNL     1      32.740 -13.411 -21.411  0.00  0.00    +0.172 C 
ATOM     31  C   UNL     1      33.497 -13.258 -22.575  0.00  0.00    +0.172 C 
ATOM     32  C   UNL     1      33.312 -12.139 -23.386  0.00  0.00    +0.040 C 
ATOM     33  C   UNL     1      34.123 -15.169 -20.793  0.00  0.00    +0.253 C 
ATOM     34  C   UNL     1      34.311 -15.411 -22.278  0.00  0.00    +0.253 C 
ENDBRANCH  24  27
ENDBRANCH   4  24
TORSDOF 9
ENDMDL
