MODEL 1
REMARK VINA RESULT:     -12.3      0.000      0.000
REMARK  Name = 60195662
REMARK  7 active torsions:
REMARK  status: ('A' for Active; 'I' for Inactive)
REMARK    1  A    between atoms: N_2  and  C_14
REMARK    2  A    between atoms: N_2  and  C_23
REMARK    3  A    between atoms: C_3  and  C_5
REMARK    4  A    between atoms: C_14  and  C_17
REMARK    5  A    between atoms: C_23  and  C_24
REMARK    6  A    between atoms: C_27  and  C_31
REMARK    7  A    between atoms: C_31  and  O_32
REMARK                            x       y       z     vdW  Elec       q    Type
REMARK                         _______ _______ _______ _____ _____    ______ ____
ROOT
ATOM      1  O   UNL     1      32.990 -23.515 -17.299  0.00  0.00    -0.270 OA
ATOM      2  N   UNL     1      34.445 -22.842 -15.596  0.00  0.00    -0.270 N 
ATOM      3  C   UNL     1      33.918 -22.794 -16.902  0.00  0.00    +0.251 C 
ENDROOT
BRANCH   3   5
ATOM      4  N   UNL     1      36.403 -20.617 -18.638  0.00  0.00    -0.248 NA
ATOM      5  C   UNL     1      34.489 -21.864 -17.859  0.00  0.00    +0.072 C 
ATOM      6  C   UNL     1      33.725 -21.330 -18.887  0.00  0.00    +0.003 C 
ATOM      7  C   UNL     1      34.299 -20.434 -19.799  0.00  0.00    -0.004 C 
ATOM      8  C   UNL     1      35.811 -21.478 -17.779  0.00  0.00    +0.103 C 
ATOM      9  C   UNL     1      35.660 -20.101 -19.635  0.00  0.00    +0.060 C 
ATOM     10  C   UNL     1      33.553 -19.876 -20.851  0.00  0.00    +0.053 C 
ATOM     11  C   UNL     1      36.229 -19.210 -20.541  0.00  0.00    +0.071 C 
ATOM     12  C   UNL     1      34.149 -18.988 -21.743  0.00  0.00    -0.026 C 
ATOM     13  C   UNL     1      35.489 -18.655 -21.587  0.00  0.00    -0.024 C 
ENDBRANCH   3   5
BRANCH   2  14
ATOM     14  C   UNL     1      33.933 -23.762 -14.583  0.00  0.00    +0.099 C 
ATOM     15  C   UNL     1      34.411 -25.183 -14.874  0.00  0.00    +0.026 C 
BRANCH  14  17
ATOM     16  F   UNL     1      28.318 -23.421 -14.133  0.00  0.00    -0.204 F 
ATOM     17  C   UNL     1      32.427 -23.671 -14.462  0.00  0.00    -0.004 C 
ATOM     18  C   UNL     1      31.673 -24.824 -14.240  0.00  0.00    -0.000 C 
ATOM     19  C   UNL     1      31.792 -22.433 -14.572  0.00  0.00    -0.000 C 
ATOM     20  C   UNL     1      30.285 -24.739 -14.129  0.00  0.00    +0.029 C 
ATOM     21  C   UNL     1      30.404 -22.349 -14.460  0.00  0.00    +0.029 C 
ATOM     22  C   UNL     1      29.651 -23.502 -14.239  0.00  0.00    +0.140 C 
ENDBRANCH  14  17
ENDBRANCH   2  14
BRANCH   2  23
ATOM     23  C   UNL     1      35.536 -21.978 -15.170  0.00  0.00    +0.121 C 
BRANCH  23  24
ATOM     24  C   UNL     1      36.455 -22.668 -14.203  0.00  0.00    -0.002 C 
ATOM     25  C   UNL     1      37.469 -23.499 -14.679  0.00  0.00    +0.004 C 
ATOM     26  C   UNL     1      36.296 -22.477 -12.831  0.00  0.00    -0.003 C 
ATOM     27  C   UNL     1      38.324 -24.140 -13.781  0.00  0.00    +0.075 C 
ATOM     28  C   UNL     1      37.151 -23.117 -11.934  0.00  0.00    -0.000 C 
ATOM     29  C   UNL     1      38.165 -23.949 -12.409  0.00  0.00    +0.006 C 
BRANCH  27  31
ATOM     30  O   UNL     1      39.259 -26.207 -14.540  0.00  0.00    -0.245 OA
ATOM     31  C   UNL     1      39.381 -25.006 -14.276  0.00  0.00    +0.338 C 
BRANCH  31  32
ATOM     32  O   UNL     1      40.564 -24.349 -14.431  0.00  0.00    -0.477 OA
ATOM     33  H   UNL     1      40.989 -24.339 -15.266  0.00  0.00    +0.295 HD
ENDBRANCH  31  32
ENDBRANCH  27  31
ENDBRANCH  23  24
ENDBRANCH   2  23
TORSDOF 7
ENDMDL
MODEL 2
REMARK VINA RESULT:     -12.0      2.895      6.533
REMARK  Name = 60195662
REMARK  7 active torsions:
REMARK  status: ('A' for Active; 'I' for Inactive)
REMARK    1  A    between atoms: N_2  and  C_14
REMARK    2  A    between atoms: N_2  and  C_23
REMARK    3  A    between atoms: C_3  and  C_5
REMARK    4  A    between atoms: C_14  and  C_17
REMARK    5  A    between atoms: C_23  and  C_24
REMARK    6  A    between atoms: C_27  and  C_31
REMARK    7  A    between atoms: C_31  and  O_32
REMARK                            x       y       z     vdW  Elec       q    Type
REMARK                         _______ _______ _______ _____ _____    ______ ____
ROOT
ATOM      1  O   UNL     1      35.011 -24.172 -15.844  0.00  0.00    -0.270 OA
ATOM      2  N   UNL     1      33.255 -23.283 -14.581  0.00  0.00    -0.270 N 
ATOM      3  C   UNL     1      34.034 -23.416 -15.748  0.00  0.00    +0.251 C 
ENDROOT
BRANCH   3   5
ATOM      4  N   UNL     1      32.013 -21.750 -18.407  0.00  0.00    -0.248 NA
ATOM      5  C   UNL     1      33.699 -22.618 -16.914  0.00  0.00    +0.072 C 
ATOM      6  C   UNL     1      34.681 -21.971 -17.649  0.00  0.00    +0.003 C 
ATOM      7  C   UNL     1      34.332 -21.206 -18.771  0.00  0.00    -0.004 C 
ATOM      8  C   UNL     1      32.391 -22.478 -17.331  0.00  0.00    +0.103 C 
ATOM      9  C   UNL     1      32.968 -21.122 -19.119  0.00  0.00    +0.060 C 
ATOM     10  C   UNL     1      35.303 -20.538 -19.536  0.00  0.00    +0.053 C 
ATOM     11  C   UNL     1      32.622 -20.363 -20.234  0.00  0.00    +0.071 C 
ATOM     12  C   UNL     1      34.929 -19.785 -20.647  0.00  0.00    -0.026 C 
ATOM     13  C   UNL     1      33.586 -19.698 -20.995  0.00  0.00    -0.024 C 
ENDBRANCH   3   5
BRANCH   2  14
ATOM     14  C   UNL     1      33.541 -24.041 -13.364  0.00  0.00    +0.099 C 
ATOM     15  C   UNL     1      32.631 -23.575 -12.230  0.00  0.00    +0.026 C 
BRANCH  14  17
ATOM     16  F   UNL     1      39.009 -23.777 -11.998  0.00  0.00    -0.204 F 
ATOM     17  C   UNL     1      35.008 -23.970 -12.999  0.00  0.00    -0.004 C 
ATOM     18  C   UNL     1      35.792 -25.123 -13.034  0.00  0.00    -0.000 C 
ATOM     19  C   UNL     1      35.575 -22.751 -12.625  0.00  0.00    -0.000 C 
ATOM     20  C   UNL     1      37.144 -25.058 -12.696  0.00  0.00    +0.029 C 
ATOM     21  C   UNL     1      36.927 -22.686 -12.287  0.00  0.00    +0.029 C 
ATOM     22  C   UNL     1      37.711 -23.839 -12.323  0.00  0.00    +0.140 C 
ENDBRANCH  14  17
ENDBRANCH   2  14
BRANCH   2  23
ATOM     23  C   UNL     1      32.114 -22.382 -14.510  0.00  0.00    +0.121 C 
BRANCH  23  24
ATOM     24  C   UNL     1      30.823 -23.085 -14.816  0.00  0.00    -0.002 C 
ATOM     25  C   UNL     1      29.828 -22.430 -15.541  0.00  0.00    +0.004 C 
ATOM     26  C   UNL     1      30.619 -24.393 -14.376  0.00  0.00    -0.003 C 
ATOM     27  C   UNL     1      28.628 -23.083 -15.826  0.00  0.00    +0.075 C 
ATOM     28  C   UNL     1      29.420 -25.046 -14.661  0.00  0.00    -0.000 C 
ATOM     29  C   UNL     1      28.424 -24.391 -15.386  0.00  0.00    +0.006 C 
BRANCH  27  31
ATOM     30  O   UNL     1      27.143 -21.277 -16.331  0.00  0.00    -0.245 OA
ATOM     31  C   UNL     1      27.591 -22.401 -16.582  0.00  0.00    +0.338 C 
BRANCH  31  32
ATOM     32  O   UNL     1      27.140 -23.140 -17.633  0.00  0.00    -0.477 OA
ATOM     33  H   UNL     1      27.748 -23.612 -18.169  0.00  0.00    +0.295 HD
ENDBRANCH  31  32
ENDBRANCH  27  31
ENDBRANCH  23  24
ENDBRANCH   2  23
TORSDOF 7
ENDMDL
MODEL 3
REMARK VINA RESULT:     -11.7      1.792      2.168
REMARK  Name = 60195662
REMARK  7 active torsions:
REMARK  status: ('A' for Active; 'I' for Inactive)
REMARK    1  A    between atoms: N_2  and  C_14
REMARK    2  A    between atoms: N_2  and  C_23
REMARK    3  A    between atoms: C_3  and  C_5
REMARK    4  A    between atoms: C_14  and  C_17
REMARK    5  A    between atoms: C_23  and  C_24
REMARK    6  A    between atoms: C_27  and  C_31
REMARK    7  A    between atoms: C_31  and  O_32
REMARK                            x       y       z     vdW  Elec       q    Type
REMARK                         _______ _______ _______ _____ _____    ______ ____
ROOT
ATOM      1  O   UNL     1      32.452 -23.428 -17.442  0.00  0.00    -0.270 OA
ATOM      2  N   UNL     1      33.734 -22.779 -15.597  0.00  0.00    -0.270 N 
ATOM      3  C   UNL     1      33.365 -22.745 -16.956  0.00  0.00    +0.251 C 
ENDROOT
BRANCH   3   5
ATOM      4  N   UNL     1      36.182 -20.853 -18.513  0.00  0.00    -0.248 NA
ATOM      5  C   UNL     1      34.094 -21.876 -17.863  0.00  0.00    +0.072 C 
ATOM      6  C   UNL     1      33.456 -21.242 -18.920  0.00  0.00    +0.003 C 
ATOM      7  C   UNL     1      34.182 -20.409 -19.782  0.00  0.00    -0.004 C 
ATOM      8  C   UNL     1      35.445 -21.650 -17.704  0.00  0.00    +0.103 C 
ATOM      9  C   UNL     1      35.561 -20.240 -19.538  0.00  0.00    +0.060 C 
ATOM     10  C   UNL     1      33.566 -19.753 -20.862  0.00  0.00    +0.053 C 
ATOM     11  C   UNL     1      36.280 -19.411 -20.394  0.00  0.00    +0.071 C 
ATOM     12  C   UNL     1      34.310 -18.930 -21.703  0.00  0.00    -0.026 C 
ATOM     13  C   UNL     1      35.670 -18.759 -21.469  0.00  0.00    -0.024 C 
ENDBRANCH   3   5
BRANCH   2  14
ATOM     14  C   UNL     1      33.058 -23.640 -14.629  0.00  0.00    +0.099 C 
ATOM     15  C   UNL     1      33.544 -25.080 -14.775  0.00  0.00    +0.026 C 
BRANCH  14  17
ATOM     16  F   UNL     1      27.448 -23.198 -15.038  0.00  0.00    -0.204 F 
ATOM     17  C   UNL     1      31.553 -23.521 -14.738  0.00  0.00    -0.004 C 
ATOM     18  C   UNL     1      30.776 -24.662 -14.939  0.00  0.00    -0.000 C 
ATOM     19  C   UNL     1      30.942 -22.270 -14.638  0.00  0.00    -0.000 C 
ATOM     20  C   UNL     1      29.389 -24.553 -15.040  0.00  0.00    +0.029 C 
ATOM     21  C   UNL     1      29.556 -22.161 -14.739  0.00  0.00    +0.029 C 
ATOM     22  C   UNL     1      28.779 -23.302 -14.941  0.00  0.00    +0.140 C 
ENDBRANCH  14  17
ENDBRANCH   2  14
BRANCH   2  23
ATOM     23  C   UNL     1      34.814 -21.960 -15.068  0.00  0.00    +0.121 C 
BRANCH  23  24
ATOM     24  C   UNL     1      35.698 -22.732 -14.130  0.00  0.00    -0.002 C 
ATOM     25  C   UNL     1      35.321 -22.900 -12.798  0.00  0.00    +0.004 C 
ATOM     26  C   UNL     1      36.893 -23.282 -14.592  0.00  0.00    -0.003 C 
ATOM     27  C   UNL     1      36.142 -23.619 -11.927  0.00  0.00    +0.075 C 
ATOM     28  C   UNL     1      37.713 -24.000 -13.722  0.00  0.00    -0.000 C 
ATOM     29  C   UNL     1      37.337 -24.169 -12.389  0.00  0.00    +0.006 C 
BRANCH  27  31
ATOM     30  O   UNL     1      35.039 -24.709 -10.105  0.00  0.00    -0.245 OA
ATOM     31  C   UNL     1      35.749 -23.795 -10.538  0.00  0.00    +0.338 C 
BRANCH  31  32
ATOM     32  O   UNL     1      36.255 -22.827  -9.727  0.00  0.00    -0.477 OA
ATOM     33  H   UNL     1      36.964 -23.025  -9.145  0.00  0.00    +0.295 HD
ENDBRANCH  31  32
ENDBRANCH  27  31
ENDBRANCH  23  24
ENDBRANCH   2  23
TORSDOF 7
ENDMDL
MODEL 4
REMARK VINA RESULT:     -10.9      2.872      6.158
REMARK  Name = 60195662
REMARK  7 active torsions:
REMARK  status: ('A' for Active; 'I' for Inactive)
REMARK    1  A    between atoms: N_2  and  C_14
REMARK    2  A    between atoms: N_2  and  C_23
REMARK    3  A    between atoms: C_3  and  C_5
REMARK    4  A    between atoms: C_14  and  C_17
REMARK    5  A    between atoms: C_23  and  C_24
REMARK    6  A    between atoms: C_27  and  C_31
REMARK    7  A    between atoms: C_31  and  O_32
REMARK                            x       y       z     vdW  Elec       q    Type
REMARK                         _______ _______ _______ _____ _____    ______ ____
ROOT
ATOM      1  O   UNL     1      36.674 -21.935 -15.007  0.00  0.00    -0.270 OA
ATOM      2  N   UNL     1      34.904 -23.458 -15.138  0.00  0.00    -0.270 N 
ATOM      3  C   UNL     1      35.700 -22.399 -15.617  0.00  0.00    +0.251 C 
ENDROOT
BRANCH   3   5
ATOM      4  N   UNL     1      36.106 -20.670 -18.900  0.00  0.00    -0.248 NA
ATOM      5  C   UNL     1      35.368 -21.788 -16.892  0.00  0.00    +0.072 C 
ATOM      6  C   UNL     1      34.057 -21.723 -17.340  0.00  0.00    +0.003 C 
ATOM      7  C   UNL     1      33.763 -21.130 -18.575  0.00  0.00    -0.004 C 
ATOM      8  C   UNL     1      36.347 -21.251 -17.702  0.00  0.00    +0.103 C 
ATOM      9  C   UNL     1      34.832 -20.608 -19.332  0.00  0.00    +0.060 C 
ATOM     10  C   UNL     1      32.445 -21.048 -19.057  0.00  0.00    +0.053 C 
ATOM     11  C   UNL     1      34.539 -20.018 -20.559  0.00  0.00    +0.071 C 
ATOM     12  C   UNL     1      32.181 -20.452 -20.287  0.00  0.00    -0.026 C 
ATOM     13  C   UNL     1      33.230 -19.937 -21.039  0.00  0.00    -0.024 C 
ENDBRANCH   3   5
BRANCH   2  14
ATOM     14  C   UNL     1      35.166 -24.111 -13.857  0.00  0.00    +0.099 C 
ATOM     15  C   UNL     1      34.822 -23.167 -12.706  0.00  0.00    +0.026 C 
BRANCH  14  17
ATOM     16  F   UNL     1      40.460 -26.041 -13.565  0.00  0.00    -0.204 F 
ATOM     17  C   UNL     1      36.586 -24.628 -13.779  0.00  0.00    -0.004 C 
ATOM     18  C   UNL     1      37.013 -25.629 -14.652  0.00  0.00    -0.000 C 
ATOM     19  C   UNL     1      37.469 -24.105 -12.833  0.00  0.00    -0.000 C 
ATOM     20  C   UNL     1      38.322 -26.106 -14.581  0.00  0.00    +0.029 C 
ATOM     21  C   UNL     1      38.777 -24.582 -12.761  0.00  0.00    +0.029 C 
ATOM     22  C   UNL     1      39.204 -25.583 -13.634  0.00  0.00    +0.140 C 
ENDBRANCH  14  17
ENDBRANCH   2  14
BRANCH   2  23
ATOM     23  C   UNL     1      33.767 -23.972 -15.887  0.00  0.00    +0.121 C 
BRANCH  23  24
ATOM     24  C   UNL     1      32.472 -23.772 -15.152  0.00  0.00    -0.002 C 
ATOM     25  C   UNL     1      31.429 -23.072 -15.757  0.00  0.00    +0.004 C 
ATOM     26  C   UNL     1      32.314 -24.288 -13.866  0.00  0.00    -0.003 C 
ATOM     27  C   UNL     1      30.226 -22.887 -15.074  0.00  0.00    +0.075 C 
ATOM     28  C   UNL     1      31.111 -24.104 -13.184  0.00  0.00    -0.000 C 
ATOM     29  C   UNL     1      30.067 -23.403 -13.788  0.00  0.00    +0.006 C 
BRANCH  27  31
ATOM     30  O   UNL     1      28.944 -22.071 -16.921  0.00  0.00    -0.245 OA
ATOM     31  C   UNL     1      29.137 -22.158 -15.704  0.00  0.00    +0.338 C 
BRANCH  31  32
ATOM     32  O   UNL     1      28.318 -21.558 -14.798  0.00  0.00    -0.477 OA
ATOM     33  H   UNL     1      27.729 -22.075 -14.284  0.00  0.00    +0.295 HD
ENDBRANCH  31  32
ENDBRANCH  27  31
ENDBRANCH  23  24
ENDBRANCH   2  23
TORSDOF 7
ENDMDL
MODEL 5
REMARK VINA RESULT:     -10.4      2.892      6.295
REMARK  Name = 60195662
REMARK  7 active torsions:
REMARK  status: ('A' for Active; 'I' for Inactive)
REMARK    1  A    between atoms: N_2  and  C_14
REMARK    2  A    between atoms: N_2  and  C_23
REMARK    3  A    between atoms: C_3  and  C_5
REMARK    4  A    between atoms: C_14  and  C_17
REMARK    5  A    between atoms: C_23  and  C_24
REMARK    6  A    between atoms: C_27  and  C_31
REMARK    7  A    between atoms: C_31  and  O_32
REMARK                            x       y       z     vdW  Elec       q    Type
REMARK                         _______ _______ _______ _____ _____    ______ ____
ROOT
ATOM      1  O   UNL     1      36.208 -21.838 -15.732  0.00  0.00    -0.270 OA
ATOM      2  N   UNL     1      34.316 -23.212 -15.762  0.00  0.00    -0.270 N 
ATOM      3  C   UNL     1      35.176 -22.230 -16.294  0.00  0.00    +0.251 C 
ENDROOT
BRANCH   3   5
ATOM      4  N   UNL     1      33.224 -21.238 -19.317  0.00  0.00    -0.248 NA
ATOM      5  C   UNL     1      34.844 -21.618 -17.568  0.00  0.00    +0.072 C 
ATOM      6  C   UNL     1      35.768 -20.849 -18.259  0.00  0.00    +0.003 C 
ATOM      7  C   UNL     1      35.423 -20.267 -19.487  0.00  0.00    -0.004 C 
ATOM      8  C   UNL     1      33.597 -21.782 -18.135  0.00  0.00    +0.103 C 
ATOM      9  C   UNL     1      34.123 -20.492 -19.985  0.00  0.00    +0.060 C 
ATOM     10  C   UNL     1      36.336 -19.482 -20.211  0.00  0.00    +0.053 C 
ATOM     11  C   UNL     1      33.782 -19.915 -21.206  0.00  0.00    +0.071 C 
ATOM     12  C   UNL     1      35.968 -18.917 -21.429  0.00  0.00    -0.026 C 
ATOM     13  C   UNL     1      34.688 -19.134 -21.927  0.00  0.00    -0.024 C 
ENDBRANCH   3   5
BRANCH   2  14
ATOM     14  C   UNL     1      34.576 -23.861 -14.478  0.00  0.00    +0.099 C 
ATOM     15  C   UNL     1      34.409 -22.859 -13.338  0.00  0.00    +0.026 C 
BRANCH  14  17
ATOM     16  F   UNL     1      39.627 -26.376 -14.425  0.00  0.00    -0.204 F 
ATOM     17  C   UNL     1      35.931 -24.536 -14.463  0.00  0.00    -0.004 C 
ATOM     18  C   UNL     1      37.034 -23.874 -13.925  0.00  0.00    -0.000 C 
ATOM     19  C   UNL     1      36.077 -25.820 -14.989  0.00  0.00    -0.000 C 
ATOM     20  C   UNL     1      38.283 -24.495 -13.911  0.00  0.00    +0.029 C 
ATOM     21  C   UNL     1      37.325 -26.442 -14.975  0.00  0.00    +0.029 C 
ATOM     22  C   UNL     1      38.429 -25.779 -14.437  0.00  0.00    +0.140 C 
ENDBRANCH  14  17
ENDBRANCH   2  14
BRANCH   2  23
ATOM     23  C   UNL     1      33.112 -23.644 -16.455  0.00  0.00    +0.121 C 
BRANCH  23  24
ATOM     24  C   UNL     1      31.865 -23.155 -15.774  0.00  0.00    -0.002 C 
ATOM     25  C   UNL     1      30.644 -23.194 -16.446  0.00  0.00    +0.004 C 
ATOM     26  C   UNL     1      31.929 -22.664 -14.470  0.00  0.00    -0.003 C 
ATOM     27  C   UNL     1      29.485 -22.741 -15.813  0.00  0.00    +0.075 C 
ATOM     28  C   UNL     1      30.771 -22.211 -13.838  0.00  0.00    -0.000 C 
ATOM     29  C   UNL     1      29.549 -22.250 -14.510  0.00  0.00    +0.006 C 
BRANCH  27  31
ATOM     30  O   UNL     1      27.609 -23.809 -16.844  0.00  0.00    -0.245 OA
ATOM     31  C   UNL     1      28.211 -22.782 -16.513  0.00  0.00    +0.338 C 
BRANCH  31  32
ATOM     32  O   UNL     1      27.723 -21.540 -16.779  0.00  0.00    -0.477 OA
ATOM     33  H   UNL     1      28.289 -20.794 -16.737  0.00  0.00    +0.295 HD
ENDBRANCH  31  32
ENDBRANCH  27  31
ENDBRANCH  23  24
ENDBRANCH   2  23
TORSDOF 7
ENDMDL
MODEL 6
REMARK VINA RESULT:     -10.4      2.379      6.115
REMARK  Name = 60195662
REMARK  7 active torsions:
REMARK  status: ('A' for Active; 'I' for Inactive)
REMARK    1  A    between atoms: N_2  and  C_14
REMARK    2  A    between atoms: N_2  and  C_23
REMARK    3  A    between atoms: C_3  and  C_5
REMARK    4  A    between atoms: C_14  and  C_17
REMARK    5  A    between atoms: C_23  and  C_24
REMARK    6  A    between atoms: C_27  and  C_31
REMARK    7  A    between atoms: C_31  and  O_32
REMARK                            x       y       z     vdW  Elec       q    Type
REMARK                         _______ _______ _______ _____ _____    ______ ____
ROOT
ATOM      1  O   UNL     1      33.591 -23.225 -18.343  0.00  0.00    -0.270 OA
ATOM      2  N   UNL     1      34.820 -22.137 -16.678  0.00  0.00    -0.270 N 
ATOM      3  C   UNL     1      33.731 -22.889 -17.158  0.00  0.00    +0.251 C 
ENDROOT
BRANCH   3   5
ATOM      4  N   UNL     1      32.078 -24.322 -14.133  0.00  0.00    -0.248 NA
ATOM      5  C   UNL     1      32.690 -23.294 -16.230  0.00  0.00    +0.072 C 
ATOM      6  C   UNL     1      31.350 -23.066 -16.507  0.00  0.00    +0.003 C 
ATOM      7  C   UNL     1      30.364 -23.466 -15.594  0.00  0.00    -0.004 C 
ATOM      8  C   UNL     1      32.998 -23.921 -15.040  0.00  0.00    +0.103 C 
ATOM      9  C   UNL     1      30.778 -24.099 -14.404  0.00  0.00    +0.060 C 
ATOM     10  C   UNL     1      28.998 -23.249 -15.846  0.00  0.00    +0.053 C 
ATOM     11  C   UNL     1      29.798 -24.497 -13.499  0.00  0.00    +0.071 C 
ATOM     12  C   UNL     1      28.039 -23.657 -14.922  0.00  0.00    -0.026 C 
ATOM     13  C   UNL     1      28.440 -24.282 -13.747  0.00  0.00    -0.024 C 
ENDBRANCH   3   5
BRANCH   2  14
ATOM     14  C   UNL     1      35.897 -21.681 -17.555  0.00  0.00    +0.099 C 
ATOM     15  C   UNL     1      36.924 -20.882 -16.754  0.00  0.00    +0.026 C 
BRANCH  14  17
ATOM     16  F   UNL     1      33.887 -18.805 -21.973  0.00  0.00    -0.204 F 
ATOM     17  C   UNL     1      35.358 -20.910 -18.740  0.00  0.00    -0.004 C 
ATOM     18  C   UNL     1      36.230 -20.198 -19.564  0.00  0.00    -0.000 C 
ATOM     19  C   UNL     1      33.989 -20.910 -19.008  0.00  0.00    -0.000 C 
ATOM     20  C   UNL     1      35.734 -19.487 -20.657  0.00  0.00    +0.029 C 
ATOM     21  C   UNL     1      33.492 -20.199 -20.101  0.00  0.00    +0.029 C 
ATOM     22  C   UNL     1      34.364 -19.487 -20.925  0.00  0.00    +0.140 C 
ENDBRANCH  14  17
ENDBRANCH   2  14
BRANCH   2  23
ATOM     23  C   UNL     1      34.946 -21.763 -15.277  0.00  0.00    +0.121 C 
BRANCH  23  24
ATOM     24  C   UNL     1      35.819 -22.720 -14.516  0.00  0.00    -0.002 C 
ATOM     25  C   UNL     1      36.053 -23.999 -15.019  0.00  0.00    +0.004 C 
ATOM     26  C   UNL     1      36.395 -22.328 -13.308  0.00  0.00    -0.003 C 
ATOM     27  C   UNL     1      36.865 -24.888 -14.312  0.00  0.00    +0.075 C 
ATOM     28  C   UNL     1      37.206 -23.216 -12.602  0.00  0.00    -0.000 C 
ATOM     29  C   UNL     1      37.441 -24.496 -13.104  0.00  0.00    +0.006 C 
BRANCH  27  31
ATOM     30  O   UNL     1      38.005 -26.986 -14.459  0.00  0.00    -0.245 OA
ATOM     31  C   UNL     1      37.111 -26.221 -14.837  0.00  0.00    +0.338 C 
BRANCH  31  32
ATOM     32  O   UNL     1      36.233 -26.565 -15.819  0.00  0.00    -0.477 OA
ATOM     33  H   UNL     1      36.026 -27.468 -15.967  0.00  0.00    +0.295 HD
ENDBRANCH  31  32
ENDBRANCH  27  31
ENDBRANCH  23  24
ENDBRANCH   2  23
TORSDOF 7
ENDMDL
MODEL 7
REMARK VINA RESULT:     -10.2      2.549      5.960
REMARK  Name = 60195662
REMARK  7 active torsions:
REMARK  status: ('A' for Active; 'I' for Inactive)
REMARK    1  A    between atoms: N_2  and  C_14
REMARK    2  A    between atoms: N_2  and  C_23
REMARK    3  A    between atoms: C_3  and  C_5
REMARK    4  A    between atoms: C_14  and  C_17
REMARK    5  A    between atoms: C_23  and  C_24
REMARK    6  A    between atoms: C_27  and  C_31
REMARK    7  A    between atoms: C_31  and  O_32
REMARK                            x       y       z     vdW  Elec       q    Type
REMARK                         _______ _______ _______ _____ _____    ______ ____
ROOT
ATOM      1  O   UNL     1      33.803 -23.028 -12.144  0.00  0.00    -0.270 OA
ATOM      2  N   UNL     1      32.835 -23.274 -14.259  0.00  0.00    -0.270 N 
ATOM      3  C   UNL     1      33.849 -23.471 -13.301  0.00  0.00    +0.251 C 
ENDROOT
BRANCH   3   5
ATOM      4  N   UNL     1      36.005 -26.133 -14.784  0.00  0.00    -0.248 NA
ATOM      5  C   UNL     1      35.035 -24.222 -13.674  0.00  0.00    +0.072 C 
ATOM      6  C   UNL     1      36.302 -23.794 -13.307  0.00  0.00    +0.003 C 
ATOM      7  C   UNL     1      37.431 -24.536 -13.679  0.00  0.00    -0.004 C 
ATOM      8  C   UNL     1      34.941 -25.388 -14.405  0.00  0.00    +0.103 C 
ATOM      9  C   UNL     1      37.234 -25.715 -14.427  0.00  0.00    +0.060 C 
ATOM     10  C   UNL     1      38.729 -24.129 -13.324  0.00  0.00    +0.053 C 
ATOM     11  C   UNL     1      38.356 -26.452 -14.796  0.00  0.00    +0.071 C 
ATOM     12  C   UNL     1      39.834 -24.886 -13.706  0.00  0.00    -0.026 C 
ATOM     13  C   UNL     1      39.646 -26.049 -14.443  0.00  0.00    -0.024 C 
ENDBRANCH   3   5
BRANCH   2  14
ATOM     14  C   UNL     1      31.621 -22.517 -13.962  0.00  0.00    +0.099 C 
ATOM     15  C   UNL     1      31.355 -22.518 -12.458  0.00  0.00    +0.026 C 
BRANCH  14  17
ATOM     16  F   UNL     1      27.219 -24.416 -16.938  0.00  0.00    -0.204 F 
ATOM     17  C   UNL     1      30.441 -23.026 -14.761  0.00  0.00    -0.004 C 
ATOM     18  C   UNL     1      29.924 -22.262 -15.807  0.00  0.00    -0.000 C 
ATOM     19  C   UNL     1      29.869 -24.261 -14.450  0.00  0.00    -0.000 C 
ATOM     20  C   UNL     1      28.836 -22.731 -16.543  0.00  0.00    +0.029 C 
ATOM     21  C   UNL     1      28.781 -24.730 -15.186  0.00  0.00    +0.029 C 
ATOM     22  C   UNL     1      28.264 -23.966 -16.232  0.00  0.00    +0.140 C 
ENDBRANCH  14  17
ENDBRANCH   2  14
BRANCH   2  23
ATOM     23  C   UNL     1      32.930 -23.811 -15.608  0.00  0.00    +0.121 C 
BRANCH  23  24
ATOM     24  C   UNL     1      33.698 -22.901 -16.523  0.00  0.00    -0.002 C 
ATOM     25  C   UNL     1      34.943 -22.410 -16.132  0.00  0.00    +0.004 C 
ATOM     26  C   UNL     1      33.167 -22.550 -17.764  0.00  0.00    -0.003 C 
ATOM     27  C   UNL     1      35.658 -21.565 -16.983  0.00  0.00    +0.075 C 
ATOM     28  C   UNL     1      33.882 -21.706 -18.614  0.00  0.00    -0.000 C 
ATOM     29  C   UNL     1      35.127 -21.213 -18.223  0.00  0.00    +0.006 C 
BRANCH  27  31
ATOM     30  O   UNL     1      37.819 -21.693 -15.966  0.00  0.00    -0.245 OA
ATOM     31  C   UNL     1      36.956 -21.052 -16.576  0.00  0.00    +0.338 C 
BRANCH  31  32
ATOM     32  O   UNL     1      37.142 -19.754 -16.941  0.00  0.00    -0.477 OA
ATOM     33  H   UNL     1      37.090 -19.510 -17.844  0.00  0.00    +0.295 HD
ENDBRANCH  31  32
ENDBRANCH  27  31
ENDBRANCH  23  24
ENDBRANCH   2  23
TORSDOF 7
ENDMDL
MODEL 8
REMARK VINA RESULT:     -10.2      1.693      2.429
REMARK  Name = 60195662
REMARK  7 active torsions:
REMARK  status: ('A' for Active; 'I' for Inactive)
REMARK    1  A    between atoms: N_2  and  C_14
REMARK    2  A    between atoms: N_2  and  C_23
REMARK    3  A    between atoms: C_3  and  C_5
REMARK    4  A    between atoms: C_14  and  C_17
REMARK    5  A    between atoms: C_23  and  C_24
REMARK    6  A    between atoms: C_27  and  C_31
REMARK    7  A    between atoms: C_31  and  O_32
REMARK                            x       y       z     vdW  Elec       q    Type
REMARK                         _______ _______ _______ _____ _____    ______ ____
ROOT
ATOM      1  O   UNL     1      32.332 -23.434 -17.263  0.00  0.00    -0.270 OA
ATOM      2  N   UNL     1      34.292 -22.824 -16.145  0.00  0.00    -0.270 N 
ATOM      3  C   UNL     1      33.348 -22.729 -17.185  0.00  0.00    +0.251 C 
ENDROOT
BRANCH   3   5
ATOM      4  N   UNL     1      32.641 -20.347 -19.972  0.00  0.00    -0.248 NA
ATOM      5  C   UNL     1      33.564 -21.764 -18.249  0.00  0.00    +0.072 C 
ATOM      6  C   UNL     1      34.840 -21.329 -18.576  0.00  0.00    +0.003 C 
ATOM      7  C   UNL     1      35.023 -20.396 -19.607  0.00  0.00    -0.004 C 
ATOM      8  C   UNL     1      32.508 -21.248 -18.971  0.00  0.00    +0.103 C 
ATOM      9  C   UNL     1      33.881 -19.926 -20.287  0.00  0.00    +0.060 C 
ATOM     10  C   UNL     1      36.302 -19.935 -19.962  0.00  0.00    +0.053 C 
ATOM     11  C   UNL     1      34.063 -19.001 -21.311  0.00  0.00    +0.071 C 
ATOM     12  C   UNL     1      36.455 -19.008 -20.991  0.00  0.00    -0.026 C 
ATOM     13  C   UNL     1      35.334 -18.541 -21.666  0.00  0.00    -0.024 C 
ENDBRANCH   3   5
BRANCH   2  14
ATOM     14  C   UNL     1      34.150 -23.781 -15.049  0.00  0.00    +0.099 C 
ATOM     15  C   UNL     1      34.410 -25.199 -15.553  0.00  0.00    +0.026 C 
BRANCH  14  17
ATOM     16  F   UNL     1      29.143 -23.273 -12.498  0.00  0.00    -0.204 F 
ATOM     17  C   UNL     1      32.807 -23.645 -14.366  0.00  0.00    -0.004 C 
ATOM     18  C   UNL     1      32.238 -22.383 -14.190  0.00  0.00    -0.000 C 
ATOM     19  C   UNL     1      32.138 -24.781 -13.910  0.00  0.00    -0.000 C 
ATOM     20  C   UNL     1      31.000 -22.257 -13.559  0.00  0.00    +0.029 C 
ATOM     21  C   UNL     1      30.900 -24.656 -13.279  0.00  0.00    +0.029 C 
ATOM     22  C   UNL     1      30.331 -23.394 -13.103  0.00  0.00    +0.140 C 
ENDBRANCH  14  17
ENDBRANCH   2  14
BRANCH   2  23
ATOM     23  C   UNL     1      35.474 -21.976 -16.092  0.00  0.00    +0.121 C 
BRANCH  23  24
ATOM     24  C   UNL     1      36.540 -22.551 -15.204  0.00  0.00    -0.002 C 
ATOM     25  C   UNL     1      36.342 -22.607 -13.825  0.00  0.00    +0.004 C 
ATOM     26  C   UNL     1      37.726 -23.030 -15.759  0.00  0.00    -0.003 C 
ATOM     27  C   UNL     1      37.332 -23.143 -12.999  0.00  0.00    +0.075 C 
ATOM     28  C   UNL     1      38.715 -23.566 -14.934  0.00  0.00    -0.000 C 
ATOM     29  C   UNL     1      38.518 -23.622 -13.554  0.00  0.00    +0.006 C 
BRANCH  27  31
ATOM     30  O   UNL     1      37.390 -24.170 -10.839  0.00  0.00    -0.245 OA
ATOM     31  C   UNL     1      37.126 -23.202 -11.561  0.00  0.00    +0.338 C 
BRANCH  31  32
ATOM     32  O   UNL     1      36.595 -22.052 -11.063  0.00  0.00    -0.477 OA
ATOM     33  H   UNL     1      36.287 -22.023 -10.178  0.00  0.00    +0.295 HD
ENDBRANCH  31  32
ENDBRANCH  27  31
ENDBRANCH  23  24
ENDBRANCH   2  23
TORSDOF 7
ENDMDL
MODEL 9
REMARK VINA RESULT:     -10.1      2.610      6.451
REMARK  Name = 60195662
REMARK  7 active torsions:
REMARK  status: ('A' for Active; 'I' for Inactive)
REMARK    1  A    between atoms: N_2  and  C_14
REMARK    2  A    between atoms: N_2  and  C_23
REMARK    3  A    between atoms: C_3  and  C_5
REMARK    4  A    between atoms: C_14  and  C_17
REMARK    5  A    between atoms: C_23  and  C_24
REMARK    6  A    between atoms: C_27  and  C_31
REMARK    7  A    between atoms: C_31  and  O_32
REMARK                            x       y       z     vdW  Elec       q    Type
REMARK                         _______ _______ _______ _____ _____    ______ ____
ROOT
ATOM      1  O   UNL     1      33.841 -22.999 -12.337  0.00  0.00    -0.270 OA
ATOM      2  N   UNL     1      32.955 -23.189 -14.492  0.00  0.00    -0.270 N 
ATOM      3  C   UNL     1      33.925 -23.424 -13.498  0.00  0.00    +0.251 C 
ENDROOT
BRANCH   3   5
ATOM      4  N   UNL     1      36.080 -26.127 -14.907  0.00  0.00    -0.248 NA
ATOM      5  C   UNL     1      35.109 -24.193 -13.836  0.00  0.00    +0.072 C 
ATOM      6  C   UNL     1      36.373 -23.780 -13.441  0.00  0.00    +0.003 C 
ATOM      7  C   UNL     1      37.501 -24.540 -13.780  0.00  0.00    -0.004 C 
ATOM      8  C   UNL     1      35.017 -25.364 -14.559  0.00  0.00    +0.103 C 
ATOM      9  C   UNL     1      37.305 -25.723 -14.523  0.00  0.00    +0.060 C 
ATOM     10  C   UNL     1      38.794 -24.148 -13.396  0.00  0.00    +0.053 C 
ATOM     11  C   UNL     1      38.426 -26.478 -14.858  0.00  0.00    +0.071 C 
ATOM     12  C   UNL     1      39.898 -24.923 -13.745  0.00  0.00    -0.026 C 
ATOM     13  C   UNL     1      39.713 -26.089 -14.477  0.00  0.00    -0.024 C 
ENDBRANCH   3   5
BRANCH   2  14
ATOM     14  C   UNL     1      31.746 -22.410 -14.232  0.00  0.00    +0.099 C 
ATOM     15  C   UNL     1      31.522 -22.275 -12.728  0.00  0.00    +0.026 C 
BRANCH  14  17
ATOM     16  F   UNL     1      27.277 -24.587 -16.902  0.00  0.00    -0.204 F 
ATOM     17  C   UNL     1      30.547 -22.994 -14.948  0.00  0.00    -0.004 C 
ATOM     18  C   UNL     1      30.102 -24.278 -14.631  0.00  0.00    -0.000 C 
ATOM     19  C   UNL     1      29.887 -22.248 -15.925  0.00  0.00    -0.000 C 
ATOM     20  C   UNL     1      28.997 -24.816 -15.291  0.00  0.00    +0.029 C 
ATOM     21  C   UNL     1      28.782 -22.786 -16.585  0.00  0.00    +0.029 C 
ATOM     22  C   UNL     1      28.337 -24.070 -16.268  0.00  0.00    +0.140 C 
ENDBRANCH  14  17
ENDBRANCH   2  14
BRANCH   2  23
ATOM     23  C   UNL     1      33.094 -23.706 -15.846  0.00  0.00    +0.121 C 
BRANCH  23  24
ATOM     24  C   UNL     1      33.828 -22.749 -16.741  0.00  0.00    -0.002 C 
ATOM     25  C   UNL     1      33.179 -22.183 -17.838  0.00  0.00    +0.004 C 
ATOM     26  C   UNL     1      35.158 -22.426 -16.475  0.00  0.00    -0.003 C 
ATOM     27  C   UNL     1      33.861 -21.293 -18.669  0.00  0.00    +0.075 C 
ATOM     28  C   UNL     1      35.840 -21.536 -17.305  0.00  0.00    -0.000 C 
ATOM     29  C   UNL     1      35.191 -20.970 -18.403  0.00  0.00    +0.006 C 
BRANCH  27  31
ATOM     30  O   UNL     1      33.669 -19.861 -20.576  0.00  0.00    -0.245 OA
ATOM     31  C   UNL     1      33.184 -20.702 -19.812  0.00  0.00    +0.338 C 
BRANCH  31  32
ATOM     32  O   UNL     1      31.919 -21.179 -19.972  0.00  0.00    -0.477 OA
ATOM     33  H   UNL     1      31.782 -22.040 -20.317  0.00  0.00    +0.295 HD
ENDBRANCH  31  32
ENDBRANCH  27  31
ENDBRANCH  23  24
ENDBRANCH   2  23
TORSDOF 7
ENDMDL
