MODEL 1
REMARK VINA RESULT:     -11.5      0.000      0.000
REMARK  Name = 5281607
REMARK  3 active torsions:
REMARK  status: ('A' for Active; 'I' for Inactive)
REMARK    1  A    between atoms: C_5  and  C_12
REMARK    2  A    between atoms: C_7  and  O_18
REMARK    3  A    between atoms: C_10  and  O_20
REMARK                            x       y       z     vdW  Elec       q    Type
REMARK                         _______ _______ _______ _____ _____    ______ ____
ROOT
ATOM      1  O   UNL     1      34.306 -17.260 -21.135  0.00  0.00    -0.453 OA
ATOM      2  O   UNL     1      33.586 -18.025 -25.071  0.00  0.00    -0.286 OA
ATOM      3  C   UNL     1      33.856 -16.412 -23.366  0.00  0.00    +0.107 C 
ATOM      4  C   UNL     1      34.108 -16.221 -22.009  0.00  0.00    +0.154 C 
ATOM      5  C   UNL     1      34.245 -18.556 -21.625  0.00  0.00    +0.148 C 
ATOM      6  C   UNL     1      33.800 -17.784 -23.891  0.00  0.00    +0.205 C 
ATOM      7  C   UNL     1      33.662 -15.316 -24.210  0.00  0.00    +0.143 C 
ATOM      8  C   UNL     1      34.017 -18.868 -22.911  0.00  0.00    +0.080 C 
ATOM      9  C   UNL     1      34.168 -14.929 -21.485  0.00  0.00    +0.074 C 
ATOM     10  C   UNL     1      33.974 -13.831 -22.325  0.00  0.00    +0.140 C 
ATOM     11  C   UNL     1      33.723 -14.025 -23.684  0.00  0.00    +0.073 C 
ENDROOT
BRANCH   5  12
ATOM     12  C   UNL     1      34.479 -19.596 -20.603  0.00  0.00    +0.035 C 
ATOM     13  C   UNL     1      35.777 -19.882 -20.177  0.00  0.00    +0.003 C 
ATOM     14  C   UNL     1      33.401 -20.299 -20.059  0.00  0.00    +0.003 C 
ATOM     15  C   UNL     1      35.997 -20.864 -19.211  0.00  0.00    +0.000 C 
ATOM     16  C   UNL     1      33.621 -21.281 -19.093  0.00  0.00    +0.000 C 
ATOM     17  C   UNL     1      34.919 -21.565 -18.669  0.00  0.00    +0.000 C 
ENDBRANCH   5  12
BRANCH   7  18
ATOM     18  O   UNL     1      33.413 -15.450 -25.542  0.00  0.00    -0.505 OA
ATOM     19  H   UNL     1      32.879 -14.821 -25.985  0.00  0.00    +0.292 HD
ENDBRANCH   7  18
BRANCH  10  20
ATOM     20  O   UNL     1      34.034 -12.569 -21.817  0.00  0.00    -0.505 OA
ATOM     21  H   UNL     1      33.986 -11.831 -22.391  0.00  0.00    +0.292 HD
ENDBRANCH  10  20
TORSDOF 3
ENDMDL
MODEL 2
REMARK VINA RESULT:     -11.3      2.856      7.150
REMARK  Name = 5281607
REMARK  3 active torsions:
REMARK  status: ('A' for Active; 'I' for Inactive)
REMARK    1  A    between atoms: C_5  and  C_12
REMARK    2  A    between atoms: C_7  and  O_18
REMARK    3  A    between atoms: C_10  and  O_20
REMARK                            x       y       z     vdW  Elec       q    Type
REMARK                         _______ _______ _______ _____ _____    ______ ____
ROOT
ATOM      1  O   UNL     1      33.147 -13.271 -21.905  0.00  0.00    -0.453 OA
ATOM      2  O   UNL     1      33.012 -14.489 -25.790  0.00  0.00    -0.286 OA
ATOM      3  C   UNL     1      33.644 -14.973 -23.565  0.00  0.00    +0.107 C 
ATOM      4  C   UNL     1      33.657 -14.496 -22.256  0.00  0.00    +0.154 C 
ATOM      5  C   UNL     1      32.602 -12.473 -22.898  0.00  0.00    +0.148 C 
ATOM      6  C   UNL     1      33.059 -14.133 -24.621  0.00  0.00    +0.205 C 
ATOM      7  C   UNL     1      34.178 -16.228 -23.865  0.00  0.00    +0.143 C 
ATOM      8  C   UNL     1      32.526 -12.823 -24.192  0.00  0.00    +0.080 C 
ATOM      9  C   UNL     1      34.204 -15.273 -21.235  0.00  0.00    +0.074 C 
ATOM     10  C   UNL     1      34.739 -16.528 -21.530  0.00  0.00    +0.140 C 
ATOM     11  C   UNL     1      34.725 -17.004 -22.843  0.00  0.00    +0.073 C 
ENDROOT
BRANCH   5  12
ATOM     12  C   UNL     1      32.077 -11.182 -22.412  0.00  0.00    +0.035 C 
ATOM     13  C   UNL     1      32.309 -10.011 -23.137  0.00  0.00    +0.003 C 
ATOM     14  C   UNL     1      31.347 -11.125 -21.222  0.00  0.00    +0.003 C 
ATOM     15  C   UNL     1      31.812  -8.791 -22.677  0.00  0.00    +0.000 C 
ATOM     16  C   UNL     1      30.850  -9.905 -20.761  0.00  0.00    +0.000 C 
ATOM     17  C   UNL     1      31.083  -8.738 -21.488  0.00  0.00    +0.000 C 
ENDBRANCH   5  12
BRANCH   7  18
ATOM     18  O   UNL     1      34.188 -16.739 -25.128  0.00  0.00    -0.505 OA
ATOM     19  H   UNL     1      33.450 -17.221 -25.444  0.00  0.00    +0.292 HD
ENDBRANCH   7  18
BRANCH  10  20
ATOM     20  O   UNL     1      35.273 -17.290 -20.536  0.00  0.00    -0.505 OA
ATOM     21  H   UNL     1      36.197 -17.276 -20.380  0.00  0.00    +0.292 HD
ENDBRANCH  10  20
TORSDOF 3
ENDMDL
MODEL 3
REMARK VINA RESULT:     -11.0      4.028      7.865
REMARK  Name = 5281607
REMARK  3 active torsions:
REMARK  status: ('A' for Active; 'I' for Inactive)
REMARK    1  A    between atoms: C_5  and  C_12
REMARK    2  A    between atoms: C_7  and  O_18
REMARK    3  A    between atoms: C_10  and  O_20
REMARK                            x       y       z     vdW  Elec       q    Type
REMARK                         _______ _______ _______ _____ _____    ______ ____
ROOT
ATOM      1  O   UNL     1      35.650 -20.677 -18.729  0.00  0.00    -0.453 OA
ATOM      2  O   UNL     1      32.025 -22.374 -17.970  0.00  0.00    -0.286 OA
ATOM      3  C   UNL     1      34.276 -22.090 -17.310  0.00  0.00    +0.107 C 
ATOM      4  C   UNL     1      35.487 -21.478 -17.627  0.00  0.00    +0.154 C 
ATOM      5  C   UNL     1      34.563 -20.474 -19.565  0.00  0.00    +0.148 C 
ATOM      6  C   UNL     1      33.118 -21.871 -18.189  0.00  0.00    +0.205 C 
ATOM      7  C   UNL     1      34.168 -22.897 -16.174  0.00  0.00    +0.143 C 
ATOM      8  C   UNL     1      33.345 -21.003 -19.363  0.00  0.00    +0.080 C 
ATOM      9  C   UNL     1      36.601 -21.669 -16.809  0.00  0.00    +0.074 C 
ATOM     10  C   UNL     1      36.497 -22.474 -15.674  0.00  0.00    +0.140 C 
ATOM     11  C   UNL     1      35.283 -23.086 -15.357  0.00  0.00    +0.073 C 
ENDROOT
BRANCH   5  12
ATOM     12  C   UNL     1      34.845 -19.592 -20.714  0.00  0.00    +0.035 C 
ATOM     13  C   UNL     1      33.888 -19.416 -21.716  0.00  0.00    +0.003 C 
ATOM     14  C   UNL     1      36.072 -18.929 -20.805  0.00  0.00    +0.003 C 
ATOM     15  C   UNL     1      34.155 -18.581 -22.802  0.00  0.00    +0.000 C 
ATOM     16  C   UNL     1      36.339 -18.094 -21.891  0.00  0.00    +0.000 C 
ATOM     17  C   UNL     1      35.381 -17.921 -22.890  0.00  0.00    +0.000 C 
ENDBRANCH   5  12
BRANCH   7  18
ATOM     18  O   UNL     1      33.007 -23.516 -15.821  0.00  0.00    -0.505 OA
ATOM     19  H   UNL     1      32.946 -24.450 -15.854  0.00  0.00    +0.292 HD
ENDBRANCH   7  18
BRANCH  10  20
ATOM     20  O   UNL     1      37.582 -22.661 -14.872  0.00  0.00    -0.505 OA
ATOM     21  H   UNL     1      38.414 -22.868 -15.250  0.00  0.00    +0.292 HD
ENDBRANCH  10  20
TORSDOF 3
ENDMDL
MODEL 4
REMARK VINA RESULT:     -10.6      1.445      2.507
REMARK  Name = 5281607
REMARK  3 active torsions:
REMARK  status: ('A' for Active; 'I' for Inactive)
REMARK    1  A    between atoms: C_5  and  C_12
REMARK    2  A    between atoms: C_7  and  O_18
REMARK    3  A    between atoms: C_10  and  O_20
REMARK                            x       y       z     vdW  Elec       q    Type
REMARK                         _______ _______ _______ _____ _____    ______ ____
ROOT
ATOM      1  O   UNL     1      33.924 -15.593 -21.529  0.00  0.00    -0.453 OA
ATOM      2  O   UNL     1      33.680 -15.353 -25.589  0.00  0.00    -0.286 OA
ATOM      3  C   UNL     1      33.323 -14.307 -23.500  0.00  0.00    +0.107 C 
ATOM      4  C   UNL     1      33.434 -14.455 -22.119  0.00  0.00    +0.154 C 
ATOM      5  C   UNL     1      34.317 -16.643 -22.345  0.00  0.00    +0.148 C 
ATOM      6  C   UNL     1      33.747 -15.415 -24.369  0.00  0.00    +0.205 C 
ATOM      7  C   UNL     1      32.818 -13.125 -24.046  0.00  0.00    +0.143 C 
ATOM      8  C   UNL     1      34.264 -16.619 -23.686  0.00  0.00    +0.080 C 
ATOM      9  C   UNL     1      33.041 -13.418 -21.272  0.00  0.00    +0.074 C 
ATOM     10  C   UNL     1      32.535 -12.236 -21.813  0.00  0.00    +0.140 C 
ATOM     11  C   UNL     1      32.425 -12.090 -23.197  0.00  0.00    +0.073 C 
ENDROOT
BRANCH   5  12
ATOM     12  C   UNL     1      34.833 -17.814 -21.609  0.00  0.00    +0.035 C 
ATOM     13  C   UNL     1      33.956 -18.807 -21.165  0.00  0.00    +0.003 C 
ATOM     14  C   UNL     1      36.201 -17.935 -21.354  0.00  0.00    +0.003 C 
ATOM     15  C   UNL     1      34.445 -19.914 -20.470  0.00  0.00    +0.000 C 
ATOM     16  C   UNL     1      36.690 -19.043 -20.659  0.00  0.00    +0.000 C 
ATOM     17  C   UNL     1      35.812 -20.032 -20.217  0.00  0.00    +0.000 C 
ENDBRANCH   5  12
BRANCH   7  18
ATOM     18  O   UNL     1      32.690 -12.932 -25.388  0.00  0.00    -0.505 OA
ATOM     19  H   UNL     1      33.175 -13.464 -25.986  0.00  0.00    +0.292 HD
ENDBRANCH   7  18
BRANCH  10  20
ATOM     20  O   UNL     1      32.151 -11.221 -20.989  0.00  0.00    -0.505 OA
ATOM     21  H   UNL     1      32.748 -10.528 -20.790  0.00  0.00    +0.292 HD
ENDBRANCH  10  20
TORSDOF 3
ENDMDL
MODEL 5
REMARK VINA RESULT:     -10.4      6.648     11.000
REMARK  Name = 5281607
REMARK  3 active torsions:
REMARK  status: ('A' for Active; 'I' for Inactive)
REMARK    1  A    between atoms: C_5  and  C_12
REMARK    2  A    between atoms: C_7  and  O_18
REMARK    3  A    between atoms: C_10  and  O_20
REMARK                            x       y       z     vdW  Elec       q    Type
REMARK                         _______ _______ _______ _____ _____    ______ ____
ROOT
ATOM      1  O   UNL     1      35.959 -23.325 -15.725  0.00  0.00    -0.453 OA
ATOM      2  O   UNL     1      33.107 -23.413 -12.817  0.00  0.00    -0.286 OA
ATOM      3  C   UNL     1      35.292 -24.010 -13.492  0.00  0.00    +0.107 C 
ATOM      4  C   UNL     1      36.222 -23.942 -14.528  0.00  0.00    +0.154 C 
ATOM      5  C   UNL     1      34.712 -22.751 -15.913  0.00  0.00    +0.148 C 
ATOM      6  C   UNL     1      33.970 -23.394 -13.684  0.00  0.00    +0.205 C 
ATOM      7  C   UNL     1      35.614 -24.651 -12.294  0.00  0.00    +0.143 C 
ATOM      8  C   UNL     1      33.736 -22.745 -14.990  0.00  0.00    +0.080 C 
ATOM      9  C   UNL     1      37.484 -24.516 -14.371  0.00  0.00    +0.074 C 
ATOM     10  C   UNL     1      37.810 -25.158 -13.176  0.00  0.00    +0.140 C 
ATOM     11  C   UNL     1      36.877 -25.224 -12.139  0.00  0.00    +0.073 C 
ENDROOT
BRANCH   5  12
ATOM     12  C   UNL     1      34.538 -22.110 -17.231  0.00  0.00    +0.035 C 
ATOM     13  C   UNL     1      33.288 -22.113 -17.854  0.00  0.00    +0.003 C 
ATOM     14  C   UNL     1      35.624 -21.497 -17.861  0.00  0.00    +0.003 C 
ATOM     15  C   UNL     1      33.124 -21.506 -19.100  0.00  0.00    +0.000 C 
ATOM     16  C   UNL     1      35.460 -20.889 -19.107  0.00  0.00    +0.000 C 
ATOM     17  C   UNL     1      34.210 -20.894 -19.726  0.00  0.00    +0.000 C 
ENDBRANCH   5  12
BRANCH   7  18
ATOM     18  O   UNL     1      34.741 -24.743 -11.253  0.00  0.00    -0.505 OA
ATOM     19  H   UNL     1      34.591 -24.002 -10.700  0.00  0.00    +0.292 HD
ENDBRANCH   7  18
BRANCH  10  20
ATOM     20  O   UNL     1      39.041 -25.719 -13.019  0.00  0.00    -0.505 OA
ATOM     21  H   UNL     1      39.456 -25.710 -12.180  0.00  0.00    +0.292 HD
ENDBRANCH  10  20
TORSDOF 3
ENDMDL
MODEL 6
REMARK VINA RESULT:     -10.4      6.650     10.946
REMARK  Name = 5281607
REMARK  3 active torsions:
REMARK  status: ('A' for Active; 'I' for Inactive)
REMARK    1  A    between atoms: C_5  and  C_12
REMARK    2  A    between atoms: C_7  and  O_18
REMARK    3  A    between atoms: C_10  and  O_20
REMARK                            x       y       z     vdW  Elec       q    Type
REMARK                         _______ _______ _______ _____ _____    ______ ____
ROOT
ATOM      1  O   UNL     1      35.960 -23.325 -15.721  0.00  0.00    -0.453 OA
ATOM      2  O   UNL     1      33.106 -23.411 -12.814  0.00  0.00    -0.286 OA
ATOM      3  C   UNL     1      35.291 -24.009 -13.488  0.00  0.00    +0.107 C 
ATOM      4  C   UNL     1      36.221 -23.943 -14.524  0.00  0.00    +0.154 C 
ATOM      5  C   UNL     1      34.713 -22.751 -15.909  0.00  0.00    +0.148 C 
ATOM      6  C   UNL     1      33.970 -23.393 -13.681  0.00  0.00    +0.205 C 
ATOM      7  C   UNL     1      35.612 -24.651 -12.290  0.00  0.00    +0.143 C 
ATOM      8  C   UNL     1      33.737 -22.744 -14.987  0.00  0.00    +0.080 C 
ATOM      9  C   UNL     1      37.482 -24.518 -14.366  0.00  0.00    +0.074 C 
ATOM     10  C   UNL     1      37.807 -25.160 -13.171  0.00  0.00    +0.140 C 
ATOM     11  C   UNL     1      36.874 -25.225 -12.135  0.00  0.00    +0.073 C 
ENDROOT
BRANCH   5  12
ATOM     12  C   UNL     1      34.540 -22.109 -17.228  0.00  0.00    +0.035 C 
ATOM     13  C   UNL     1      35.625 -21.496 -17.858  0.00  0.00    +0.003 C 
ATOM     14  C   UNL     1      33.289 -22.112 -17.851  0.00  0.00    +0.003 C 
ATOM     15  C   UNL     1      35.461 -20.890 -19.104  0.00  0.00    +0.000 C 
ATOM     16  C   UNL     1      33.125 -21.507 -19.097  0.00  0.00    +0.000 C 
ATOM     17  C   UNL     1      34.211 -20.895 -19.724  0.00  0.00    +0.000 C 
ENDBRANCH   5  12
BRANCH   7  18
ATOM     18  O   UNL     1      34.738 -24.742 -11.249  0.00  0.00    -0.505 OA
ATOM     19  H   UNL     1      34.881 -24.240 -10.472  0.00  0.00    +0.292 HD
ENDBRANCH   7  18
BRANCH  10  20
ATOM     20  O   UNL     1      39.038 -25.722 -13.013  0.00  0.00    -0.505 OA
ATOM     21  H   UNL     1      39.391 -26.270 -13.685  0.00  0.00    +0.292 HD
ENDBRANCH  10  20
TORSDOF 3
ENDMDL
MODEL 7
REMARK VINA RESULT:     -10.2      5.828      9.877
REMARK  Name = 5281607
REMARK  3 active torsions:
REMARK  status: ('A' for Active; 'I' for Inactive)
REMARK    1  A    between atoms: C_5  and  C_12
REMARK    2  A    between atoms: C_7  and  O_18
REMARK    3  A    between atoms: C_10  and  O_20
REMARK                            x       y       z     vdW  Elec       q    Type
REMARK                         _______ _______ _______ _____ _____    ______ ____
ROOT
ATOM      1  O   UNL     1      31.752 -22.414 -17.039  0.00  0.00    -0.453 OA
ATOM      2  O   UNL     1      34.158 -23.939 -14.126  0.00  0.00    -0.286 OA
ATOM      3  C   UNL     1      31.963 -23.621 -14.942  0.00  0.00    +0.107 C 
ATOM      4  C   UNL     1      31.199 -23.076 -15.972  0.00  0.00    +0.154 C 
ATOM      5  C   UNL     1      33.131 -22.276 -17.088  0.00  0.00    +0.148 C 
ATOM      6  C   UNL     1      33.426 -23.484 -14.994  0.00  0.00    +0.205 C 
ATOM      7  C   UNL     1      31.346 -24.285 -13.879  0.00  0.00    +0.143 C 
ATOM      8  C   UNL     1      33.972 -22.761 -16.161  0.00  0.00    +0.080 C 
ATOM      9  C   UNL     1      29.809 -23.194 -15.947  0.00  0.00    +0.074 C 
ATOM     10  C   UNL     1      29.188 -23.856 -14.887  0.00  0.00    +0.140 C 
ATOM     11  C   UNL     1      29.956 -24.401 -13.856  0.00  0.00    +0.073 C 
ENDROOT
BRANCH   5  12
ATOM     12  C   UNL     1      33.620 -21.555 -18.280  0.00  0.00    +0.035 C 
ATOM     13  C   UNL     1      32.720 -20.896 -19.121  0.00  0.00    +0.003 C 
ATOM     14  C   UNL     1      34.986 -21.529 -18.572  0.00  0.00    +0.003 C 
ATOM     15  C   UNL     1      33.184 -20.214 -20.246  0.00  0.00    +0.000 C 
ATOM     16  C   UNL     1      35.450 -20.847 -19.698  0.00  0.00    +0.000 C 
ATOM     17  C   UNL     1      34.549 -20.190 -20.535  0.00  0.00    +0.000 C 
ENDBRANCH   5  12
BRANCH   7  18
ATOM     18  O   UNL     1      32.048 -24.834 -12.849  0.00  0.00    -0.505 OA
ATOM     19  H   UNL     1      32.176 -24.348 -12.059  0.00  0.00    +0.292 HD
ENDBRANCH   7  18
BRANCH  10  20
ATOM     20  O   UNL     1      27.832 -23.973 -14.861  0.00  0.00    -0.505 OA
ATOM     21  H   UNL     1      27.313 -23.315 -14.441  0.00  0.00    +0.292 HD
ENDBRANCH  10  20
TORSDOF 3
ENDMDL
MODEL 8
REMARK VINA RESULT:     -10.1      5.405      9.537
REMARK  Name = 5281607
REMARK  3 active torsions:
REMARK  status: ('A' for Active; 'I' for Inactive)
REMARK    1  A    between atoms: C_5  and  C_12
REMARK    2  A    between atoms: C_7  and  O_18
REMARK    3  A    between atoms: C_10  and  O_20
REMARK                            x       y       z     vdW  Elec       q    Type
REMARK                         _______ _______ _______ _____ _____    ______ ____
ROOT
ATOM      1  O   UNL     1      34.113 -22.192 -16.735  0.00  0.00    -0.453 OA
ATOM      2  O   UNL     1      38.038 -22.400 -15.663  0.00  0.00    -0.286 OA
ATOM      3  C   UNL     1      35.793 -22.919 -15.138  0.00  0.00    +0.107 C 
ATOM      4  C   UNL     1      34.470 -22.813 -15.565  0.00  0.00    +0.154 C 
ATOM      5  C   UNL     1      35.112 -21.640 -17.522  0.00  0.00    +0.148 C 
ATOM      6  C   UNL     1      36.856 -22.342 -15.974  0.00  0.00    +0.205 C 
ATOM      7  C   UNL     1      36.099 -23.562 -13.937  0.00  0.00    +0.143 C 
ATOM      8  C   UNL     1      36.420 -21.683 -17.222  0.00  0.00    +0.080 C 
ATOM      9  C   UNL     1      33.443 -23.353 -14.792  0.00  0.00    +0.074 C 
ATOM     10  C   UNL     1      33.743 -23.997 -13.590  0.00  0.00    +0.140 C 
ATOM     11  C   UNL     1      35.069 -24.101 -13.165  0.00  0.00    +0.073 C 
ENDROOT
BRANCH   5  12
ATOM     12  C   UNL     1      34.619 -21.004 -18.759  0.00  0.00    +0.035 C 
ATOM     13  C   UNL     1      33.253 -20.992 -19.047  0.00  0.00    +0.003 C 
ATOM     14  C   UNL     1      35.519 -20.410 -19.649  0.00  0.00    +0.003 C 
ATOM     15  C   UNL     1      32.788 -20.390 -20.217  0.00  0.00    +0.000 C 
ATOM     16  C   UNL     1      35.054 -19.808 -20.818  0.00  0.00    +0.000 C 
ATOM     17  C   UNL     1      33.689 -19.798 -21.103  0.00  0.00    +0.000 C 
ENDBRANCH   5  12
BRANCH   7  18
ATOM     18  O   UNL     1      37.374 -23.691 -13.477  0.00  0.00    -0.505 OA
ATOM     19  H   UNL     1      38.093 -23.662 -14.077  0.00  0.00    +0.292 HD
ENDBRANCH   7  18
BRANCH  10  20
ATOM     20  O   UNL     1      32.742 -24.526 -12.834  0.00  0.00    -0.505 OA
ATOM     21  H   UNL     1      32.843 -25.376 -12.452  0.00  0.00    +0.292 HD
ENDBRANCH  10  20
TORSDOF 3
ENDMDL
MODEL 9
REMARK VINA RESULT:     -10.0      4.521      7.659
REMARK  Name = 5281607
REMARK  3 active torsions:
REMARK  status: ('A' for Active; 'I' for Inactive)
REMARK    1  A    between atoms: C_5  and  C_12
REMARK    2  A    between atoms: C_7  and  O_18
REMARK    3  A    between atoms: C_10  and  O_20
REMARK                            x       y       z     vdW  Elec       q    Type
REMARK                         _______ _______ _______ _____ _____    ______ ____
ROOT
ATOM      1  O   UNL     1      31.559 -21.825 -17.925  0.00  0.00    -0.453 OA
ATOM      2  O   UNL     1      35.219 -22.765 -16.401  0.00  0.00    -0.286 OA
ATOM      3  C   UNL     1      33.978 -21.682 -18.096  0.00  0.00    +0.107 C 
ATOM      4  C   UNL     1      32.696 -21.395 -18.562  0.00  0.00    +0.154 C 
ATOM      5  C   UNL     1      31.694 -22.583 -16.773  0.00  0.00    +0.148 C 
ATOM      6  C   UNL     1      34.125 -22.478 -16.869  0.00  0.00    +0.205 C 
ATOM      7  C   UNL     1      35.101 -21.218 -18.785  0.00  0.00    +0.143 C 
ATOM      8  C   UNL     1      32.872 -22.919 -16.222  0.00  0.00    +0.080 C 
ATOM      9  C   UNL     1      32.529 -20.640 -19.723  0.00  0.00    +0.074 C 
ATOM     10  C   UNL     1      33.648 -20.175 -20.415  0.00  0.00    +0.140 C 
ATOM     11  C   UNL     1      34.931 -20.463 -19.946  0.00  0.00    +0.073 C 
ENDROOT
BRANCH   5  12
ATOM     12  C   UNL     1      30.410 -22.986 -16.166  0.00  0.00    +0.035 C 
ATOM     13  C   UNL     1      29.243 -22.277 -16.455  0.00  0.00    +0.003 C 
ATOM     14  C   UNL     1      30.358 -24.081 -15.298  0.00  0.00    +0.003 C 
ATOM     15  C   UNL     1      28.030 -22.659 -15.881  0.00  0.00    +0.000 C 
ATOM     16  C   UNL     1      29.145 -24.463 -14.725  0.00  0.00    +0.000 C 
ATOM     17  C   UNL     1      27.981 -23.752 -15.016  0.00  0.00    +0.000 C 
ENDBRANCH   5  12
BRANCH   7  18
ATOM     18  O   UNL     1      36.373 -21.471 -18.370  0.00  0.00    -0.505 OA
ATOM     19  H   UNL     1      36.526 -21.816 -17.513  0.00  0.00    +0.292 HD
ENDBRANCH   7  18
BRANCH  10  20
ATOM     20  O   UNL     1      33.488 -19.437 -21.548  0.00  0.00    -0.505 OA
ATOM     21  H   UNL     1      33.596 -19.838 -22.388  0.00  0.00    +0.292 HD
ENDBRANCH  10  20
TORSDOF 3
ENDMDL
