MODEL 1
REMARK VINA RESULT:     -12.1      0.000      0.000
REMARK  Name = 213040
REMARK  9 active torsions:
REMARK  status: ('A' for Active; 'I' for Inactive)
REMARK    1  A    between atoms: N_2  and  C_10
REMARK    2  A    between atoms: C_8  and  C_26
REMARK    3  A    between atoms: C_10  and  C_11
REMARK    4  A    between atoms: C_11  and  O_12
REMARK    5  A    between atoms: C_11  and  C_14
REMARK    6  A    between atoms: C_14  and  O_15
REMARK    7  A    between atoms: O_15  and  C_17
REMARK    8  A    between atoms: C_26  and  C_27
REMARK    9  A    between atoms: C_26  and  C_33
REMARK                            x       y       z     vdW  Elec       q    Type
REMARK                         _______ _______ _______ _____ _____    ______ ____
ROOT
ATOM      1  O   UNL     1      32.333 -23.379 -17.264  0.00  0.00    -0.274 OA
ATOM      2  N   UNL     1      35.894 -20.589 -19.372  0.00  0.00    +0.391 N 
ATOM      3  N   UNL     1      34.350 -22.303 -17.673  0.00  0.00    -0.283 N 
ATOM      4  C   UNL     1      34.553 -21.031 -19.780  0.00  0.00    -0.055 C 
ATOM      5  C   UNL     1      35.968 -20.450 -17.910  0.00  0.00    -0.055 C 
ATOM      6  C   UNL     1      34.201 -22.367 -19.127  0.00  0.00    +0.071 C 
ATOM      7  C   UNL     1      35.639 -21.775 -17.218  0.00  0.00    +0.071 C 
ATOM      8  C   UNL     1      33.361 -22.838 -16.850  0.00  0.00    +0.233 C 
ATOM      9  H   UNL     1      36.569 -21.296 -19.663  0.00  0.00    -0.079 HD
ENDROOT
BRANCH   2  10
ATOM     10  C   UNL     1      36.240 -19.327 -20.025  0.00  0.00    -0.043 C 
BRANCH  10  11
ATOM     11  C   UNL     1      35.270 -18.980 -21.156  0.00  0.00    +0.133 C 
BRANCH  11  12
ATOM     12  O   UNL     1      34.018 -18.607 -20.571  0.00  0.00    -0.383 OA
ATOM     13  H   UNL     1      33.380 -18.408 -21.274  0.00  0.00    +0.210 HD
ENDBRANCH  11  12
BRANCH  11  14
ATOM     14  C   UNL     1      35.755 -17.831 -22.037  0.00  0.00    +0.232 C 
BRANCH  14  15
ATOM     15  O   UNL     1      35.129 -16.626 -21.611  0.00  0.00    -0.473 OA
BRANCH  15  17
ATOM     16  N   UNL     1      32.438 -12.856 -22.976  0.00  0.00    -0.244 NA
ATOM     17  C   UNL     1      34.454 -15.911 -22.563  0.00  0.00    +0.140 C 
ATOM     18  C   UNL     1      33.781 -14.719 -22.246  0.00  0.00    +0.052 C 
ATOM     19  C   UNL     1      34.451 -16.396 -23.868  0.00  0.00    +0.037 C 
ATOM     20  C   UNL     1      33.092 -14.002 -23.247  0.00  0.00    +0.084 C 
ATOM     21  C   UNL     1      33.775 -15.694 -24.858  0.00  0.00    +0.005 C 
ATOM     22  C   UNL     1      33.769 -14.209 -20.941  0.00  0.00    +0.006 C 
ATOM     23  C   UNL     1      33.105 -14.510 -24.543  0.00  0.00    +0.019 C 
ATOM     24  C   UNL     1      33.094 -13.030 -20.660  0.00  0.00    +0.021 C 
ATOM     25  C   UNL     1      32.450 -12.397 -21.705  0.00  0.00    +0.099 C 
ENDBRANCH  15  17
ENDBRANCH  14  15
ENDBRANCH  11  14
ENDBRANCH  10  11
ENDBRANCH   2  10
BRANCH   8  26
ATOM     26  C   UNL     1      33.588 -22.727 -15.363  0.00  0.00    +0.121 C 
BRANCH  26  27
ATOM     27  C   UNL     1      32.344 -23.077 -14.573  0.00  0.00    -0.010 C 
ATOM     28  C   UNL     1      31.240 -22.224 -14.596  0.00  0.00    -0.003 C 
ATOM     29  C   UNL     1      32.301 -24.253 -13.824  0.00  0.00    -0.003 C 
ATOM     30  C   UNL     1      30.095 -22.547 -13.869  0.00  0.00    -0.000 C 
ATOM     31  C   UNL     1      31.156 -24.576 -13.097  0.00  0.00    -0.000 C 
ATOM     32  C   UNL     1      30.052 -23.722 -13.119  0.00  0.00    -0.000 C 
ENDBRANCH  26  27
BRANCH  26  33
ATOM     33  C   UNL     1      34.823 -23.477 -14.904  0.00  0.00    -0.010 C 
ATOM     34  C   UNL     1      35.769 -22.840 -14.102  0.00  0.00    -0.003 C 
ATOM     35  C   UNL     1      35.012 -24.807 -15.282  0.00  0.00    -0.003 C 
ATOM     36  C   UNL     1      36.904 -23.530 -13.678  0.00  0.00    -0.000 C 
ATOM     37  C   UNL     1      36.147 -25.498 -14.858  0.00  0.00    -0.000 C 
ATOM     38  C   UNL     1      37.093 -24.859 -14.056  0.00  0.00    -0.000 C 
ENDBRANCH  26  33
ENDBRANCH   8  26
TORSDOF 9
ENDMDL
MODEL 2
REMARK VINA RESULT:     -11.6      0.568      1.658
REMARK  Name = 213040
REMARK  9 active torsions:
REMARK  status: ('A' for Active; 'I' for Inactive)
REMARK    1  A    between atoms: N_2  and  C_10
REMARK    2  A    between atoms: C_8  and  C_26
REMARK    3  A    between atoms: C_10  and  C_11
REMARK    4  A    between atoms: C_11  and  O_12
REMARK    5  A    between atoms: C_11  and  C_14
REMARK    6  A    between atoms: C_14  and  O_15
REMARK    7  A    between atoms: O_15  and  C_17
REMARK    8  A    between atoms: C_26  and  C_27
REMARK    9  A    between atoms: C_26  and  C_33
REMARK                            x       y       z     vdW  Elec       q    Type
REMARK                         _______ _______ _______ _____ _____    ______ ____
ROOT
ATOM      1  O   UNL     1      32.472 -23.325 -17.303  0.00  0.00    -0.274 OA
ATOM      2  N   UNL     1      35.977 -20.484 -19.438  0.00  0.00    +0.391 N 
ATOM      3  N   UNL     1      34.476 -22.233 -17.737  0.00  0.00    -0.283 N 
ATOM      4  C   UNL     1      34.628 -20.925 -19.826  0.00  0.00    -0.055 C 
ATOM      5  C   UNL     1      36.080 -20.369 -17.976  0.00  0.00    -0.055 C 
ATOM      6  C   UNL     1      34.296 -22.274 -19.188  0.00  0.00    +0.071 C 
ATOM      7  C   UNL     1      35.771 -21.706 -17.300  0.00  0.00    +0.071 C 
ATOM      8  C   UNL     1      33.506 -22.786 -16.902  0.00  0.00    +0.233 C 
ATOM      9  H   UNL     1      36.648 -21.183 -19.756  0.00  0.00    -0.079 HD
ENDROOT
BRANCH   2  10
ATOM     10  C   UNL     1      36.303 -19.210 -20.078  0.00  0.00    -0.043 C 
BRANCH  10  11
ATOM     11  C   UNL     1      35.324 -18.862 -21.202  0.00  0.00    +0.133 C 
BRANCH  11  12
ATOM     12  O   UNL     1      34.027 -18.686 -20.625  0.00  0.00    -0.383 OA
ATOM     13  H   UNL     1      33.733 -17.773 -20.764  0.00  0.00    +0.210 HD
ENDBRANCH  11  12
BRANCH  11  14
ATOM     14  C   UNL     1      35.697 -17.588 -21.956  0.00  0.00    +0.232 C 
BRANCH  14  15
ATOM     15  O   UNL     1      34.538 -17.083 -22.610  0.00  0.00    -0.473 OA
BRANCH  15  17
ATOM     16  N   UNL     1      32.881 -12.729 -23.880  0.00  0.00    -0.244 NA
ATOM     17  C   UNL     1      34.168 -15.800 -22.307  0.00  0.00    +0.140 C 
ATOM     18  C   UNL     1      33.705 -14.917 -23.296  0.00  0.00    +0.052 C 
ATOM     19  C   UNL     1      34.261 -15.387 -20.980  0.00  0.00    +0.037 C 
ATOM     20  C   UNL     1      33.330 -13.600 -22.956  0.00  0.00    +0.084 C 
ATOM     21  C   UNL     1      33.893 -14.092 -20.639  0.00  0.00    +0.005 C 
ATOM     22  C   UNL     1      33.601 -15.308 -24.638  0.00  0.00    +0.006 C 
ATOM     23  C   UNL     1      33.433 -13.213 -21.623  0.00  0.00    +0.019 C 
ATOM     24  C   UNL     1      33.141 -14.412 -25.591  0.00  0.00    +0.021 C 
ATOM     25  C   UNL     1      32.796 -13.145 -25.163  0.00  0.00    +0.099 C 
ENDBRANCH  15  17
ENDBRANCH  14  15
ENDBRANCH  11  14
ENDBRANCH  10  11
ENDBRANCH   2  10
BRANCH   8  26
ATOM     26  C   UNL     1      33.764 -22.698 -15.419  0.00  0.00    +0.121 C 
BRANCH  26  27
ATOM     27  C   UNL     1      32.527 -23.028 -14.609  0.00  0.00    -0.010 C 
ATOM     28  C   UNL     1      31.447 -22.145 -14.593  0.00  0.00    -0.003 C 
ATOM     29  C   UNL     1      32.466 -24.216 -13.880  0.00  0.00    -0.003 C 
ATOM     30  C   UNL     1      30.308 -22.449 -13.848  0.00  0.00    -0.000 C 
ATOM     31  C   UNL     1      31.327 -24.521 -13.135  0.00  0.00    -0.000 C 
ATOM     32  C   UNL     1      30.248 -23.636 -13.119  0.00  0.00    -0.000 C 
ENDBRANCH  26  27
BRANCH  26  33
ATOM     33  C   UNL     1      34.989 -23.483 -14.991  0.00  0.00    -0.010 C 
ATOM     34  C   UNL     1      36.011 -22.852 -14.284  0.00  0.00    -0.003 C 
ATOM     35  C   UNL     1      35.092 -24.839 -15.305  0.00  0.00    -0.003 C 
ATOM     36  C   UNL     1      37.137 -23.574 -13.890  0.00  0.00    -0.000 C 
ATOM     37  C   UNL     1      36.218 -25.562 -14.911  0.00  0.00    -0.000 C 
ATOM     38  C   UNL     1      37.240 -24.929 -14.203  0.00  0.00    -0.000 C 
ENDBRANCH  26  33
ENDBRANCH   8  26
TORSDOF 9
ENDMDL
MODEL 3
REMARK VINA RESULT:     -11.3      1.409      3.384
REMARK  Name = 213040
REMARK  9 active torsions:
REMARK  status: ('A' for Active; 'I' for Inactive)
REMARK    1  A    between atoms: N_2  and  C_10
REMARK    2  A    between atoms: C_8  and  C_26
REMARK    3  A    between atoms: C_10  and  C_11
REMARK    4  A    between atoms: C_11  and  O_12
REMARK    5  A    between atoms: C_11  and  C_14
REMARK    6  A    between atoms: C_14  and  O_15
REMARK    7  A    between atoms: O_15  and  C_17
REMARK    8  A    between atoms: C_26  and  C_27
REMARK    9  A    between atoms: C_26  and  C_33
REMARK                            x       y       z     vdW  Elec       q    Type
REMARK                         _______ _______ _______ _____ _____    ______ ____
ROOT
ATOM      1  O   UNL     1      36.950 -22.187 -14.846  0.00  0.00    -0.274 OA
ATOM      2  N   UNL     1      35.655 -20.125 -19.204  0.00  0.00    +0.391 N 
ATOM      3  N   UNL     1      35.721 -21.515 -16.699  0.00  0.00    -0.283 N 
ATOM      4  C   UNL     1      36.857 -20.082 -18.359  0.00  0.00    -0.055 C 
ATOM      5  C   UNL     1      34.963 -21.413 -19.049  0.00  0.00    -0.055 C 
ATOM      6  C   UNL     1      36.493 -20.288 -16.888  0.00  0.00    +0.071 C 
ATOM      7  C   UNL     1      34.565 -21.648 -17.591  0.00  0.00    +0.071 C 
ATOM      8  C   UNL     1      36.037 -22.380 -15.653  0.00  0.00    +0.233 C 
ATOM      9  H   UNL     1      35.024 -19.381 -18.903  0.00  0.00    -0.079 HD
ENDROOT
BRANCH   2  10
ATOM     10  C   UNL     1      36.004 -19.894 -20.605  0.00  0.00    -0.043 C 
BRANCH  10  11
ATOM     11  C   UNL     1      36.145 -18.404 -20.925  0.00  0.00    +0.133 C 
BRANCH  11  12
ATOM     12  O   UNL     1      37.255 -18.242 -21.812  0.00  0.00    -0.383 OA
ATOM     13  H   UNL     1      37.327 -17.310 -22.073  0.00  0.00    +0.210 HD
ENDBRANCH  11  12
BRANCH  11  14
ATOM     14  C   UNL     1      34.904 -17.808 -21.586  0.00  0.00    +0.232 C 
BRANCH  14  15
ATOM     15  O   UNL     1      34.959 -16.390 -21.478  0.00  0.00    -0.473 OA
BRANCH  15  17
ATOM     16  N   UNL     1      32.230 -12.686 -22.943  0.00  0.00    -0.244 NA
ATOM     17  C   UNL     1      34.332 -15.671 -22.460  0.00  0.00    +0.140 C 
ATOM     18  C   UNL     1      33.587 -14.518 -22.162  0.00  0.00    +0.052 C 
ATOM     19  C   UNL     1      34.452 -16.113 -23.774  0.00  0.00    +0.037 C 
ATOM     20  C   UNL     1      32.951 -13.795 -23.194  0.00  0.00    +0.084 C 
ATOM     21  C   UNL     1      33.828 -15.406 -24.795  0.00  0.00    +0.005 C 
ATOM     22  C   UNL     1      33.451 -14.051 -20.848  0.00  0.00    +0.006 C 
ATOM     23  C   UNL     1      33.087 -14.260 -24.499  0.00  0.00    +0.019 C 
ATOM     24  C   UNL     1      32.708 -12.909 -20.587  0.00  0.00    +0.021 C 
ATOM     25  C   UNL     1      32.123 -12.269 -21.661  0.00  0.00    +0.099 C 
ENDBRANCH  15  17
ENDBRANCH  14  15
ENDBRANCH  11  14
ENDBRANCH  10  11
ENDBRANCH   2  10
BRANCH   8  26
ATOM     26  C   UNL     1      35.196 -23.626 -15.531  0.00  0.00    +0.121 C 
BRANCH  26  27
ATOM     27  C   UNL     1      35.803 -24.626 -14.568  0.00  0.00    -0.010 C 
ATOM     28  C   UNL     1      36.231 -25.870 -15.033  0.00  0.00    -0.003 C 
ATOM     29  C   UNL     1      35.934 -24.303 -13.218  0.00  0.00    -0.003 C 
ATOM     30  C   UNL     1      36.790 -26.790 -14.147  0.00  0.00    -0.000 C 
ATOM     31  C   UNL     1      36.493 -25.223 -12.331  0.00  0.00    -0.000 C 
ATOM     32  C   UNL     1      36.922 -26.468 -12.797  0.00  0.00    -0.000 C 
ENDBRANCH  26  27
BRANCH  26  33
ATOM     33  C   UNL     1      33.739 -23.321 -15.241  0.00  0.00    -0.010 C 
ATOM     34  C   UNL     1      33.332 -23.036 -13.938  0.00  0.00    -0.003 C 
ATOM     35  C   UNL     1      32.806 -23.324 -16.278  0.00  0.00    -0.003 C 
ATOM     36  C   UNL     1      31.992 -22.754 -13.672  0.00  0.00    -0.000 C 
ATOM     37  C   UNL     1      31.466 -23.042 -16.012  0.00  0.00    -0.000 C 
ATOM     38  C   UNL     1      31.059 -22.757 -14.709  0.00  0.00    -0.000 C 
ENDBRANCH  26  33
ENDBRANCH   8  26
TORSDOF 9
ENDMDL
MODEL 4
REMARK VINA RESULT:     -11.3      1.263      3.339
REMARK  Name = 213040
REMARK  9 active torsions:
REMARK  status: ('A' for Active; 'I' for Inactive)
REMARK    1  A    between atoms: N_2  and  C_10
REMARK    2  A    between atoms: C_8  and  C_26
REMARK    3  A    between atoms: C_10  and  C_11
REMARK    4  A    between atoms: C_11  and  O_12
REMARK    5  A    between atoms: C_11  and  C_14
REMARK    6  A    between atoms: C_14  and  O_15
REMARK    7  A    between atoms: O_15  and  C_17
REMARK    8  A    between atoms: C_26  and  C_27
REMARK    9  A    between atoms: C_26  and  C_33
REMARK                            x       y       z     vdW  Elec       q    Type
REMARK                         _______ _______ _______ _____ _____    ______ ____
ROOT
ATOM      1  O   UNL     1      31.019 -21.349 -17.080  0.00  0.00    -0.274 OA
ATOM      2  N   UNL     1      34.492 -20.876 -20.633  0.00  0.00    +0.391 N 
ATOM      3  N   UNL     1      32.681 -21.831 -18.628  0.00  0.00    -0.283 N 
ATOM      4  C   UNL     1      33.502 -19.971 -20.031  0.00  0.00    -0.055 C 
ATOM      5  C   UNL     1      34.927 -21.886 -19.657  0.00  0.00    -0.055 C 
ATOM      6  C   UNL     1      32.286 -20.752 -19.534  0.00  0.00    +0.071 C 
ATOM      7  C   UNL     1      33.738 -22.703 -19.148  0.00  0.00    +0.071 C 
ATOM      8  C   UNL     1      31.980 -22.032 -17.441  0.00  0.00    +0.233 C 
ATOM      9  H   UNL     1      34.053 -21.356 -21.419  0.00  0.00    -0.079 HD
ENDROOT
BRANCH   2  10
ATOM     10  C   UNL     1      35.638 -20.121 -21.138  0.00  0.00    -0.043 C 
BRANCH  10  11
ATOM     11  C   UNL     1      35.550 -18.635 -20.782  0.00  0.00    +0.133 C 
BRANCH  11  12
ATOM     12  O   UNL     1      36.750 -18.269 -20.095  0.00  0.00    -0.383 OA
ATOM     13  H   UNL     1      36.669 -17.360 -19.766  0.00  0.00    +0.210 HD
ENDBRANCH  11  12
BRANCH  11  14
ATOM     14  C   UNL     1      35.394 -17.730 -22.003  0.00  0.00    +0.232 C 
BRANCH  14  15
ATOM     15  O   UNL     1      34.889 -16.468 -21.579  0.00  0.00    -0.473 OA
BRANCH  15  17
ATOM     16  N   UNL     1      32.244 -12.649 -22.893  0.00  0.00    -0.244 NA
ATOM     17  C   UNL     1      34.274 -15.700 -22.531  0.00  0.00    +0.140 C 
ATOM     18  C   UNL     1      33.560 -14.540 -22.187  0.00  0.00    +0.052 C 
ATOM     19  C   UNL     1      34.376 -16.097 -23.862  0.00  0.00    +0.037 C 
ATOM     20  C   UNL     1      32.936 -13.765 -23.188  0.00  0.00    +0.084 C 
ATOM     21  C   UNL     1      33.764 -15.338 -24.852  0.00  0.00    +0.005 C 
ATOM     22  C   UNL     1      33.443 -14.118 -20.857  0.00  0.00    +0.006 C 
ATOM     23  C   UNL     1      33.053 -14.186 -24.510  0.00  0.00    +0.019 C 
ATOM     24  C   UNL     1      32.729 -12.968 -20.550  0.00  0.00    +0.021 C 
ATOM     25  C   UNL     1      32.154 -12.275 -21.597  0.00  0.00    +0.099 C 
ENDBRANCH  15  17
ENDBRANCH  14  15
ENDBRANCH  11  14
ENDBRANCH  10  11
ENDBRANCH   2  10
BRANCH   8  26
ATOM     26  C   UNL     1      32.454 -23.161 -16.561  0.00  0.00    +0.121 C 
BRANCH  26  27
ATOM     27  C   UNL     1      33.887 -22.964 -16.110  0.00  0.00    -0.010 C 
ATOM     28  C   UNL     1      34.547 -23.980 -15.418  0.00  0.00    -0.003 C 
ATOM     29  C   UNL     1      34.547 -21.767 -16.388  0.00  0.00    -0.003 C 
ATOM     30  C   UNL     1      35.866 -23.798 -15.004  0.00  0.00    -0.000 C 
ATOM     31  C   UNL     1      35.866 -21.585 -15.974  0.00  0.00    -0.000 C 
ATOM     32  C   UNL     1      36.526 -22.601 -15.281  0.00  0.00    -0.000 C 
ENDBRANCH  26  27
BRANCH  26  33
ATOM     33  C   UNL     1      31.500 -23.452 -15.419  0.00  0.00    -0.010 C 
ATOM     34  C   UNL     1      31.686 -22.839 -14.181  0.00  0.00    -0.003 C 
ATOM     35  C   UNL     1      30.434 -24.333 -15.608  0.00  0.00    -0.003 C 
ATOM     36  C   UNL     1      30.807 -23.105 -13.131  0.00  0.00    -0.000 C 
ATOM     37  C   UNL     1      29.555 -24.600 -14.558  0.00  0.00    -0.000 C 
ATOM     38  C   UNL     1      29.742 -23.985 -13.319  0.00  0.00    -0.000 C 
ENDBRANCH  26  33
ENDBRANCH   8  26
TORSDOF 9
ENDMDL
MODEL 5
REMARK VINA RESULT:     -10.9      1.332      3.701
REMARK  Name = 213040
REMARK  9 active torsions:
REMARK  status: ('A' for Active; 'I' for Inactive)
REMARK    1  A    between atoms: N_2  and  C_10
REMARK    2  A    between atoms: C_8  and  C_26
REMARK    3  A    between atoms: C_10  and  C_11
REMARK    4  A    between atoms: C_11  and  O_12
REMARK    5  A    between atoms: C_11  and  C_14
REMARK    6  A    between atoms: C_14  and  O_15
REMARK    7  A    between atoms: O_15  and  C_17
REMARK    8  A    between atoms: C_26  and  C_27
REMARK    9  A    between atoms: C_26  and  C_33
REMARK                            x       y       z     vdW  Elec       q    Type
REMARK                         _______ _______ _______ _____ _____    ______ ____
ROOT
ATOM      1  O   UNL     1      30.850 -21.549 -16.845  0.00  0.00    -0.274 OA
ATOM      2  N   UNL     1      34.388 -20.972 -20.318  0.00  0.00    +0.391 N 
ATOM      3  N   UNL     1      32.554 -21.982 -18.362  0.00  0.00    -0.283 N 
ATOM      4  C   UNL     1      33.368 -20.092 -19.727  0.00  0.00    -0.055 C 
ATOM      5  C   UNL     1      34.822 -21.983 -19.343  0.00  0.00    -0.055 C 
ATOM      6  C   UNL     1      32.157 -20.902 -19.265  0.00  0.00    +0.071 C 
ATOM      7  C   UNL     1      33.639 -22.828 -18.868  0.00  0.00    +0.071 C 
ATOM      8  C   UNL     1      31.832 -22.210 -17.192  0.00  0.00    +0.233 C 
ATOM      9  H   UNL     1      33.975 -21.451 -21.118  0.00  0.00    -0.079 HD
ENDROOT
BRANCH   2  10
ATOM     10  C   UNL     1      35.530 -20.189 -20.790  0.00  0.00    -0.043 C 
BRANCH  10  11
ATOM     11  C   UNL     1      35.280 -18.683 -20.680  0.00  0.00    +0.133 C 
BRANCH  11  12
ATOM     12  O   UNL     1      36.542 -18.034 -20.497  0.00  0.00    -0.383 OA
ATOM     13  H   UNL     1      36.826 -18.134 -19.575  0.00  0.00    +0.210 HD
ENDBRANCH  11  12
BRANCH  11  14
ATOM     14  C   UNL     1      34.604 -18.091 -21.915  0.00  0.00    +0.232 C 
BRANCH  14  15
ATOM     15  O   UNL     1      35.196 -16.830 -22.205  0.00  0.00    -0.473 OA
BRANCH  15  17
ATOM     16  N   UNL     1      32.503 -13.138 -23.763  0.00  0.00    -0.244 NA
ATOM     17  C   UNL     1      34.427 -15.721 -21.977  0.00  0.00    +0.140 C 
ATOM     18  C   UNL     1      33.855 -14.995 -23.035  0.00  0.00    +0.052 C 
ATOM     19  C   UNL     1      34.221 -15.324 -20.658  0.00  0.00    +0.037 C 
ATOM     20  C   UNL     1      33.066 -13.855 -22.772  0.00  0.00    +0.084 C 
ATOM     21  C   UNL     1      33.445 -14.203 -20.393  0.00  0.00    +0.005 C 
ATOM     22  C   UNL     1      34.045 -15.372 -24.371  0.00  0.00    +0.006 C 
ATOM     23  C   UNL     1      32.877 -13.481 -21.445  0.00  0.00    +0.019 C 
ATOM     24  C   UNL     1      33.467 -14.634 -25.393  0.00  0.00    +0.021 C 
ATOM     25  C   UNL     1      32.711 -13.535 -25.039  0.00  0.00    +0.099 C 
ENDBRANCH  15  17
ENDBRANCH  14  15
ENDBRANCH  11  14
ENDBRANCH  10  11
ENDBRANCH   2  10
BRANCH   8  26
ATOM     26  C   UNL     1      32.309 -23.339 -16.314  0.00  0.00    +0.121 C 
BRANCH  26  27
ATOM     27  C   UNL     1      33.742 -23.140 -15.866  0.00  0.00    -0.010 C 
ATOM     28  C   UNL     1      34.316 -21.869 -15.908  0.00  0.00    -0.003 C 
ATOM     29  C   UNL     1      34.488 -24.227 -15.411  0.00  0.00    -0.003 C 
ATOM     30  C   UNL     1      35.636 -21.686 -15.496  0.00  0.00    -0.000 C 
ATOM     31  C   UNL     1      35.808 -24.045 -14.999  0.00  0.00    -0.000 C 
ATOM     32  C   UNL     1      36.382 -22.773 -15.041  0.00  0.00    -0.000 C 
ENDBRANCH  26  27
BRANCH  26  33
ATOM     33  C   UNL     1      31.358 -23.631 -15.170  0.00  0.00    -0.010 C 
ATOM     34  C   UNL     1      30.320 -24.546 -15.342  0.00  0.00    -0.003 C 
ATOM     35  C   UNL     1      31.521 -22.985 -13.944  0.00  0.00    -0.003 C 
ATOM     36  C   UNL     1      29.446 -24.816 -14.289  0.00  0.00    -0.000 C 
ATOM     37  C   UNL     1      30.647 -23.254 -12.891  0.00  0.00    -0.000 C 
ATOM     38  C   UNL     1      29.609 -24.170 -13.064  0.00  0.00    -0.000 C 
ENDBRANCH  26  33
ENDBRANCH   8  26
TORSDOF 9
ENDMDL
MODEL 6
REMARK VINA RESULT:     -10.8      8.262     16.472
REMARK  Name = 213040
REMARK  9 active torsions:
REMARK  status: ('A' for Active; 'I' for Inactive)
REMARK    1  A    between atoms: N_2  and  C_10
REMARK    2  A    between atoms: C_8  and  C_26
REMARK    3  A    between atoms: C_10  and  C_11
REMARK    4  A    between atoms: C_11  and  O_12
REMARK    5  A    between atoms: C_11  and  C_14
REMARK    6  A    between atoms: C_14  and  O_15
REMARK    7  A    between atoms: O_15  and  C_17
REMARK    8  A    between atoms: C_26  and  C_27
REMARK    9  A    between atoms: C_26  and  C_33
REMARK                            x       y       z     vdW  Elec       q    Type
REMARK                         _______ _______ _______ _____ _____    ______ ____
ROOT
ATOM      1  O   UNL     1      34.342  -5.507 -24.371  0.00  0.00    -0.274 OA
ATOM      2  N   UNL     1      31.223  -8.853 -22.373  0.00  0.00    +0.391 N 
ATOM      3  N   UNL     1      32.563  -6.968 -24.065  0.00  0.00    -0.283 N 
ATOM      4  C   UNL     1      32.525  -8.292 -21.980  0.00  0.00    -0.055 C 
ATOM      5  C   UNL     1      30.453  -7.871 -23.149  0.00  0.00    -0.055 C 
ATOM      6  C   UNL     1      33.329  -7.877 -23.212  0.00  0.00    +0.071 C 
ATOM      7  C   UNL     1      31.217  -7.442 -24.402  0.00  0.00    +0.071 C 
ATOM      8  C   UNL     1      33.169  -5.825 -24.583  0.00  0.00    +0.233 C 
ATOM      9  H   UNL     1      31.390  -9.670 -22.960  0.00  0.00    -0.079 HD
ENDROOT
BRANCH   2  10
ATOM     10  C   UNL     1      30.472  -9.280 -21.193  0.00  0.00    -0.043 C 
BRANCH  10  11
ATOM     11  C   UNL     1      31.379  -9.891 -20.123  0.00  0.00    +0.133 C 
BRANCH  11  12
ATOM     12  O   UNL     1      30.806  -9.614 -18.841  0.00  0.00    -0.383 OA
ATOM     13  H   UNL     1      29.915  -9.250 -18.958  0.00  0.00    +0.210 HD
ENDBRANCH  11  12
BRANCH  11  14
ATOM     14  C   UNL     1      31.547 -11.403 -20.264  0.00  0.00    +0.232 C 
BRANCH  14  15
ATOM     15  O   UNL     1      32.022 -11.694 -21.573  0.00  0.00    -0.473 OA
BRANCH  15  17
ATOM     16  N   UNL     1      33.898 -15.182 -24.335  0.00  0.00    -0.244 NA
ATOM     17  C   UNL     1      32.723 -12.859 -21.730  0.00  0.00    +0.140 C 
ATOM     18  C   UNL     1      32.943 -13.418 -23.000  0.00  0.00    +0.052 C 
ATOM     19  C   UNL     1      33.222 -13.483 -20.589  0.00  0.00    +0.037 C 
ATOM     20  C   UNL     1      33.669 -14.620 -23.133  0.00  0.00    +0.084 C 
ATOM     21  C   UNL     1      33.938 -14.667 -20.714  0.00  0.00    +0.005 C 
ATOM     22  C   UNL     1      32.453 -12.810 -24.163  0.00  0.00    +0.006 C 
ATOM     23  C   UNL     1      34.156 -15.224 -21.976  0.00  0.00    +0.019 C 
ATOM     24  C   UNL     1      32.686 -13.388 -25.403  0.00  0.00    +0.021 C 
ATOM     25  C   UNL     1      33.409 -14.564 -25.434  0.00  0.00    +0.099 C 
ENDBRANCH  15  17
ENDBRANCH  14  15
ENDBRANCH  11  14
ENDBRANCH  10  11
ENDBRANCH   2  10
BRANCH   8  26
ATOM     26  C   UNL     1      32.309  -4.939 -25.448  0.00  0.00    +0.121 C 
BRANCH  26  27
ATOM     27  C   UNL     1      31.652  -3.833 -24.648  0.00  0.00    -0.010 C 
ATOM     28  C   UNL     1      31.794  -3.797 -23.260  0.00  0.00    -0.003 C 
ATOM     29  C   UNL     1      30.907  -2.849 -25.299  0.00  0.00    -0.003 C 
ATOM     30  C   UNL     1      31.189  -2.779 -22.524  0.00  0.00    -0.000 C 
ATOM     31  C   UNL     1      30.303  -1.831 -24.562  0.00  0.00    -0.000 C 
ATOM     32  C   UNL     1      30.444  -1.795 -23.174  0.00  0.00    -0.000 C 
ENDBRANCH  26  27
BRANCH  26  33
ATOM     33  C   UNL     1      33.039  -4.438 -26.679  0.00  0.00    -0.010 C 
ATOM     34  C   UNL     1      33.680  -3.200 -26.655  0.00  0.00    -0.003 C 
ATOM     35  C   UNL     1      33.072  -5.217 -27.836  0.00  0.00    -0.003 C 
ATOM     36  C   UNL     1      34.353  -2.740 -27.786  0.00  0.00    -0.000 C 
ATOM     37  C   UNL     1      33.745  -4.757 -28.968  0.00  0.00    -0.000 C 
ATOM     38  C   UNL     1      34.385  -3.518 -28.942  0.00  0.00    -0.000 C 
ENDBRANCH  26  33
ENDBRANCH   8  26
TORSDOF 9
ENDMDL
MODEL 7
REMARK VINA RESULT:     -10.8      6.654     15.648
REMARK  Name = 213040
REMARK  9 active torsions:
REMARK  status: ('A' for Active; 'I' for Inactive)
REMARK    1  A    between atoms: N_2  and  C_10
REMARK    2  A    between atoms: C_8  and  C_26
REMARK    3  A    between atoms: C_10  and  C_11
REMARK    4  A    between atoms: C_11  and  O_12
REMARK    5  A    between atoms: C_11  and  C_14
REMARK    6  A    between atoms: C_14  and  O_15
REMARK    7  A    between atoms: O_15  and  C_17
REMARK    8  A    between atoms: C_26  and  C_27
REMARK    9  A    between atoms: C_26  and  C_33
REMARK                            x       y       z     vdW  Elec       q    Type
REMARK                         _______ _______ _______ _____ _____    ______ ____
ROOT
ATOM      1  O   UNL     1      30.319  -6.717 -24.857  0.00  0.00    -0.274 OA
ATOM      2  N   UNL     1      31.017  -9.710 -20.923  0.00  0.00    +0.391 N 
ATOM      3  N   UNL     1      30.812  -7.489 -22.723  0.00  0.00    -0.283 N 
ATOM      4  C   UNL     1      30.476  -9.895 -22.278  0.00  0.00    -0.055 C 
ATOM      5  C   UNL     1      32.036  -8.650 -20.917  0.00  0.00    -0.055 C 
ATOM      6  C   UNL     1      29.859  -8.596 -22.798  0.00  0.00    +0.071 C 
ATOM      7  C   UNL     1      31.452  -7.326 -21.414  0.00  0.00    +0.071 C 
ATOM      8  C   UNL     1      30.955  -6.622 -23.804  0.00  0.00    +0.233 C 
ATOM      9  H   UNL     1      30.253  -9.427 -20.308  0.00  0.00    -0.079 HD
ENDROOT
BRANCH   2  10
ATOM     10  C   UNL     1      31.575 -10.963 -20.417  0.00  0.00    -0.043 C 
BRANCH  10  11
ATOM     11  C   UNL     1      31.992 -11.905 -21.549  0.00  0.00    +0.133 C 
BRANCH  11  12
ATOM     12  O   UNL     1      33.003 -11.253 -22.323  0.00  0.00    -0.383 OA
ATOM     13  H   UNL     1      33.380 -10.520 -21.811  0.00  0.00    +0.210 HD
ENDBRANCH  11  12
BRANCH  11  14
ATOM     14  C   UNL     1      32.546 -13.239 -21.051  0.00  0.00    +0.232 C 
BRANCH  14  15
ATOM     15  O   UNL     1      33.783 -13.498 -21.707  0.00  0.00    -0.473 OA
BRANCH  15  17
ATOM     16  N   UNL     1      34.540 -18.029 -23.192  0.00  0.00    -0.244 NA
ATOM     17  C   UNL     1      33.775 -14.464 -22.677  0.00  0.00    +0.140 C 
ATOM     18  C   UNL     1      34.178 -15.781 -22.403  0.00  0.00    +0.052 C 
ATOM     19  C   UNL     1      33.353 -14.107 -23.955  0.00  0.00    +0.037 C 
ATOM     20  C   UNL     1      34.161 -16.758 -23.421  0.00  0.00    +0.084 C 
ATOM     21  C   UNL     1      33.333 -15.064 -24.962  0.00  0.00    +0.005 C 
ATOM     22  C   UNL     1      34.607 -16.167 -21.126  0.00  0.00    +0.006 C 
ATOM     23  C   UNL     1      33.734 -16.374 -24.690  0.00  0.00    +0.019 C 
ATOM     24  C   UNL     1      35.000 -17.476 -20.888  0.00  0.00    +0.021 C 
ATOM     25  C   UNL     1      34.947 -18.361 -21.946  0.00  0.00    +0.099 C 
ENDBRANCH  15  17
ENDBRANCH  14  15
ENDBRANCH  11  14
ENDBRANCH  10  11
ENDBRANCH   2  10
BRANCH   8  26
ATOM     26  C   UNL     1      31.961  -5.510 -23.649  0.00  0.00    +0.121 C 
BRANCH  26  27
ATOM     27  C   UNL     1      32.856  -5.383 -24.865  0.00  0.00    -0.010 C 
ATOM     28  C   UNL     1      32.359  -5.693 -26.132  0.00  0.00    -0.003 C 
ATOM     29  C   UNL     1      34.175  -4.955 -24.719  0.00  0.00    -0.003 C 
ATOM     30  C   UNL     1      33.183  -5.576 -27.251  0.00  0.00    -0.000 C 
ATOM     31  C   UNL     1      34.999  -4.837 -25.838  0.00  0.00    -0.000 C 
ATOM     32  C   UNL     1      34.502  -5.148 -27.105  0.00  0.00    -0.000 C 
ENDBRANCH  26  27
BRANCH  26  33
ATOM     33  C   UNL     1      31.324  -4.199 -23.233  0.00  0.00    -0.010 C 
ATOM     34  C   UNL     1      30.465  -4.158 -22.135  0.00  0.00    -0.003 C 
ATOM     35  C   UNL     1      31.598  -3.032 -23.948  0.00  0.00    -0.003 C 
ATOM     36  C   UNL     1      29.880  -2.951 -21.751  0.00  0.00    -0.000 C 
ATOM     37  C   UNL     1      31.013  -1.825 -23.564  0.00  0.00    -0.000 C 
ATOM     38  C   UNL     1      30.154  -1.786 -22.466  0.00  0.00    -0.000 C 
ENDBRANCH  26  33
ENDBRANCH   8  26
TORSDOF 9
ENDMDL
MODEL 8
REMARK VINA RESULT:     -10.7      6.112     15.479
REMARK  Name = 213040
REMARK  9 active torsions:
REMARK  status: ('A' for Active; 'I' for Inactive)
REMARK    1  A    between atoms: N_2  and  C_10
REMARK    2  A    between atoms: C_8  and  C_26
REMARK    3  A    between atoms: C_10  and  C_11
REMARK    4  A    between atoms: C_11  and  O_12
REMARK    5  A    between atoms: C_11  and  C_14
REMARK    6  A    between atoms: C_14  and  O_15
REMARK    7  A    between atoms: O_15  and  C_17
REMARK    8  A    between atoms: C_26  and  C_27
REMARK    9  A    between atoms: C_26  and  C_33
REMARK                            x       y       z     vdW  Elec       q    Type
REMARK                         _______ _______ _______ _____ _____    ______ ____
ROOT
ATOM      1  O   UNL     1      29.882  -6.564 -23.190  0.00  0.00    -0.274 OA
ATOM      2  N   UNL     1      32.968 -10.480 -22.945  0.00  0.00    +0.391 N 
ATOM      3  N   UNL     1      31.740  -7.896 -22.781  0.00  0.00    -0.283 N 
ATOM      4  C   UNL     1      31.558 -10.299 -23.321  0.00  0.00    -0.055 C 
ATOM      5  C   UNL     1      33.741  -9.267 -23.250  0.00  0.00    -0.055 C 
ATOM      6  C   UNL     1      30.948  -9.109 -22.580  0.00  0.00    +0.071 C 
ATOM      7  C   UNL     1      33.172  -8.055 -22.512  0.00  0.00    +0.071 C 
ATOM      8  C   UNL     1      31.103  -6.692 -23.078  0.00  0.00    +0.233 C 
ATOM      9  H   UNL     1      33.013 -10.647 -21.939  0.00  0.00    -0.079 HD
ENDROOT
BRANCH   2  10
ATOM     10  C   UNL     1      33.537 -11.639 -23.630  0.00  0.00    -0.043 C 
BRANCH  10  11
ATOM     11  C   UNL     1      33.782 -12.810 -22.675  0.00  0.00    +0.133 C 
BRANCH  11  12
ATOM     12  O   UNL     1      33.050 -12.563 -21.471  0.00  0.00    -0.383 OA
ATOM     13  H   UNL     1      32.177 -12.983 -21.531  0.00  0.00    +0.210 HD
ENDBRANCH  11  12
BRANCH  11  14
ATOM     14  C   UNL     1      33.341 -14.157 -23.244  0.00  0.00    +0.232 C 
BRANCH  14  15
ATOM     15  O   UNL     1      34.410 -15.087 -23.109  0.00  0.00    -0.473 OA
BRANCH  15  17
ATOM     16  N   UNL     1      34.661 -19.785 -22.023  0.00  0.00    -0.244 NA
ATOM     17  C   UNL     1      34.121 -16.399 -23.370  0.00  0.00    +0.140 C 
ATOM     18  C   UNL     1      34.564 -17.429 -22.522  0.00  0.00    +0.052 C 
ATOM     19  C   UNL     1      33.370 -16.694 -24.504  0.00  0.00    +0.037 C 
ATOM     20  C   UNL     1      34.253 -18.774 -22.814  0.00  0.00    +0.084 C 
ATOM     21  C   UNL     1      33.060 -18.016 -24.796  0.00  0.00    +0.005 C 
ATOM     22  C   UNL     1      35.321 -17.160 -21.375  0.00  0.00    +0.006 C 
ATOM     23  C   UNL     1      33.500 -19.041 -23.954  0.00  0.00    +0.019 C 
ATOM     24  C   UNL     1      35.744 -18.200 -20.559  0.00  0.00    +0.021 C 
ATOM     25  C   UNL     1      35.389 -19.483 -20.924  0.00  0.00    +0.099 C 
ENDBRANCH  15  17
ENDBRANCH  14  15
ENDBRANCH  11  14
ENDBRANCH  10  11
ENDBRANCH   2  10
BRANCH   8  26
ATOM     26  C   UNL     1      31.992  -5.490 -23.275  0.00  0.00    +0.121 C 
BRANCH  26  27
ATOM     27  C   UNL     1      32.659  -5.497 -24.636  0.00  0.00    -0.010 C 
ATOM     28  C   UNL     1      33.989  -5.097 -24.762  0.00  0.00    -0.003 C 
ATOM     29  C   UNL     1      31.943  -5.904 -25.761  0.00  0.00    -0.003 C 
ATOM     30  C   UNL     1      34.603  -5.103 -26.014  0.00  0.00    -0.000 C 
ATOM     31  C   UNL     1      32.557  -5.911 -27.014  0.00  0.00    -0.000 C 
ATOM     32  C   UNL     1      33.888  -5.510 -27.140  0.00  0.00    -0.000 C 
ENDBRANCH  26  27
BRANCH  26  33
ATOM     33  C   UNL     1      31.288  -4.185 -22.958  0.00  0.00    -0.010 C 
ATOM     34  C   UNL     1      31.490  -3.068 -23.767  0.00  0.00    -0.003 C 
ATOM     35  C   UNL     1      30.437  -4.102 -21.855  0.00  0.00    -0.003 C 
ATOM     36  C   UNL     1      30.841  -1.868 -23.476  0.00  0.00    -0.000 C 
ATOM     37  C   UNL     1      29.788  -2.903 -21.563  0.00  0.00    -0.000 C 
ATOM     38  C   UNL     1      29.991  -1.786 -22.374  0.00  0.00    -0.000 C 
ENDBRANCH  26  33
ENDBRANCH   8  26
TORSDOF 9
ENDMDL
MODEL 9
REMARK VINA RESULT:     -10.7      7.672     16.635
REMARK  Name = 213040
REMARK  9 active torsions:
REMARK  status: ('A' for Active; 'I' for Inactive)
REMARK    1  A    between atoms: N_2  and  C_10
REMARK    2  A    between atoms: C_8  and  C_26
REMARK    3  A    between atoms: C_10  and  C_11
REMARK    4  A    between atoms: C_11  and  O_12
REMARK    5  A    between atoms: C_11  and  C_14
REMARK    6  A    between atoms: C_14  and  O_15
REMARK    7  A    between atoms: O_15  and  C_17
REMARK    8  A    between atoms: C_26  and  C_27
REMARK    9  A    between atoms: C_26  and  C_33
REMARK                            x       y       z     vdW  Elec       q    Type
REMARK                         _______ _______ _______ _____ _____    ______ ____
ROOT
ATOM      1  O   UNL     1      34.489  -5.155 -24.631  0.00  0.00    -0.274 OA
ATOM      2  N   UNL     1      31.479  -8.756 -22.933  0.00  0.00    +0.391 N 
ATOM      3  N   UNL     1      32.737  -6.667 -24.437  0.00  0.00    -0.283 N 
ATOM      4  C   UNL     1      32.789  -8.227 -22.523  0.00  0.00    -0.055 C 
ATOM      5  C   UNL     1      30.671  -7.701 -23.560  0.00  0.00    -0.055 C 
ATOM      6  C   UNL     1      33.543  -7.658 -23.725  0.00  0.00    +0.071 C 
ATOM      7  C   UNL     1      31.385  -7.117 -24.781  0.00  0.00    +0.071 C 
ATOM      8  C   UNL     1      33.313  -5.462 -24.837  0.00  0.00    +0.233 C 
ATOM      9  H   UNL     1      31.632  -9.496 -23.619  0.00  0.00    -0.079 HD
ENDROOT
BRANCH   2  10
ATOM     10  C   UNL     1      30.776  -9.330 -21.786  0.00  0.00    -0.043 C 
BRANCH  10  11
ATOM     11  C   UNL     1      31.632 -10.354 -21.039  0.00  0.00    +0.133 C 
BRANCH  11  12
ATOM     12  O   UNL     1      31.137 -10.459 -19.701  0.00  0.00    -0.383 OA
ATOM     13  H   UNL     1      30.383 -11.069 -19.683  0.00  0.00    +0.210 HD
ENDBRANCH  11  12
BRANCH  11  14
ATOM     14  C   UNL     1      31.608 -11.742 -21.676  0.00  0.00    +0.232 C 
BRANCH  14  15
ATOM     15  O   UNL     1      32.938 -12.119 -22.012  0.00  0.00    -0.473 OA
BRANCH  15  17
ATOM     16  N   UNL     1      34.211 -16.479 -23.652  0.00  0.00    -0.244 NA
ATOM     17  C   UNL     1      33.084 -13.029 -23.025  0.00  0.00    +0.140 C 
ATOM     18  C   UNL     1      33.590 -14.318 -22.785  0.00  0.00    +0.052 C 
ATOM     19  C   UNL     1      32.715 -12.645 -24.311  0.00  0.00    +0.037 C 
ATOM     20  C   UNL     1      33.730 -15.237 -23.847  0.00  0.00    +0.084 C 
ATOM     21  C   UNL     1      32.850 -13.545 -25.361  0.00  0.00    +0.005 C 
ATOM     22  C   UNL     1      33.968 -14.730 -21.501  0.00  0.00    +0.006 C 
ATOM     23  C   UNL     1      33.353 -14.826 -25.123  0.00  0.00    +0.019 C 
ATOM     24  C   UNL     1      34.465 -16.010 -21.297  0.00  0.00    +0.021 C 
ATOM     25  C   UNL     1      34.564 -16.838 -22.397  0.00  0.00    +0.099 C 
ENDBRANCH  15  17
ENDBRANCH  14  15
ENDBRANCH  11  14
ENDBRANCH  10  11
ENDBRANCH   2  10
BRANCH   8  26
ATOM     26  C   UNL     1      32.413  -4.493 -25.561  0.00  0.00    +0.121 C 
BRANCH  26  27
ATOM     27  C   UNL     1      31.669  -3.587 -24.601  0.00  0.00    -0.010 C 
ATOM     28  C   UNL     1      30.791  -2.621 -25.093  0.00  0.00    -0.003 C 
ATOM     29  C   UNL     1      31.861  -3.720 -23.226  0.00  0.00    -0.003 C 
ATOM     30  C   UNL     1      30.106  -1.787 -24.209  0.00  0.00    -0.000 C 
ATOM     31  C   UNL     1      31.176  -2.886 -22.342  0.00  0.00    -0.000 C 
ATOM     32  C   UNL     1      30.298  -1.919 -22.834  0.00  0.00    -0.000 C 
ENDBRANCH  26  27
BRANCH  26  33
ATOM     33  C   UNL     1      33.132  -3.739 -26.663  0.00  0.00    -0.010 C 
ATOM     34  C   UNL     1      33.907  -2.622 -26.354  0.00  0.00    -0.003 C 
ATOM     35  C   UNL     1      33.020  -4.165 -27.987  0.00  0.00    -0.003 C 
ATOM     36  C   UNL     1      34.569  -1.930 -27.367  0.00  0.00    -0.000 C 
ATOM     37  C   UNL     1      33.683  -3.473 -29.001  0.00  0.00    -0.000 C 
ATOM     38  C   UNL     1      34.458  -2.355 -28.690  0.00  0.00    -0.000 C 
ENDBRANCH  26  33
ENDBRANCH   8  26
TORSDOF 9
ENDMDL
