MODEL 1
REMARK VINA RESULT:     -12.5      0.000      0.000
REMARK  Name = 17753965
REMARK  2 active torsions:
REMARK  status: ('A' for Active; 'I' for Inactive)
REMARK    1  A    between atoms: C_1  and  C_5
REMARK    2  A    between atoms: C_1  and  C_17
REMARK                            x       y       z     vdW  Elec       q    Type
REMARK                         _______ _______ _______ _____ _____    ______ ____
ROOT
ATOM      1  C   UNL     1      33.652 -19.016 -20.595  0.00  0.00    +0.038 C 
ENDROOT
BRANCH   1   5
ATOM      2  O   UNL     1      33.025 -21.785 -18.560  0.00  0.00    -0.424 OA
ATOM      3  O   UNL     1      36.382 -20.084 -20.170  0.00  0.00    -0.291 OA
ATOM      4  O   UNL     1      31.778 -21.300 -20.392  0.00  0.00    -0.249 OA
ATOM      5  C   UNL     1      34.031 -20.482 -20.402  0.00  0.00    +0.162 C 
ATOM      6  C   UNL     1      35.356 -20.552 -19.684  0.00  0.00    +0.186 C 
ATOM      7  C   UNL     1      32.856 -21.217 -19.807  0.00  0.00    +0.328 C 
ATOM      8  C   UNL     1      35.390 -21.184 -18.363  0.00  0.00    +0.070 C 
ATOM      9  C   UNL     1      34.238 -21.760 -17.854  0.00  0.00    +0.151 C 
ATOM     10  C   UNL     1      36.568 -21.209 -17.611  0.00  0.00    +0.006 C 
ATOM     11  C   UNL     1      34.237 -22.365 -16.597  0.00  0.00    +0.038 C 
ATOM     12  C   UNL     1      36.574 -21.812 -16.351  0.00  0.00    +0.000 C 
ATOM     13  C   UNL     1      35.409 -22.389 -15.844  0.00  0.00    +0.003 C 
ENDBRANCH   1   5
BRANCH   1  17
ATOM     14  O   UNL     1      33.995 -17.819 -23.874  0.00  0.00    -0.424 OA
ATOM     15  O   UNL     1      34.892 -16.374 -20.149  0.00  0.00    -0.291 OA
ATOM     16  O   UNL     1      34.467 -19.955 -23.272  0.00  0.00    -0.249 OA
ATOM     17  C   UNL     1      34.628 -18.310 -21.535  0.00  0.00    +0.162 C 
ATOM     18  C   UNL     1      34.594 -16.830 -21.250  0.00  0.00    +0.186 C 
ATOM     19  C   UNL     1      34.367 -18.773 -22.947  0.00  0.00    +0.328 C 
ATOM     20  C   UNL     1      34.182 -15.929 -22.329  0.00  0.00    +0.070 C 
ATOM     21  C   UNL     1      33.894 -16.451 -23.580  0.00  0.00    +0.151 C 
ATOM     22  C   UNL     1      34.071 -14.553 -22.110  0.00  0.00    +0.006 C 
ATOM     23  C   UNL     1      33.493 -15.619 -24.626  0.00  0.00    +0.038 C 
ATOM     24  C   UNL     1      33.670 -13.714 -23.154  0.00  0.00    +0.000 C 
ATOM     25  C   UNL     1      33.381 -14.246 -24.410  0.00  0.00    +0.003 C 
ENDBRANCH   1  17
TORSDOF 2
ENDMDL
MODEL 2
REMARK VINA RESULT:     -12.1      3.704      6.471
REMARK  Name = 17753965
REMARK  2 active torsions:
REMARK  status: ('A' for Active; 'I' for Inactive)
REMARK    1  A    between atoms: C_1  and  C_5
REMARK    2  A    between atoms: C_1  and  C_17
REMARK                            x       y       z     vdW  Elec       q    Type
REMARK                         _______ _______ _______ _____ _____    ______ ____
ROOT
ATOM      1  C   UNL     1      33.592 -22.392 -15.533  0.00  0.00    +0.038 C 
ENDROOT
BRANCH   1   5
ATOM      2  O   UNL     1      33.433 -23.312 -12.167  0.00  0.00    -0.424 OA
ATOM      3  O   UNL     1      35.689 -24.478 -15.377  0.00  0.00    -0.291 OA
ATOM      4  O   UNL     1      31.584 -23.013 -13.448  0.00  0.00    -0.249 OA
ATOM      5  C   UNL     1      33.590 -23.611 -14.614  0.00  0.00    +0.162 C 
ATOM      6  C   UNL     1      35.010 -24.086 -14.432  0.00  0.00    +0.186 C 
ATOM      7  C   UNL     1      32.778 -23.294 -13.383  0.00  0.00    +0.328 C 
ATOM      8  C   UNL     1      35.579 -24.050 -13.082  0.00  0.00    +0.070 C 
ATOM      9  C   UNL     1      34.784 -23.661 -12.018  0.00  0.00    +0.151 C 
ATOM     10  C   UNL     1      36.915 -24.399 -12.858  0.00  0.00    +0.006 C 
ATOM     11  C   UNL     1      35.298 -23.611 -10.722  0.00  0.00    +0.038 C 
ATOM     12  C   UNL     1      37.437 -24.350 -11.564  0.00  0.00    +0.000 C 
ATOM     13  C   UNL     1      36.629 -23.957 -10.496  0.00  0.00    +0.003 C 
ENDBRANCH   1   5
BRANCH   1  17
ATOM     14  O   UNL     1      31.776 -21.711 -18.455  0.00  0.00    -0.424 OA
ATOM     15  O   UNL     1      35.726 -22.328 -17.572  0.00  0.00    -0.291 OA
ATOM     16  O   UNL     1      31.085 -23.186 -16.875  0.00  0.00    -0.249 OA
ATOM     17  C   UNL     1      33.449 -22.801 -16.998  0.00  0.00    +0.162 C 
ATOM     18  C   UNL     1      34.535 -22.130 -17.800  0.00  0.00    +0.186 C 
ATOM     19  C   UNL     1      32.015 -22.598 -17.423  0.00  0.00    +0.328 C 
ATOM     20  C   UNL     1      34.135 -21.212 -18.869  0.00  0.00    +0.070 C 
ATOM     21  C   UNL     1      32.790 -21.034 -19.146  0.00  0.00    +0.151 C 
ATOM     22  C   UNL     1      35.094 -20.511 -19.607  0.00  0.00    +0.006 C 
ATOM     23  C   UNL     1      32.378 -20.161 -20.155  0.00  0.00    +0.038 C 
ATOM     24  C   UNL     1      34.689 -19.637 -20.619  0.00  0.00    +0.000 C 
ATOM     25  C   UNL     1      33.333 -19.462 -20.892  0.00  0.00    +0.003 C 
ENDBRANCH   1  17
TORSDOF 2
ENDMDL
MODEL 3
REMARK VINA RESULT:     -11.6      2.925      8.340
REMARK  Name = 17753965
REMARK  2 active torsions:
REMARK  status: ('A' for Active; 'I' for Inactive)
REMARK    1  A    between atoms: C_1  and  C_5
REMARK    2  A    between atoms: C_1  and  C_17
REMARK                            x       y       z     vdW  Elec       q    Type
REMARK                         _______ _______ _______ _____ _____    ______ ____
ROOT
ATOM      1  C   UNL     1      33.890 -21.653 -17.157  0.00  0.00    +0.038 C 
ENDROOT
BRANCH   1   5
ATOM      2  O   UNL     1      36.504 -20.159 -18.928  0.00  0.00    -0.424 OA
ATOM      3  O   UNL     1      32.897 -21.805 -19.943  0.00  0.00    -0.291 OA
ATOM      4  O   UNL     1      36.848 -21.681 -17.280  0.00  0.00    -0.249 OA
ATOM      5  C   UNL     1      34.741 -21.812 -18.414  0.00  0.00    +0.162 C 
ATOM      6  C   UNL     1      33.960 -21.298 -19.598  0.00  0.00    +0.186 C 
ATOM      7  C   UNL     1      36.109 -21.234 -18.154  0.00  0.00    +0.328 C 
ATOM      8  C   UNL     1      34.498 -20.148 -20.329  0.00  0.00    +0.070 C 
ATOM      9  C   UNL     1      35.727 -19.624 -19.966  0.00  0.00    +0.151 C 
ATOM     10  C   UNL     1      33.783 -19.572 -21.385  0.00  0.00    +0.006 C 
ATOM     11  C   UNL     1      36.263 -18.526 -20.639  0.00  0.00    +0.038 C 
ATOM     12  C   UNL     1      34.313 -18.472 -22.063  0.00  0.00    +0.000 C 
ATOM     13  C   UNL     1      35.552 -17.949 -21.690  0.00  0.00    +0.003 C 
ENDBRANCH   1   5
BRANCH   1  17
ATOM     14  O   UNL     1      33.258 -23.829 -14.479  0.00  0.00    -0.424 OA
ATOM     15  O   UNL     1      31.021 -22.250 -17.523  0.00  0.00    -0.291 OA
ATOM     16  O   UNL     1      35.119 -23.952 -15.771  0.00  0.00    -0.249 OA
ATOM     17  C   UNL     1      33.189 -22.962 -16.793  0.00  0.00    +0.162 C 
ATOM     18  C   UNL     1      31.717 -22.692 -16.612  0.00  0.00    +0.186 C 
ATOM     19  C   UNL     1      33.940 -23.619 -15.661  0.00  0.00    +0.328 C 
ATOM     20  C   UNL     1      31.122 -22.963 -15.301  0.00  0.00    +0.070 C 
ATOM     21  C   UNL     1      31.906 -23.505 -14.296  0.00  0.00    +0.151 C 
ATOM     22  C   UNL     1      29.776 -22.675 -15.052  0.00  0.00    +0.006 C 
ATOM     23  C   UNL     1      31.369 -23.768 -13.035  0.00  0.00    +0.038 C 
ATOM     24  C   UNL     1      29.233 -22.937 -13.792  0.00  0.00    +0.000 C 
ATOM     25  C   UNL     1      30.028 -23.482 -12.785  0.00  0.00    +0.003 C 
ENDBRANCH   1  17
TORSDOF 2
ENDMDL
MODEL 4
REMARK VINA RESULT:     -11.4      1.871      3.785
REMARK  Name = 17753965
REMARK  2 active torsions:
REMARK  status: ('A' for Active; 'I' for Inactive)
REMARK    1  A    between atoms: C_1  and  C_5
REMARK    2  A    between atoms: C_1  and  C_17
REMARK                            x       y       z     vdW  Elec       q    Type
REMARK                         _______ _______ _______ _____ _____    ______ ____
ROOT
ATOM      1  C   UNL     1      35.390 -16.519 -22.959  0.00  0.00    +0.038 C 
ENDROOT
BRANCH   1   5
ATOM      2  O   UNL     1      33.407 -19.298 -22.219  0.00  0.00    -0.424 OA
ATOM      3  O   UNL     1      37.367 -18.370 -21.758  0.00  0.00    -0.291 OA
ATOM      4  O   UNL     1      33.271 -18.181 -24.189  0.00  0.00    -0.249 OA
ATOM      5  C   UNL     1      35.370 -18.044 -23.041  0.00  0.00    +0.162 C 
ATOM      6  C   UNL     1      36.169 -18.604 -21.890  0.00  0.00    +0.186 C 
ATOM      7  C   UNL     1      33.945 -18.505 -23.214  0.00  0.00    +0.328 C 
ATOM      8  C   UNL     1      35.468 -19.432 -20.905  0.00  0.00    +0.070 C 
ATOM      9  C   UNL     1      34.131 -19.735 -21.099  0.00  0.00    +0.151 C 
ATOM     10  C   UNL     1      36.131 -19.914 -19.773  0.00  0.00    +0.006 C 
ATOM     11  C   UNL     1      33.434 -20.516 -20.177  0.00  0.00    +0.038 C 
ATOM     12  C   UNL     1      35.440 -20.695 -18.844  0.00  0.00    +0.000 C 
ATOM     13  C   UNL     1      34.092 -20.996 -19.046  0.00  0.00    +0.003 C 
ENDBRANCH   1   5
BRANCH   1  17
ATOM     14  O   UNL     1      33.790 -14.034 -21.070  0.00  0.00    -0.424 OA
ATOM     15  O   UNL     1      33.365 -15.522 -24.861  0.00  0.00    -0.291 OA
ATOM     16  O   UNL     1      34.366 -16.061 -20.228  0.00  0.00    -0.249 OA
ATOM     17  C   UNL     1      34.013 -15.965 -22.598  0.00  0.00    +0.162 C 
ATOM     18  C   UNL     1      33.531 -15.087 -23.724  0.00  0.00    +0.186 C 
ATOM     19  C   UNL     1      34.071 -15.380 -21.208  0.00  0.00    +0.328 C 
ATOM     20  C   UNL     1      33.269 -13.675 -23.434  0.00  0.00    +0.070 C 
ATOM     21  C   UNL     1      33.414 -13.207 -22.139  0.00  0.00    +0.151 C 
ATOM     22  C   UNL     1      32.880 -12.795 -24.449  0.00  0.00    +0.006 C 
ATOM     23  C   UNL     1      33.178 -11.866 -21.832  0.00  0.00    +0.038 C 
ATOM     24  C   UNL     1      32.641 -11.451 -24.149  0.00  0.00    +0.000 C 
ATOM     25  C   UNL     1      32.790 -10.987 -22.843  0.00  0.00    +0.003 C 
ENDBRANCH   1  17
TORSDOF 2
ENDMDL
MODEL 5
REMARK VINA RESULT:     -11.1      2.416      4.630
REMARK  Name = 17753965
REMARK  2 active torsions:
REMARK  status: ('A' for Active; 'I' for Inactive)
REMARK    1  A    between atoms: C_1  and  C_5
REMARK    2  A    between atoms: C_1  and  C_17
REMARK                            x       y       z     vdW  Elec       q    Type
REMARK                         _______ _______ _______ _____ _____    ______ ____
ROOT
ATOM      1  C   UNL     1      34.256 -21.494 -17.224  0.00  0.00    +0.038 C 
ENDROOT
BRANCH   1   5
ATOM      2  O   UNL     1      33.218 -23.463 -14.532  0.00  0.00    -0.424 OA
ATOM      3  O   UNL     1      36.842 -22.448 -16.139  0.00  0.00    -0.291 OA
ATOM      4  O   UNL     1      32.224 -23.546 -16.570  0.00  0.00    -0.249 OA
ATOM      5  C   UNL     1      34.513 -22.834 -16.539  0.00  0.00    +0.162 C 
ATOM      6  C   UNL     1      35.739 -22.710 -15.670  0.00  0.00    +0.186 C 
ATOM      7  C   UNL     1      33.231 -23.312 -15.905  0.00  0.00    +0.328 C 
ATOM      8  C   UNL     1      35.579 -22.895 -14.225  0.00  0.00    +0.070 C 
ATOM      9  C   UNL     1      34.341 -23.250 -13.717  0.00  0.00    +0.151 C 
ATOM     10  C   UNL     1      36.659 -22.714 -13.356  0.00  0.00    +0.006 C 
ATOM     11  C   UNL     1      34.155 -23.428 -12.346  0.00  0.00    +0.038 C 
ATOM     12  C   UNL     1      36.480 -22.889 -11.982  0.00  0.00    +0.000 C 
ATOM     13  C   UNL     1      35.229 -23.245 -11.477  0.00  0.00    +0.003 C 
ENDBRANCH   1   5
BRANCH   1  17
ATOM     14  O   UNL     1      32.916 -20.117 -20.158  0.00  0.00    -0.424 OA
ATOM     15  O   UNL     1      36.628 -21.382 -18.980  0.00  0.00    -0.291 OA
ATOM     16  O   UNL     1      31.869 -21.724 -18.945  0.00  0.00    -0.249 OA
ATOM     17  C   UNL     1      34.257 -21.639 -18.745  0.00  0.00    +0.162 C 
ATOM     18  C   UNL     1      35.505 -20.996 -19.295  0.00  0.00    +0.186 C 
ATOM     19  C   UNL     1      32.922 -21.183 -19.279  0.00  0.00    +0.328 C 
ATOM     20  C   UNL     1      35.350 -19.872 -20.222  0.00  0.00    +0.070 C 
ATOM     21  C   UNL     1      34.080 -19.476 -20.606  0.00  0.00    +0.151 C 
ATOM     22  C   UNL     1      36.468 -19.194 -20.719  0.00  0.00    +0.006 C 
ATOM     23  C   UNL     1      33.900 -18.406 -21.484  0.00  0.00    +0.038 C 
ATOM     24  C   UNL     1      36.294 -18.122 -21.598  0.00  0.00    +0.000 C 
ATOM     25  C   UNL     1      35.013 -17.728 -21.980  0.00  0.00    +0.003 C 
ENDBRANCH   1  17
TORSDOF 2
ENDMDL
MODEL 6
REMARK VINA RESULT:     -11.1      3.805      9.388
REMARK  Name = 17753965
REMARK  2 active torsions:
REMARK  status: ('A' for Active; 'I' for Inactive)
REMARK    1  A    between atoms: C_1  and  C_5
REMARK    2  A    between atoms: C_1  and  C_17
REMARK                            x       y       z     vdW  Elec       q    Type
REMARK                         _______ _______ _______ _____ _____    ______ ____
ROOT
ATOM      1  C   UNL     1      34.850 -21.922 -14.939  0.00  0.00    +0.038 C 
ENDROOT
BRANCH   1   5
ATOM      2  O   UNL     1      36.284 -21.178 -18.036  0.00  0.00    -0.424 OA
ATOM      3  O   UNL     1      32.781 -22.907 -16.816  0.00  0.00    -0.291 OA
ATOM      4  O   UNL     1      37.456 -22.113 -16.332  0.00  0.00    -0.249 OA
ATOM      5  C   UNL     1      35.091 -22.507 -16.329  0.00  0.00    +0.162 C 
ATOM      6  C   UNL     1      33.831 -22.362 -17.144  0.00  0.00    +0.186 C 
ATOM      7  C   UNL     1      36.372 -21.935 -16.883  0.00  0.00    +0.328 C 
ATOM      8  C   UNL     1      33.882 -21.527 -18.347  0.00  0.00    +0.070 C 
ATOM      9  C   UNL     1      35.087 -20.967 -18.736  0.00  0.00    +0.151 C 
ATOM     10  C   UNL     1      32.729 -21.286 -19.101  0.00  0.00    +0.006 C 
ATOM     11  C   UNL     1      35.167 -20.163 -19.873  0.00  0.00    +0.038 C 
ATOM     12  C   UNL     1      32.802 -20.480 -20.240  0.00  0.00    +0.000 C 
ATOM     13  C   UNL     1      34.019 -19.919 -20.626  0.00  0.00    +0.003 C 
ENDBRANCH   1   5
BRANCH   1  17
ATOM     14  O   UNL     1      35.379 -25.346 -14.394  0.00  0.00    -0.424 OA
ATOM     15  O   UNL     1      37.178 -21.895 -13.124  0.00  0.00    -0.291 OA
ATOM     16  O   UNL     1      33.321 -24.391 -14.409  0.00  0.00    -0.249 OA
ATOM     17  C   UNL     1      35.151 -22.947 -13.846  0.00  0.00    +0.162 C 
ATOM     18  C   UNL     1      36.626 -22.911 -13.538  0.00  0.00    +0.186 C 
ATOM     19  C   UNL     1      34.532 -24.268 -14.232  0.00  0.00    +0.328 C 
ATOM     20  C   UNL     1      37.406 -24.132 -13.755  0.00  0.00    +0.070 C 
ATOM     21  C   UNL     1      36.763 -25.284 -14.177  0.00  0.00    +0.151 C 
ATOM     22  C   UNL     1      38.788 -24.146 -13.546  0.00  0.00    +0.006 C 
ATOM     23  C   UNL     1      37.480 -26.461 -14.398  0.00  0.00    +0.038 C 
ATOM     24  C   UNL     1      39.512 -25.321 -13.766  0.00  0.00    +0.000 C 
ATOM     25  C   UNL     1      38.859 -26.477 -14.191  0.00  0.00    +0.003 C 
ENDBRANCH   1  17
TORSDOF 2
ENDMDL
MODEL 7
REMARK VINA RESULT:     -11.1      6.742      9.187
REMARK  Name = 17753965
REMARK  2 active torsions:
REMARK  status: ('A' for Active; 'I' for Inactive)
REMARK    1  A    between atoms: C_1  and  C_5
REMARK    2  A    between atoms: C_1  and  C_17
REMARK                            x       y       z     vdW  Elec       q    Type
REMARK                         _______ _______ _______ _____ _____    ______ ____
ROOT
ATOM      1  C   UNL     1      34.453 -23.675 -15.127  0.00  0.00    +0.038 C 
ENDROOT
BRANCH   1   5
ATOM      2  O   UNL     1      37.822 -22.841 -15.520  0.00  0.00    -0.424 OA
ATOM      3  O   UNL     1      35.614 -24.630 -12.575  0.00  0.00    -0.291 OA
ATOM      4  O   UNL     1      36.134 -21.425 -16.065  0.00  0.00    -0.249 OA
ATOM      5  C   UNL     1      35.639 -23.063 -14.386  0.00  0.00    +0.162 C 
ATOM      6  C   UNL     1      36.248 -24.112 -13.490  0.00  0.00    +0.186 C 
ATOM      7  C   UNL     1      36.532 -22.367 -15.383  0.00  0.00    +0.328 C 
ATOM      8  C   UNL     1      37.630 -24.521 -13.751  0.00  0.00    +0.070 C 
ATOM      9  C   UNL     1      38.352 -23.885 -14.748  0.00  0.00    +0.151 C 
ATOM     10  C   UNL     1      38.227 -25.545 -13.009  0.00  0.00    +0.006 C 
ATOM     11  C   UNL     1      39.668 -24.256 -15.024  0.00  0.00    +0.038 C 
ATOM     12  C   UNL     1      39.544 -25.922 -13.281  0.00  0.00    +0.000 C 
ATOM     13  C   UNL     1      40.264 -25.278 -14.288  0.00  0.00    +0.003 C 
ENDBRANCH   1   5
BRANCH   1  17
ATOM     14  O   UNL     1      31.277 -23.125 -16.509  0.00  0.00    -0.424 OA
ATOM     15  O   UNL     1      32.785 -23.371 -12.710  0.00  0.00    -0.291 OA
ATOM     16  O   UNL     1      33.167 -22.158 -17.308  0.00  0.00    -0.249 OA
ATOM     17  C   UNL     1      33.207 -22.801 -14.999  0.00  0.00    +0.162 C 
ATOM     18  C   UNL     1      32.363 -23.320 -13.863  0.00  0.00    +0.186 C 
ATOM     19  C   UNL     1      32.568 -22.659 -16.359  0.00  0.00    +0.328 C 
ATOM     20  C   UNL     1      31.006 -23.782 -14.167  0.00  0.00    +0.070 C 
ATOM     21  C   UNL     1      30.525 -23.676 -15.461  0.00  0.00    +0.151 C 
ATOM     22  C   UNL     1      30.196 -24.332 -13.169  0.00  0.00    +0.006 C 
ATOM     23  C   UNL     1      29.239 -24.113 -15.783  0.00  0.00    +0.038 C 
ATOM     24  C   UNL     1      28.907 -24.771 -13.484  0.00  0.00    +0.000 C 
ATOM     25  C   UNL     1      28.429 -24.662 -14.789  0.00  0.00    +0.003 C 
ENDBRANCH   1  17
TORSDOF 2
ENDMDL
MODEL 8
REMARK VINA RESULT:     -11.0      1.310      7.594
REMARK  Name = 17753965
REMARK  2 active torsions:
REMARK  status: ('A' for Active; 'I' for Inactive)
REMARK    1  A    between atoms: C_1  and  C_5
REMARK    2  A    between atoms: C_1  and  C_17
REMARK                            x       y       z     vdW  Elec       q    Type
REMARK                         _______ _______ _______ _____ _____    ______ ____
ROOT
ATOM      1  C   UNL     1      33.923 -19.444 -20.406  0.00  0.00    +0.038 C 
ENDROOT
BRANCH   1   5
ATOM      2  O   UNL     1      35.556 -16.669 -21.760  0.00  0.00    -0.424 OA
ATOM      3  O   UNL     1      33.357 -19.760 -23.296  0.00  0.00    -0.291 OA
ATOM      4  O   UNL     1      36.493 -17.992 -20.172  0.00  0.00    -0.249 OA
ATOM      5  C   UNL     1      34.831 -19.022 -21.558  0.00  0.00    +0.162 C 
ATOM      6  C   UNL     1      33.991 -18.835 -22.797  0.00  0.00    +0.186 C 
ATOM      7  C   UNL     1      35.698 -17.876 -21.102  0.00  0.00    +0.328 C 
ATOM      8  C   UNL     1      33.931 -17.497 -23.391  0.00  0.00    +0.070 C 
ATOM      9  C   UNL     1      34.697 -16.477 -22.853  0.00  0.00    +0.151 C 
ATOM     10  C   UNL     1      33.107 -17.238 -24.491  0.00  0.00    +0.006 C 
ATOM     11  C   UNL     1      34.658 -15.192 -23.393  0.00  0.00    +0.038 C 
ATOM     12  C   UNL     1      33.061 -15.953 -25.036  0.00  0.00    +0.000 C 
ATOM     13  C   UNL     1      33.836 -14.930 -24.488  0.00  0.00    +0.003 C 
ENDBRANCH   1   5
BRANCH   1  17
ATOM     14  O   UNL     1      35.381 -21.688 -18.139  0.00  0.00    -0.424 OA
ATOM     15  O   UNL     1      31.722 -21.357 -19.947  0.00  0.00    -0.291 OA
ATOM     16  O   UNL     1      36.468 -20.871 -19.955  0.00  0.00    -0.249 OA
ATOM     17  C   UNL     1      34.075 -20.933 -20.097  0.00  0.00    +0.162 C 
ATOM     18  C   UNL     1      32.824 -21.417 -19.408  0.00  0.00    +0.186 C 
ATOM     19  C   UNL     1      35.401 -21.156 -19.413  0.00  0.00    +0.328 C 
ATOM     20  C   UNL     1      32.950 -21.962 -18.054  0.00  0.00    +0.070 C 
ATOM     21  C   UNL     1      34.204 -22.067 -17.476  0.00  0.00    +0.151 C 
ATOM     22  C   UNL     1      31.820 -22.370 -17.338  0.00  0.00    +0.006 C 
ATOM     23  C   UNL     1      34.356 -22.576 -16.185  0.00  0.00    +0.038 C 
ATOM     24  C   UNL     1      31.965 -22.881 -16.046  0.00  0.00    +0.000 C 
ATOM     25  C   UNL     1      33.230 -22.984 -15.470  0.00  0.00    +0.003 C 
ENDBRANCH   1  17
TORSDOF 2
ENDMDL
MODEL 9
REMARK VINA RESULT:     -11.0      1.903      7.542
REMARK  Name = 17753965
REMARK  2 active torsions:
REMARK  status: ('A' for Active; 'I' for Inactive)
REMARK    1  A    between atoms: C_1  and  C_5
REMARK    2  A    between atoms: C_1  and  C_17
REMARK                            x       y       z     vdW  Elec       q    Type
REMARK                         _______ _______ _______ _____ _____    ______ ____
ROOT
ATOM      1  C   UNL     1      35.359 -16.582 -22.397  0.00  0.00    +0.038 C 
ENDROOT
BRANCH   1   5
ATOM      2  O   UNL     1      33.475 -14.562 -24.535  0.00  0.00    -0.424 OA
ATOM      3  O   UNL     1      33.521 -15.243 -20.500  0.00  0.00    -0.291 OA
ATOM      4  O   UNL     1      33.968 -16.726 -25.007  0.00  0.00    -0.249 OA
ATOM      5  C   UNL     1      33.928 -16.135 -22.685  0.00  0.00    +0.162 C 
ATOM      6  C   UNL     1      33.553 -15.046 -21.711  0.00  0.00    +0.186 C 
ATOM      7  C   UNL     1      33.791 -15.853 -24.160  0.00  0.00    +0.328 C 
ATOM      8  C   UNL     1      33.241 -13.720 -22.249  0.00  0.00    +0.070 C 
ATOM      9  C   UNL     1      33.223 -13.528 -23.621  0.00  0.00    +0.151 C 
ATOM     10  C   UNL     1      32.965 -12.647 -21.396  0.00  0.00    +0.006 C 
ATOM     11  C   UNL     1      32.935 -12.276 -24.164  0.00  0.00    +0.038 C 
ATOM     12  C   UNL     1      32.677 -11.390 -21.933  0.00  0.00    +0.000 C 
ATOM     13  C   UNL     1      32.662 -11.204 -23.315  0.00  0.00    +0.003 C 
ENDBRANCH   1   5
BRANCH   1  17
ATOM     14  O   UNL     1      36.585 -19.375 -20.666  0.00  0.00    -0.424 OA
ATOM     15  O   UNL     1      33.142 -18.508 -22.705  0.00  0.00    -0.291 OA
ATOM     16  O   UNL     1      37.855 -18.124 -22.070  0.00  0.00    -0.249 OA
ATOM     17  C   UNL     1      35.492 -18.102 -22.481  0.00  0.00    +0.162 C 
ATOM     18  C   UNL     1      34.180 -18.729 -22.086  0.00  0.00    +0.186 C 
ATOM     19  C   UNL     1      36.739 -18.524 -21.743  0.00  0.00    +0.328 C 
ATOM     20  C   UNL     1      34.163 -19.617 -20.920  0.00  0.00    +0.070 C 
ATOM     21  C   UNL     1      35.348 -19.895 -20.259  0.00  0.00    +0.151 C 
ATOM     22  C   UNL     1      32.967 -20.180 -20.465  0.00  0.00    +0.006 C 
ATOM     23  C   UNL     1      35.364 -20.731 -19.142  0.00  0.00    +0.038 C 
ATOM     24  C   UNL     1      32.975 -21.019 -19.348  0.00  0.00    +0.000 C 
ATOM     25  C   UNL     1      34.172 -21.294 -18.687  0.00  0.00    +0.003 C 
ENDBRANCH   1  17
TORSDOF 2
ENDMDL
