MODEL 1
REMARK VINA RESULT:     -10.9      0.000      0.000
REMARK  Name = 224246
REMARK  6 active torsions:
REMARK  status: ('A' for Active; 'I' for Inactive)
REMARK    1  A    between atoms: C_7  and  O_22
REMARK    2  A    between atoms: C_7  and  C_27
REMARK    3  A    between atoms: C_10  and  O_24
REMARK    4  A    between atoms: C_27  and  C_28
REMARK    5  A    between atoms: C_28  and  O_29
REMARK    6  A    between atoms: O_29  and  C_31
REMARK                            x       y       z     vdW  Elec       q    Type
REMARK                         _______ _______ _______ _____ _____    ______ ____
ROOT
ATOM      1  F   UNL     1      34.765 -25.086 -14.776  0.00  0.00    -0.237 F 
ATOM      2  O   UNL     1      39.502 -26.119 -14.233  0.00  0.00    -0.287 OA
ATOM      3  C   UNL     1      31.792 -23.233 -14.523  0.00  0.00    +0.032 C 
ATOM      4  C   UNL     1      32.892 -23.126 -15.603  0.00  0.00    +0.005 C 
ATOM      5  C   UNL     1      34.280 -22.796 -15.032  0.00  0.00    +0.033 C 
ATOM      6  C   UNL     1      34.705 -23.921 -14.027  0.00  0.00    +0.164 C 
ATOM      7  C   UNL     1      30.560 -23.486 -15.436  0.00  0.00    +0.143 C 
ATOM      8  C   UNL     1      32.193 -24.380 -13.573  0.00  0.00    +0.035 C 
ATOM      9  C   UNL     1      32.282 -22.184 -16.637  0.00  0.00    +0.003 C 
ATOM     10  C   UNL     1      33.603 -24.200 -12.962  0.00  0.00    +0.141 C 
ATOM     11  C   UNL     1      36.166 -23.698 -13.471  0.00  0.00    +0.064 C 
ATOM     12  C   UNL     1      30.782 -22.543 -16.641  0.00  0.00    +0.034 C 
ATOM     13  C   UNL     1      35.306 -22.649 -16.171  0.00  0.00    +0.007 C 
ATOM     14  C   UNL     1      31.582 -21.912 -13.729  0.00  0.00    +0.003 C 
ATOM     15  C   UNL     1      36.722 -22.433 -15.648  0.00  0.00    +0.023 C 
ATOM     16  C   UNL     1      37.096 -23.524 -14.678  0.00  0.00    -0.035 C 
ATOM     17  C   UNL     1      36.321 -22.445 -12.577  0.00  0.00    +0.011 C 
ATOM     18  C   UNL     1      36.591 -24.885 -12.618  0.00  0.00    -0.017 C 
ATOM     19  C   UNL     1      38.161 -24.304 -14.919  0.00  0.00    +0.034 C 
ATOM     20  C   UNL     1      37.649 -25.667 -12.853  0.00  0.00    +0.038 C 
ATOM     21  C   UNL     1      38.518 -25.418 -14.017  0.00  0.00    +0.195 C 
ENDROOT
BRANCH   7  22
ATOM     22  O   UNL     1      30.525 -24.836 -15.890  0.00  0.00    -0.380 OA
ATOM     23  H   UNL     1      31.430 -25.181 -15.946  0.00  0.00    +0.211 HD
ENDBRANCH   7  22
BRANCH  10  24
ATOM     24  O   UNL     1      33.544 -23.198 -11.961  0.00  0.00    -0.382 OA
ATOM     25  H   UNL     1      32.889 -22.528 -12.211  0.00  0.00    +0.210 HD
ENDBRANCH  10  24
BRANCH   7  27
ATOM     26  O   UNL     1      28.792 -24.103 -13.962  0.00  0.00    -0.290 OA
ATOM     27  C   UNL     1      29.233 -23.283 -14.766  0.00  0.00    +0.218 C 
BRANCH  27  28
ATOM     28  C   UNL     1      28.481 -22.024 -15.137  0.00  0.00    +0.274 C 
BRANCH  28  29
ATOM     29  O   UNL     1      27.139 -22.322 -15.464  0.00  0.00    -0.440 OA
BRANCH  29  31
ATOM     30  O   UNL     1      27.235 -23.100 -17.637  0.00  0.00    -0.250 OA
ATOM     31  C   UNL     1      26.825 -22.308 -16.800  0.00  0.00    +0.318 C 
ATOM     32  C   UNL     1      25.894 -21.173 -17.102  0.00  0.00    +0.121 C 
ENDBRANCH  29  31
ENDBRANCH  28  29
ENDBRANCH  27  28
ENDBRANCH   7  27
TORSDOF 6
ENDMDL
MODEL 2
REMARK VINA RESULT:      -8.6     15.775     18.327
REMARK  Name = 224246
REMARK  6 active torsions:
REMARK  status: ('A' for Active; 'I' for Inactive)
REMARK    1  A    between atoms: C_7  and  O_22
REMARK    2  A    between atoms: C_7  and  C_27
REMARK    3  A    between atoms: C_10  and  O_24
REMARK    4  A    between atoms: C_27  and  C_28
REMARK    5  A    between atoms: C_28  and  O_29
REMARK    6  A    between atoms: O_29  and  C_31
REMARK                            x       y       z     vdW  Elec       q    Type
REMARK                         _______ _______ _______ _____ _____    ______ ____
ROOT
ATOM      1  F   UNL     1      30.098  -6.517 -22.805  0.00  0.00    -0.237 F 
ATOM      2  O   UNL     1      29.582  -1.786 -23.875  0.00  0.00    -0.287 OA
ATOM      3  C   UNL     1      31.761  -9.518 -22.050  0.00  0.00    +0.032 C 
ATOM      4  C   UNL     1      31.345  -8.390 -21.080  0.00  0.00    +0.005 C 
ATOM      5  C   UNL     1      31.947  -7.022 -21.437  0.00  0.00    +0.033 C 
ATOM      6  C   UNL     1      31.479  -6.611 -22.875  0.00  0.00    +0.164 C 
ATOM      7  C   UNL     1      31.060 -10.721 -21.361  0.00  0.00    +0.143 C 
ATOM      8  C   UNL     1      31.247  -9.130 -23.451  0.00  0.00    +0.035 C 
ATOM      9  C   UNL     1      31.635  -8.982 -19.703  0.00  0.00    +0.003 C 
ATOM     10  C   UNL     1      31.739  -7.740 -23.919  0.00  0.00    +0.141 C 
ATOM     11  C   UNL     1      31.983  -5.169 -23.274  0.00  0.00    +0.064 C 
ATOM     12  C   UNL     1      31.286 -10.477 -19.851  0.00  0.00    +0.034 C 
ATOM     13  C   UNL     1      31.534  -5.966 -20.394  0.00  0.00    +0.007 C 
ATOM     14  C   UNL     1      33.297  -9.764 -22.080  0.00  0.00    +0.003 C 
ATOM     15  C   UNL     1      32.014  -4.568 -20.766  0.00  0.00    +0.023 C 
ATOM     16  C   UNL     1      31.557  -4.209 -22.157  0.00  0.00    -0.035 C 
ATOM     17  C   UNL     1      33.517  -5.053 -23.431  0.00  0.00    +0.011 C 
ATOM     18  C   UNL     1      31.385  -4.754 -24.612  0.00  0.00    -0.017 C 
ATOM     19  C   UNL     1      30.786  -3.128 -22.355  0.00  0.00    +0.034 C 
ATOM     20  C   UNL     1      30.616  -3.681 -24.815  0.00  0.00    +0.038 C 
ATOM     21  C   UNL     1      30.274  -2.783 -23.697  0.00  0.00    +0.195 C 
ENDROOT
BRANCH   7  22
ATOM     22  O   UNL     1      29.662 -10.728 -21.637  0.00  0.00    -0.380 OA
ATOM     23  H   UNL     1      29.181 -11.043 -20.856  0.00  0.00    +0.211 HD
ENDBRANCH   7  22
BRANCH  10  24
ATOM     24  O   UNL     1      33.105  -7.837 -24.289  0.00  0.00    -0.382 OA
ATOM     25  H   UNL     1      33.560  -7.012 -24.064  0.00  0.00    +0.210 HD
ENDBRANCH  10  24
BRANCH   7  27
ATOM     26  O   UNL     1      31.460 -12.406 -22.997  0.00  0.00    -0.290 OA
ATOM     27  C   UNL     1      31.537 -12.068 -21.818  0.00  0.00    +0.218 C 
BRANCH  27  28
ATOM     28  C   UNL     1      32.111 -12.973 -20.749  0.00  0.00    +0.274 C 
BRANCH  28  29
ATOM     29  O   UNL     1      33.497 -13.158 -20.945  0.00  0.00    -0.440 OA
BRANCH  29  31
ATOM     30  O   UNL     1      34.164 -15.244 -20.211  0.00  0.00    -0.250 OA
ATOM     31  C   UNL     1      33.917 -14.454 -21.111  0.00  0.00    +0.318 C 
ATOM     32  C   UNL     1      34.035 -14.778 -22.570  0.00  0.00    +0.121 C 
ENDBRANCH  29  31
ENDBRANCH  28  29
ENDBRANCH  27  28
ENDBRANCH   7  27
TORSDOF 6
ENDMDL
MODEL 3
REMARK VINA RESULT:      -8.1      1.752      8.022
REMARK  Name = 224246
REMARK  6 active torsions:
REMARK  status: ('A' for Active; 'I' for Inactive)
REMARK    1  A    between atoms: C_7  and  O_22
REMARK    2  A    between atoms: C_7  and  C_27
REMARK    3  A    between atoms: C_10  and  O_24
REMARK    4  A    between atoms: C_27  and  C_28
REMARK    5  A    between atoms: C_28  and  O_29
REMARK    6  A    between atoms: O_29  and  C_31
REMARK                            x       y       z     vdW  Elec       q    Type
REMARK                         _______ _______ _______ _____ _____    ______ ____
ROOT
ATOM      1  F   UNL     1      31.894 -22.122 -13.910  0.00  0.00    -0.237 F 
ATOM      2  O   UNL     1      27.351 -21.269 -15.469  0.00  0.00    -0.287 OA
ATOM      3  C   UNL     1      34.960 -23.807 -13.592  0.00  0.00    +0.032 C 
ATOM      4  C   UNL     1      34.531 -22.810 -14.692  0.00  0.00    +0.005 C 
ATOM      5  C   UNL     1      33.271 -23.246 -15.456  0.00  0.00    +0.033 C 
ATOM      6  C   UNL     1      32.079 -23.386 -14.447  0.00  0.00    +0.164 C 
ATOM      7  C   UNL     1      36.260 -23.109 -13.106  0.00  0.00    +0.143 C 
ATOM      8  C   UNL     1      33.803 -23.895 -12.577  0.00  0.00    +0.035 C 
ATOM      9  C   UNL     1      35.818 -22.573 -15.477  0.00  0.00    +0.003 C 
ATOM     10  C   UNL     1      32.451 -24.278 -13.224  0.00  0.00    +0.141 C 
ATOM     11  C   UNL     1      30.724 -23.740 -15.177  0.00  0.00    +0.064 C 
ATOM     12  C   UNL     1      36.928 -22.603 -14.406  0.00  0.00    +0.034 C 
ATOM     13  C   UNL     1      32.942 -22.233 -16.568  0.00  0.00    +0.007 C 
ATOM     14  C   UNL     1      35.309 -25.218 -14.147  0.00  0.00    +0.003 C 
ATOM     15  C   UNL     1      31.636 -22.563 -17.282  0.00  0.00    +0.023 C 
ATOM     16  C   UNL     1      30.514 -22.701 -16.285  0.00  0.00    -0.035 C 
ATOM     17  C   UNL     1      30.705 -25.139 -15.837  0.00  0.00    +0.011 C 
ATOM     18  C   UNL     1      29.572 -23.723 -14.182  0.00  0.00    -0.017 C 
ATOM     19  C   UNL     1      29.433 -21.911 -16.371  0.00  0.00    +0.034 C 
ATOM     20  C   UNL     1      28.494 -22.937 -14.262  0.00  0.00    +0.038 C 
ATOM     21  C   UNL     1      28.344 -21.983 -15.375  0.00  0.00    +0.195 C 
ENDROOT
BRANCH   7  22
ATOM     22  O   UNL     1      35.963 -21.999 -12.263  0.00  0.00    -0.380 OA
ATOM     23  H   UNL     1      36.368 -22.138 -11.393  0.00  0.00    +0.211 HD
ENDBRANCH   7  22
BRANCH  10  24
ATOM     24  O   UNL     1      32.470 -25.660 -13.541  0.00  0.00    -0.382 OA
ATOM     25  H   UNL     1      31.582 -25.943 -13.808  0.00  0.00    +0.210 HD
ENDBRANCH  10  24
BRANCH   7  27
ATOM     26  O   UNL     1      36.765 -24.507 -11.244  0.00  0.00    -0.290 OA
ATOM     27  C   UNL     1      37.163 -23.975 -12.278  0.00  0.00    +0.218 C 
BRANCH  27  28
ATOM     28  C   UNL     1      38.577 -24.150 -12.790  0.00  0.00    +0.274 C 
BRANCH  28  29
ATOM     29  O   UNL     1      38.838 -25.508 -13.078  0.00  0.00    -0.440 OA
BRANCH  29  31
ATOM     30  O   UNL     1      40.846 -26.499 -13.647  0.00  0.00    -0.250 OA
ATOM     31  C   UNL     1      39.907 -25.757 -13.902  0.00  0.00    +0.318 C 
ATOM     32  C   UNL     1      39.768 -24.986 -15.179  0.00  0.00    +0.121 C 
ENDBRANCH  29  31
ENDBRANCH  28  29
ENDBRANCH  27  28
ENDBRANCH   7  27
TORSDOF 6
ENDMDL
MODEL 4
REMARK VINA RESULT:      -8.0     18.730     20.939
REMARK  Name = 224246
REMARK  6 active torsions:
REMARK  status: ('A' for Active; 'I' for Inactive)
REMARK    1  A    between atoms: C_7  and  O_22
REMARK    2  A    between atoms: C_7  and  C_27
REMARK    3  A    between atoms: C_10  and  O_24
REMARK    4  A    between atoms: C_27  and  C_28
REMARK    5  A    between atoms: C_28  and  O_29
REMARK    6  A    between atoms: O_29  and  C_31
REMARK                            x       y       z     vdW  Elec       q    Type
REMARK                         _______ _______ _______ _____ _____    ______ ____
ROOT
ATOM      1  F   UNL     1      31.450  -4.832 -26.066  0.00  0.00    -0.237 F 
ATOM      2  O   UNL     1      32.100  -2.022 -30.000  0.00  0.00    -0.287 OA
ATOM      3  C   UNL     1      32.233  -6.383 -23.013  0.00  0.00    +0.032 C 
ATOM      4  C   UNL     1      31.663  -4.966 -23.242  0.00  0.00    +0.005 C 
ATOM      5  C   UNL     1      32.556  -4.082 -24.126  0.00  0.00    +0.033 C 
ATOM      6  C   UNL     1      32.726  -4.761 -25.529  0.00  0.00    +0.164 C 
ATOM      7  C   UNL     1      31.151  -6.943 -22.049  0.00  0.00    +0.143 C 
ATOM      8  C   UNL     1      32.343  -7.061 -24.394  0.00  0.00    +0.035 C 
ATOM      9  C   UNL     1      31.325  -4.488 -21.832  0.00  0.00    +0.003 C 
ATOM     10  C   UNL     1      33.180  -6.247 -25.408  0.00  0.00    +0.141 C 
ATOM     11  C   UNL     1      33.556  -3.861 -26.527  0.00  0.00    +0.064 C 
ATOM     12  C   UNL     1      30.832  -5.758 -21.108  0.00  0.00    +0.034 C 
ATOM     13  C   UNL     1      31.951  -2.672 -24.260  0.00  0.00    +0.007 C 
ATOM     14  C   UNL     1      33.612  -6.380 -22.294  0.00  0.00    +0.003 C 
ATOM     15  C   UNL     1      32.743  -1.792 -25.220  0.00  0.00    +0.023 C 
ATOM     16  C   UNL     1      32.897  -2.477 -26.554  0.00  0.00    -0.035 C 
ATOM     17  C   UNL     1      35.037  -3.666 -26.124  0.00  0.00    +0.011 C 
ATOM     18  C   UNL     1      33.571  -4.489 -27.913  0.00  0.00    -0.017 C 
ATOM     19  C   UNL     1      32.430  -1.894 -27.669  0.00  0.00    +0.034 C 
ATOM     20  C   UNL     1      33.106  -3.915 -29.027  0.00  0.00    +0.038 C 
ATOM     21  C   UNL     1      32.515  -2.566 -28.982  0.00  0.00    +0.195 C 
ENDROOT
BRANCH   7  22
ATOM     22  O   UNL     1      29.973  -7.314 -22.759  0.00  0.00    -0.380 OA
ATOM     23  H   UNL     1      29.319  -7.668 -22.136  0.00  0.00    +0.211 HD
ENDBRANCH   7  22
BRANCH  10  24
ATOM     24  O   UNL     1      34.553  -6.373 -25.076  0.00  0.00    -0.382 OA
ATOM     25  H   UNL     1      34.850  -7.276 -25.264  0.00  0.00    +0.210 HD
ENDBRANCH  10  24
BRANCH   7  27
ATOM     26  O   UNL     1      31.915  -8.145 -20.139  0.00  0.00    -0.290 OA
ATOM     27  C   UNL     1      31.551  -8.187 -21.313  0.00  0.00    +0.218 C 
BRANCH  27  28
ATOM     28  C   UNL     1      31.479  -9.481 -22.096  0.00  0.00    +0.274 C 
BRANCH  28  29
ATOM     29  O   UNL     1      31.406 -10.588 -21.223  0.00  0.00    -0.440 OA
BRANCH  29  31
ATOM     30  O   UNL     1      32.263 -11.975 -22.860  0.00  0.00    -0.250 OA
ATOM     31  C   UNL     1      31.883 -11.778 -21.713  0.00  0.00    +0.318 C 
ATOM     32  C   UNL     1      31.877 -12.822 -20.638  0.00  0.00    +0.121 C 
ENDBRANCH  29  31
ENDBRANCH  28  29
ENDBRANCH  27  28
ENDBRANCH   7  27
TORSDOF 6
ENDMDL
MODEL 5
REMARK VINA RESULT:      -8.0     14.064     16.653
REMARK  Name = 224246
REMARK  6 active torsions:
REMARK  status: ('A' for Active; 'I' for Inactive)
REMARK    1  A    between atoms: C_7  and  O_22
REMARK    2  A    between atoms: C_7  and  C_27
REMARK    3  A    between atoms: C_10  and  O_24
REMARK    4  A    between atoms: C_27  and  C_28
REMARK    5  A    between atoms: C_28  and  O_29
REMARK    6  A    between atoms: O_29  and  C_31
REMARK                            x       y       z     vdW  Elec       q    Type
REMARK                         _______ _______ _______ _____ _____    ______ ____
ROOT
ATOM      1  F   UNL     1      30.857  -8.641 -22.968  0.00  0.00    -0.237 F 
ATOM      2  O   UNL     1      29.781  -3.887 -23.184  0.00  0.00    -0.287 OA
ATOM      3  C   UNL     1      32.745 -11.519 -22.264  0.00  0.00    +0.032 C 
ATOM      4  C   UNL     1      31.810 -10.737 -21.314  0.00  0.00    +0.005 C 
ATOM      5  C   UNL     1      32.206  -9.263 -21.140  0.00  0.00    +0.033 C 
ATOM      6  C   UNL     1      32.171  -8.551 -22.536  0.00  0.00    +0.164 C 
ATOM      7  C   UNL     1      32.113 -12.933 -22.141  0.00  0.00    +0.143 C 
ATOM      8  C   UNL     1      32.660 -10.843 -23.648  0.00  0.00    +0.035 C 
ATOM      9  C   UNL     1      31.737 -11.628 -20.077  0.00  0.00    +0.003 C 
ATOM     10  C   UNL     1      32.987  -9.332 -23.610  0.00  0.00    +0.141 C 
ATOM     11  C   UNL     1      32.476  -7.006 -22.422  0.00  0.00    +0.064 C 
ATOM     12  C   UNL     1      31.768 -13.064 -20.639  0.00  0.00    +0.034 C 
ATOM     13  C   UNL     1      31.264  -8.570 -20.138  0.00  0.00    +0.007 C 
ATOM     14  C   UNL     1      34.219 -11.567 -21.769  0.00  0.00    +0.003 C 
ATOM     15  C   UNL     1      31.547  -7.077 -20.017  0.00  0.00    +0.023 C 
ATOM     16  C   UNL     1      31.517  -6.425 -21.376  0.00  0.00    -0.035 C 
ATOM     17  C   UNL     1      33.918  -6.676 -21.970  0.00  0.00    +0.011 C 
ATOM     18  C   UNL     1      32.288  -6.332 -23.774  0.00  0.00    -0.017 C 
ATOM     19  C   UNL     1      30.654  -5.428 -21.627  0.00  0.00    +0.034 C 
ATOM     20  C   UNL     1      31.430  -5.340 -24.030  0.00  0.00    +0.038 C 
ATOM     21  C   UNL     1      30.561  -4.809 -22.965  0.00  0.00    +0.195 C 
ENDROOT
BRANCH   7  22
ATOM     22  O   UNL     1      30.919 -13.031 -22.912  0.00  0.00    -0.380 OA
ATOM     23  H   UNL     1      31.139 -12.977 -23.855  0.00  0.00    +0.211 HD
ENDBRANCH   7  22
BRANCH  10  24
ATOM     24  O   UNL     1      34.388  -9.170 -23.457  0.00  0.00    -0.382 OA
ATOM     25  H   UNL     1      34.642  -9.398 -22.550  0.00  0.00    +0.210 HD
ENDBRANCH  10  24
BRANCH   7  27
ATOM     26  O   UNL     1      33.046 -14.311 -23.846  0.00  0.00    -0.290 OA
ATOM     27  C   UNL     1      32.977 -14.050 -22.646  0.00  0.00    +0.218 C 
BRANCH  27  28
ATOM     28  C   UNL     1      33.749 -14.826 -21.600  0.00  0.00    +0.274 C 
BRANCH  28  29
ATOM     29  O   UNL     1      34.710 -15.662 -22.209  0.00  0.00    -0.440 OA
BRANCH  29  31
ATOM     30  O   UNL     1      35.255 -17.143 -20.521  0.00  0.00    -0.250 OA
ATOM     31  C   UNL     1      34.864 -16.909 -21.657  0.00  0.00    +0.318 C 
ATOM     32  C   UNL     1      34.483 -17.966 -22.649  0.00  0.00    +0.121 C 
ENDBRANCH  29  31
ENDBRANCH  28  29
ENDBRANCH  27  28
ENDBRANCH   7  27
TORSDOF 6
ENDMDL
