MODEL 1
REMARK VINA RESULT:     -12.6      0.000      0.000
REMARK  Name = 60939
REMARK  9 active torsions:
REMARK  status: ('A' for Active; 'I' for Inactive)
REMARK    1  A    between atoms: N_3  and  C_22
REMARK    2  A    between atoms: N_4  and  N_8
REMARK    3  A    between atoms: N_8  and  C_9
REMARK    4  A    between atoms: C_9  and  C_11
REMARK    5  A    between atoms: C_12  and  C_16
REMARK    6  A    between atoms: C_22  and  C_23
REMARK    7  A    between atoms: C_23  and  C_24
REMARK    8  A    between atoms: C_24  and  C_25
REMARK    9  A    between atoms: C_25  and  N_26
REMARK                            x       y       z     vdW  Elec       q    Type
REMARK                         _______ _______ _______ _____ _____    ______ ____
ROOT
ATOM      1  O   UNL     1      33.748 -15.318 -25.090  0.00  0.00    -0.273 OA
ATOM      2  O   UNL     1      34.265 -14.696 -20.553  0.00  0.00    -0.251 OA
ATOM      3  N   UNL     1      33.884 -14.613 -22.863  0.00  0.00    -0.212 N 
ATOM      4  N   UNL     1      34.570 -16.537 -21.971  0.00  0.00    -0.181 N 
ATOM      5  C   UNL     1      33.986 -15.522 -23.907  0.00  0.00    +0.254 C 
ATOM      6  C   UNL     1      34.244 -15.217 -21.660  0.00  0.00    +0.328 C 
ATOM      7  C   UNL     1      34.448 -16.860 -23.362  0.00  0.00    +0.200 C 
ENDROOT
BRANCH   4   8
ATOM      8  N   UNL     1      34.965 -17.428 -21.051  0.00  0.00    -0.118 NA
BRANCH   8   9
ATOM      9  C   UNL     1      34.778 -18.658 -21.407  0.00  0.00    +0.176 C 
BRANCH   9  11
ATOM     10  O   UNL     1      34.998 -20.108 -19.494  0.00  0.00    -0.456 OA
ATOM     11  C   UNL     1      34.213 -19.645 -20.501  0.00  0.00    +0.142 C 
ATOM     12  C   UNL     1      34.250 -21.004 -18.799  0.00  0.00    +0.145 C 
ATOM     13  C   UNL     1      32.971 -20.235 -20.456  0.00  0.00    +0.038 C 
ATOM     14  C   UNL     1      32.996 -21.120 -19.351  0.00  0.00    +0.040 C 
BRANCH  12  16
ATOM     15 CL   UNL     1      36.971 -23.532 -14.154  0.00  0.00    -0.082 Cl
ATOM     16  C   UNL     1      34.907 -21.616 -17.678  0.00  0.00    +0.035 C 
ATOM     17  C   UNL     1      36.265 -21.386 -17.455  0.00  0.00    +0.004 C 
ATOM     18  C   UNL     1      34.187 -22.438 -16.810  0.00  0.00    +0.004 C 
ATOM     19  C   UNL     1      36.903 -21.979 -16.366  0.00  0.00    +0.011 C 
ATOM     20  C   UNL     1      34.825 -23.031 -15.721  0.00  0.00    +0.011 C 
ATOM     21  C   UNL     1      36.183 -22.801 -15.498  0.00  0.00    +0.058 C 
ENDBRANCH  12  16
ENDBRANCH   9  11
ENDBRANCH   8   9
ENDBRANCH   4   8
BRANCH   3  22
ATOM     22  C   UNL     1      33.466 -13.246 -23.004  0.00  0.00    +0.102 C 
BRANCH  22  23
ATOM     23  C   UNL     1      32.022 -13.029 -22.566  0.00  0.00    +0.020 C 
BRANCH  23  24
ATOM     24  C   UNL     1      31.906 -12.120 -21.340  0.00  0.00    -0.021 C 
BRANCH  24  25
ATOM     25  C   UNL     1      30.849 -11.037 -21.554  0.00  0.00    -0.077 C 
BRANCH  25  26
ATOM     26  N   UNL     1      31.422  -9.714 -21.314  0.00  0.00    +0.384 N 
ATOM     27  N   UNL     1      31.226  -6.887 -20.745  0.00  0.00    +0.383 N 
ATOM     28  C   UNL     1      31.069  -9.228 -19.974  0.00  0.00    -0.101 C 
ATOM     29  C   UNL     1      30.978  -8.760 -22.337  0.00  0.00    -0.101 C 
ATOM     30  C   UNL     1      31.668  -7.841 -19.722  0.00  0.00    -0.101 C 
ATOM     31  C   UNL     1      31.577  -7.371 -22.085  0.00  0.00    -0.101 C 
ATOM     32  C   UNL     1      31.801  -5.564 -20.505  0.00  0.00    -0.101 C 
ATOM     33  H   UNL     1      32.437  -9.796 -21.369  0.00  0.00    -0.080 HD
ATOM     34  H   UNL     1      30.210  -6.803 -20.689  0.00  0.00    -0.080 HD
ENDBRANCH  25  26
ENDBRANCH  24  25
ENDBRANCH  23  24
ENDBRANCH  22  23
ENDBRANCH   3  22
TORSDOF 9
ENDMDL
MODEL 2
REMARK VINA RESULT:     -12.6      2.112      3.506
REMARK  Name = 60939
REMARK  9 active torsions:
REMARK  status: ('A' for Active; 'I' for Inactive)
REMARK    1  A    between atoms: N_3  and  C_22
REMARK    2  A    between atoms: N_4  and  N_8
REMARK    3  A    between atoms: N_8  and  C_9
REMARK    4  A    between atoms: C_9  and  C_11
REMARK    5  A    between atoms: C_12  and  C_16
REMARK    6  A    between atoms: C_22  and  C_23
REMARK    7  A    between atoms: C_23  and  C_24
REMARK    8  A    between atoms: C_24  and  C_25
REMARK    9  A    between atoms: C_25  and  N_26
REMARK                            x       y       z     vdW  Elec       q    Type
REMARK                         _______ _______ _______ _____ _____    ______ ____
ROOT
ATOM      1  O   UNL     1      32.818 -11.260 -23.651  0.00  0.00    -0.273 OA
ATOM      2  O   UNL     1      31.886 -13.710 -19.862  0.00  0.00    -0.251 OA
ATOM      3  N   UNL     1      32.038 -12.228 -21.670  0.00  0.00    -0.212 N 
ATOM      4  N   UNL     1      33.490 -13.915 -21.557  0.00  0.00    -0.181 N 
ATOM      5  C   UNL     1      32.866 -12.115 -22.777  0.00  0.00    +0.254 C 
ATOM      6  C   UNL     1      32.407 -13.329 -20.901  0.00  0.00    +0.328 C 
ATOM      7  C   UNL     1      33.881 -13.242 -22.761  0.00  0.00    +0.200 C 
ENDROOT
BRANCH   4   8
ATOM      8  N   UNL     1      34.113 -15.011 -21.103  0.00  0.00    -0.118 NA
BRANCH   8   9
ATOM      9  C   UNL     1      34.719 -15.684 -22.028  0.00  0.00    +0.176 C 
BRANCH   9  11
ATOM     10  O   UNL     1      34.371 -17.840 -21.010  0.00  0.00    -0.456 OA
ATOM     11  C   UNL     1      34.581 -17.126 -22.146  0.00  0.00    +0.142 C 
ATOM     12  C   UNL     1      34.278 -19.144 -21.382  0.00  0.00    +0.145 C 
ATOM     13  C   UNL     1      34.623 -17.960 -23.241  0.00  0.00    +0.038 C 
ATOM     14  C   UNL     1      34.427 -19.271 -22.743  0.00  0.00    +0.040 C 
BRANCH  12  16
ATOM     15 CL   UNL     1      33.338 -23.001 -16.955  0.00  0.00    -0.082 Cl
ATOM     16  C   UNL     1      34.051 -20.075 -20.312  0.00  0.00    +0.035 C 
ATOM     17  C   UNL     1      32.750 -20.349 -19.890  0.00  0.00    +0.004 C 
ATOM     18  C   UNL     1      35.132 -20.706 -19.696  0.00  0.00    +0.004 C 
ATOM     19  C   UNL     1      32.529 -21.254 -18.852  0.00  0.00    +0.011 C 
ATOM     20  C   UNL     1      34.912 -21.610 -18.658  0.00  0.00    +0.011 C 
ATOM     21  C   UNL     1      33.611 -21.885 -18.236  0.00  0.00    +0.058 C 
ENDBRANCH  12  16
ENDBRANCH   9  11
ENDBRANCH   8   9
ENDBRANCH   4   8
BRANCH   3  22
ATOM     22  C   UNL     1      30.954 -11.337 -21.362  0.00  0.00    +0.102 C 
BRANCH  22  23
ATOM     23  C   UNL     1      31.307 -10.351 -20.254  0.00  0.00    +0.020 C 
BRANCH  23  24
ATOM     24  C   UNL     1      31.176  -8.891 -20.699  0.00  0.00    -0.021 C 
BRANCH  24  25
ATOM     25  C   UNL     1      30.844  -8.797 -22.188  0.00  0.00    -0.077 C 
BRANCH  25  26
ATOM     26  N   UNL     1      31.874  -8.033 -22.890  0.00  0.00    +0.384 N 
ATOM     27  N   UNL     1      33.129  -5.567 -23.727  0.00  0.00    +0.383 N 
ATOM     28  C   UNL     1      32.644  -7.211 -21.948  0.00  0.00    -0.101 C 
ATOM     29  C   UNL     1      31.278  -7.191 -23.934  0.00  0.00    -0.101 C 
ATOM     30  C   UNL     1      33.724  -6.408 -22.682  0.00  0.00    -0.101 C 
ATOM     31  C   UNL     1      32.357  -6.387 -24.669  0.00  0.00    -0.101 C 
ATOM     32  C   UNL     1      34.160  -4.804 -24.428  0.00  0.00    -0.101 C 
ATOM     33  H   UNL     1      32.510  -8.694 -23.334  0.00  0.00    -0.080 HD
ATOM     34  H   UNL     1      32.494  -4.903 -23.283  0.00  0.00    -0.080 HD
ENDBRANCH  25  26
ENDBRANCH  24  25
ENDBRANCH  23  24
ENDBRANCH  22  23
ENDBRANCH   3  22
TORSDOF 9
ENDMDL
MODEL 3
REMARK VINA RESULT:     -12.3      4.582     12.075
REMARK  Name = 60939
REMARK  9 active torsions:
REMARK  status: ('A' for Active; 'I' for Inactive)
REMARK    1  A    between atoms: N_3  and  C_22
REMARK    2  A    between atoms: N_4  and  N_8
REMARK    3  A    between atoms: N_8  and  C_9
REMARK    4  A    between atoms: C_9  and  C_11
REMARK    5  A    between atoms: C_12  and  C_16
REMARK    6  A    between atoms: C_22  and  C_23
REMARK    7  A    between atoms: C_23  and  C_24
REMARK    8  A    between atoms: C_24  and  C_25
REMARK    9  A    between atoms: C_25  and  N_26
REMARK                            x       y       z     vdW  Elec       q    Type
REMARK                         _______ _______ _______ _____ _____    ______ ____
ROOT
ATOM      1  O   UNL     1      33.437 -15.153 -25.405  0.00  0.00    -0.273 OA
ATOM      2  O   UNL     1      34.236 -15.134 -20.867  0.00  0.00    -0.251 OA
ATOM      3  N   UNL     1      34.051 -15.497 -23.174  0.00  0.00    -0.212 N 
ATOM      4  N   UNL     1      33.094 -13.681 -22.306  0.00  0.00    -0.181 N 
ATOM      5  C   UNL     1      33.448 -14.823 -24.227  0.00  0.00    +0.254 C 
ATOM      6  C   UNL     1      33.841 -14.812 -21.979  0.00  0.00    +0.328 C 
ATOM      7  C   UNL     1      32.778 -13.569 -23.700  0.00  0.00    +0.200 C 
ENDROOT
BRANCH   4   8
ATOM      8  N   UNL     1      32.703 -12.775 -21.398  0.00  0.00    -0.118 NA
BRANCH   8   9
ATOM      9  C   UNL     1      31.738 -12.015 -21.806  0.00  0.00    +0.176 C 
BRANCH   9  11
ATOM     10  O   UNL     1      31.728  -9.625 -22.108  0.00  0.00    -0.456 OA
ATOM     11  C   UNL     1      31.532 -10.679 -21.274  0.00  0.00    +0.142 C 
ATOM     12  C   UNL     1      31.475  -8.503 -21.382  0.00  0.00    +0.145 C 
ATOM     13  C   UNL     1      31.156 -10.243 -20.023  0.00  0.00    +0.038 C 
ATOM     14  C   UNL     1      31.121  -8.830 -20.095  0.00  0.00    +0.040 C 
BRANCH  12  16
ATOM     15 CL   UNL     1      32.107  -3.374 -24.324  0.00  0.00    -0.082 Cl
ATOM     16  C   UNL     1      31.627  -7.264 -22.092  0.00  0.00    +0.035 C 
ATOM     17  C   UNL     1      32.853  -6.599 -22.079  0.00  0.00    +0.004 C 
ATOM     18  C   UNL     1      30.549  -6.726 -22.796  0.00  0.00    +0.004 C 
ATOM     19  C   UNL     1      33.001  -5.395 -22.768  0.00  0.00    +0.011 C 
ATOM     20  C   UNL     1      30.697  -5.524 -23.486  0.00  0.00    +0.011 C 
ATOM     21  C   UNL     1      31.923  -4.858 -23.473  0.00  0.00    +0.058 C 
ENDBRANCH  12  16
ENDBRANCH   9  11
ENDBRANCH   8   9
ENDBRANCH   4   8
BRANCH   3  22
ATOM     22  C   UNL     1      34.786 -16.725 -23.299  0.00  0.00    +0.102 C 
BRANCH  22  23
ATOM     23  C   UNL     1      33.879 -17.922 -23.563  0.00  0.00    +0.020 C 
BRANCH  23  24
ATOM     24  C   UNL     1      34.213 -19.123 -22.673  0.00  0.00    -0.021 C 
BRANCH  24  25
ATOM     25  C   UNL     1      34.947 -18.683 -21.407  0.00  0.00    -0.077 C 
BRANCH  25  26
ATOM     26  N   UNL     1      34.479 -19.454 -20.257  0.00  0.00    +0.384 N 
ATOM     27  N   UNL     1      33.567 -21.883 -18.983  0.00  0.00    +0.383 N 
ATOM     28  C   UNL     1      35.407 -20.550 -19.951  0.00  0.00    -0.101 C 
ATOM     29  C   UNL     1      33.129 -19.979 -20.495  0.00  0.00    -0.101 C 
ATOM     30  C   UNL     1      34.917 -21.360 -18.746  0.00  0.00    -0.101 C 
ATOM     31  C   UNL     1      32.638 -20.789 -19.290  0.00  0.00    -0.101 C 
ATOM     32  C   UNL     1      33.099 -22.653 -17.831  0.00  0.00    -0.101 C 
ATOM     33  H   UNL     1      34.444 -18.829 -19.452  0.00  0.00    -0.080 HD
ATOM     34  H   UNL     1      33.602 -22.511 -19.787  0.00  0.00    -0.080 HD
ENDBRANCH  25  26
ENDBRANCH  24  25
ENDBRANCH  23  24
ENDBRANCH  22  23
ENDBRANCH   3  22
TORSDOF 9
ENDMDL
MODEL 4
REMARK VINA RESULT:     -12.0      5.693     12.707
REMARK  Name = 60939
REMARK  9 active torsions:
REMARK  status: ('A' for Active; 'I' for Inactive)
REMARK    1  A    between atoms: N_3  and  C_22
REMARK    2  A    between atoms: N_4  and  N_8
REMARK    3  A    between atoms: N_8  and  C_9
REMARK    4  A    between atoms: C_9  and  C_11
REMARK    5  A    between atoms: C_12  and  C_16
REMARK    6  A    between atoms: C_22  and  C_23
REMARK    7  A    between atoms: C_23  and  C_24
REMARK    8  A    between atoms: C_24  and  C_25
REMARK    9  A    between atoms: C_25  and  N_26
REMARK                            x       y       z     vdW  Elec       q    Type
REMARK                         _______ _______ _______ _____ _____    ______ ____
ROOT
ATOM      1  O   UNL     1      36.156 -22.036 -15.097  0.00  0.00    -0.273 OA
ATOM      2  O   UNL     1      32.576 -22.570 -17.949  0.00  0.00    -0.251 OA
ATOM      3  N   UNL     1      34.133 -22.428 -16.204  0.00  0.00    -0.212 N 
ATOM      4  N   UNL     1      34.785 -21.851 -18.255  0.00  0.00    -0.181 N 
ATOM      5  C   UNL     1      35.465 -22.052 -16.106  0.00  0.00    +0.254 C 
ATOM      6  C   UNL     1      33.694 -22.316 -17.521  0.00  0.00    +0.328 C 
ATOM      7  C   UNL     1      35.970 -21.642 -17.476  0.00  0.00    +0.200 C 
ENDROOT
BRANCH   4   8
ATOM      8  N   UNL     1      34.734 -21.619 -19.574  0.00  0.00    -0.118 NA
BRANCH   8   9
ATOM      9  C   UNL     1      34.172 -20.494 -19.882  0.00  0.00    +0.176 C 
BRANCH   9  11
ATOM     10  O   UNL     1      34.230 -18.280 -20.832  0.00  0.00    -0.456 OA
ATOM     11  C   UNL     1      34.911 -19.411 -20.511  0.00  0.00    +0.142 C 
ATOM     12  C   UNL     1      35.131 -17.433 -21.398  0.00  0.00    +0.145 C 
ATOM     13  C   UNL     1      36.236 -19.296 -20.864  0.00  0.00    +0.038 C 
ATOM     14  C   UNL     1      36.377 -18.011 -21.441  0.00  0.00    +0.040 C 
BRANCH  12  16
ATOM     15 CL   UNL     1      32.946 -12.176 -23.116  0.00  0.00    -0.082 Cl
ATOM     16  C   UNL     1      34.604 -16.163 -21.812  0.00  0.00    +0.035 C 
ATOM     17  C   UNL     1      34.529 -15.849 -23.170  0.00  0.00    +0.004 C 
ATOM     18  C   UNL     1      34.166 -15.244 -20.859  0.00  0.00    +0.004 C 
ATOM     19  C   UNL     1      34.017 -14.616 -23.573  0.00  0.00    +0.011 C 
ATOM     20  C   UNL     1      33.654 -14.012 -21.261  0.00  0.00    +0.011 C 
ATOM     21  C   UNL     1      33.579 -13.697 -22.619  0.00  0.00    +0.058 C 
ENDBRANCH  12  16
ENDBRANCH   9  11
ENDBRANCH   8   9
ENDBRANCH   4   8
BRANCH   3  22
ATOM     22  C   UNL     1      33.322 -22.870 -15.103  0.00  0.00    +0.102 C 
BRANCH  22  23
ATOM     23  C   UNL     1      34.001 -23.961 -14.281  0.00  0.00    +0.020 C 
BRANCH  23  24
ATOM     24  C   UNL     1      34.153 -23.580 -12.806  0.00  0.00    -0.021 C 
BRANCH  24  25
ATOM     25  C   UNL     1      35.187 -24.466 -12.112  0.00  0.00    -0.077 C 
BRANCH  25  26
ATOM     26  N   UNL     1      36.381 -24.599 -12.945  0.00  0.00    +0.384 N 
ATOM     27  N   UNL     1      39.016 -25.639 -13.522  0.00  0.00    +0.383 N 
ATOM     28  C   UNL     1      36.577 -25.995 -13.355  0.00  0.00    -0.101 C 
ATOM     29  C   UNL     1      37.568 -24.102 -12.238  0.00  0.00    -0.101 C 
ATOM     30  C   UNL     1      37.830 -26.136 -14.227  0.00  0.00    -0.101 C 
ATOM     31  C   UNL     1      38.821 -24.243 -13.110  0.00  0.00    -0.101 C 
ATOM     32  C   UNL     1      40.209 -25.771 -14.356  0.00  0.00    -0.101 C 
ATOM     33  H   UNL     1      36.245 -24.034 -13.782  0.00  0.00    -0.080 HD
ATOM     34  H   UNL     1      39.154 -26.205 -12.684  0.00  0.00    -0.080 HD
ENDBRANCH  25  26
ENDBRANCH  24  25
ENDBRANCH  23  24
ENDBRANCH  22  23
ENDBRANCH   3  22
TORSDOF 9
ENDMDL
MODEL 5
REMARK VINA RESULT:     -12.0      1.916      3.286
REMARK  Name = 60939
REMARK  9 active torsions:
REMARK  status: ('A' for Active; 'I' for Inactive)
REMARK    1  A    between atoms: N_3  and  C_22
REMARK    2  A    between atoms: N_4  and  N_8
REMARK    3  A    between atoms: N_8  and  C_9
REMARK    4  A    between atoms: C_9  and  C_11
REMARK    5  A    between atoms: C_12  and  C_16
REMARK    6  A    between atoms: C_22  and  C_23
REMARK    7  A    between atoms: C_23  and  C_24
REMARK    8  A    between atoms: C_24  and  C_25
REMARK    9  A    between atoms: C_25  and  N_26
REMARK                            x       y       z     vdW  Elec       q    Type
REMARK                         _______ _______ _______ _____ _____    ______ ____
ROOT
ATOM      1  O   UNL     1      33.156 -13.205 -20.438  0.00  0.00    -0.273 OA
ATOM      2  O   UNL     1      32.874 -13.914 -24.983  0.00  0.00    -0.251 OA
ATOM      3  N   UNL     1      32.781 -13.220 -22.748  0.00  0.00    -0.212 N 
ATOM      4  N   UNL     1      33.951 -15.052 -23.240  0.00  0.00    -0.181 N 
ATOM      5  C   UNL     1      33.302 -13.692 -21.551  0.00  0.00    +0.254 C 
ATOM      6  C   UNL     1      33.164 -14.046 -23.801  0.00  0.00    +0.328 C 
ATOM      7  C   UNL     1      34.117 -14.943 -21.820  0.00  0.00    +0.200 C 
ENDROOT
BRANCH   4   8
ATOM      8  N   UNL     1      34.503 -16.036 -23.962  0.00  0.00    -0.118 NA
BRANCH   8   9
ATOM      9  C   UNL     1      34.145 -17.221 -23.583  0.00  0.00    +0.176 C 
BRANCH   9  11
ATOM     10  O   UNL     1      34.129 -18.779 -21.744  0.00  0.00    -0.456 OA
ATOM     11  C   UNL     1      34.849 -17.940 -22.534  0.00  0.00    +0.142 C 
ATOM     12  C   UNL     1      35.004 -19.323 -20.857  0.00  0.00    +0.145 C 
ATOM     13  C   UNL     1      36.174 -17.942 -22.162  0.00  0.00    +0.038 C 
ATOM     14  C   UNL     1      36.273 -18.840 -21.072  0.00  0.00    +0.040 C 
BRANCH  12  16
ATOM     15 CL   UNL     1      32.642 -23.169 -16.986  0.00  0.00    -0.082 Cl
ATOM     16  C   UNL     1      34.434 -20.251 -19.922  0.00  0.00    +0.035 C 
ATOM     17  C   UNL     1      33.050 -20.410 -19.853  0.00  0.00    +0.004 C 
ATOM     18  C   UNL     1      35.264 -20.995 -19.083  0.00  0.00    +0.004 C 
ATOM     19  C   UNL     1      32.495 -21.312 -18.945  0.00  0.00    +0.011 C 
ATOM     20  C   UNL     1      34.710 -21.897 -18.175  0.00  0.00    +0.011 C 
ATOM     21  C   UNL     1      33.326 -22.056 -18.106  0.00  0.00    +0.058 C 
ENDBRANCH  12  16
ENDBRANCH   9  11
ENDBRANCH   8   9
ENDBRANCH   4   8
BRANCH   3  22
ATOM     22  C   UNL     1      31.962 -12.046 -22.878  0.00  0.00    +0.102 C 
BRANCH  22  23
ATOM     23  C   UNL     1      32.772 -10.810 -23.253  0.00  0.00    +0.020 C 
BRANCH  23  24
ATOM     24  C   UNL     1      31.939  -9.525 -23.215  0.00  0.00    -0.021 C 
BRANCH  24  25
ATOM     25  C   UNL     1      31.475  -9.211 -21.793  0.00  0.00    -0.077 C 
BRANCH  25  26
ATOM     26  N   UNL     1      31.147  -7.792 -21.669  0.00  0.00    +0.384 N 
ATOM     27  N   UNL     1      31.498  -5.000 -22.333  0.00  0.00    +0.383 N 
ATOM     28  C   UNL     1      30.687  -7.249 -22.953  0.00  0.00    -0.101 C 
ATOM     29  C   UNL     1      32.302  -7.031 -21.178  0.00  0.00    -0.101 C 
ATOM     30  C   UNL     1      30.344  -5.761 -22.825  0.00  0.00    -0.101 C 
ATOM     31  C   UNL     1      31.961  -5.543 -21.049  0.00  0.00    -0.101 C 
ATOM     32  C   UNL     1      31.170  -3.581 -22.208  0.00  0.00    -0.101 C 
ATOM     33  H   UNL     1      30.391  -7.701 -20.992  0.00  0.00    -0.080 HD
ATOM     34  H   UNL     1      32.256  -5.089 -23.011  0.00  0.00    -0.080 HD
ENDBRANCH  25  26
ENDBRANCH  24  25
ENDBRANCH  23  24
ENDBRANCH  22  23
ENDBRANCH   3  22
TORSDOF 9
ENDMDL
MODEL 6
REMARK VINA RESULT:     -12.0      6.596     11.684
REMARK  Name = 60939
REMARK  9 active torsions:
REMARK  status: ('A' for Active; 'I' for Inactive)
REMARK    1  A    between atoms: N_3  and  C_22
REMARK    2  A    between atoms: N_4  and  N_8
REMARK    3  A    between atoms: N_8  and  C_9
REMARK    4  A    between atoms: C_9  and  C_11
REMARK    5  A    between atoms: C_12  and  C_16
REMARK    6  A    between atoms: C_22  and  C_23
REMARK    7  A    between atoms: C_23  and  C_24
REMARK    8  A    between atoms: C_24  and  C_25
REMARK    9  A    between atoms: C_25  and  N_26
REMARK                            x       y       z     vdW  Elec       q    Type
REMARK                         _______ _______ _______ _____ _____    ______ ____
ROOT
ATOM      1  O   UNL     1      37.716 -24.439 -14.096  0.00  0.00    -0.273 OA
ATOM      2  O   UNL     1      34.064 -22.315 -15.936  0.00  0.00    -0.251 OA
ATOM      3  N   UNL     1      35.639 -23.634 -14.810  0.00  0.00    -0.212 N 
ATOM      4  N   UNL     1      36.377 -21.991 -16.121  0.00  0.00    -0.181 N 
ATOM      5  C   UNL     1      37.024 -23.665 -14.744  0.00  0.00    +0.254 C 
ATOM      6  C   UNL     1      35.218 -22.612 -15.657  0.00  0.00    +0.328 C 
ATOM      7  C   UNL     1      37.591 -22.562 -15.617  0.00  0.00    +0.200 C 
ENDROOT
BRANCH   4   8
ATOM      8  N   UNL     1      36.361 -20.950 -16.966  0.00  0.00    -0.118 NA
BRANCH   8   9
ATOM      9  C   UNL     1      36.269 -21.294 -18.211  0.00  0.00    +0.176 C 
BRANCH   9  11
ATOM     10  O   UNL     1      35.377 -19.878 -19.945  0.00  0.00    -0.456 OA
ATOM     11  C   UNL     1      35.156 -20.873 -19.046  0.00  0.00    +0.142 C 
ATOM     12  C   UNL     1      34.199 -19.673 -20.593  0.00  0.00    +0.145 C 
ATOM     13  C   UNL     1      33.852 -21.305 -19.112  0.00  0.00    +0.038 C 
ATOM     14  C   UNL     1      33.231 -20.524 -20.117  0.00  0.00    +0.040 C 
BRANCH  12  16
ATOM     15 CL   UNL     1      34.285 -15.429 -24.757  0.00  0.00    -0.082 Cl
ATOM     16  C   UNL     1      34.221 -18.648 -21.598  0.00  0.00    +0.035 C 
ATOM     17  C   UNL     1      33.811 -18.939 -22.900  0.00  0.00    +0.004 C 
ATOM     18  C   UNL     1      34.651 -17.361 -21.274  0.00  0.00    +0.004 C 
ATOM     19  C   UNL     1      33.831 -17.944 -23.877  0.00  0.00    +0.011 C 
ATOM     20  C   UNL     1      34.671 -16.366 -22.250  0.00  0.00    +0.011 C 
ATOM     21  C   UNL     1      34.261 -16.657 -23.552  0.00  0.00    +0.058 C 
ENDBRANCH  12  16
ENDBRANCH   9  11
ENDBRANCH   8   9
ENDBRANCH   4   8
BRANCH   3  22
ATOM     22  C   UNL     1      34.764 -24.530 -14.105  0.00  0.00    +0.102 C 
BRANCH  22  23
ATOM     23  C   UNL     1      34.163 -23.894 -12.856  0.00  0.00    +0.020 C 
BRANCH  23  24
ATOM     24  C   UNL     1      32.734 -23.391 -13.079  0.00  0.00    -0.021 C 
BRANCH  24  25
ATOM     25  C   UNL     1      31.786 -24.547 -13.398  0.00  0.00    -0.077 C 
BRANCH  25  26
ATOM     26  N   UNL     1      30.857 -24.162 -14.459  0.00  0.00    +0.384 N 
ATOM     27  N   UNL     1      28.397 -22.994 -15.429  0.00  0.00    +0.383 N 
ATOM     28  C   UNL     1      30.657 -22.707 -14.473  0.00  0.00    -0.101 C 
ATOM     29  C   UNL     1      29.572 -24.853 -14.302  0.00  0.00    -0.101 C 
ATOM     30  C   UNL     1      29.682 -22.302 -15.584  0.00  0.00    -0.101 C 
ATOM     31  C   UNL     1      28.596 -24.448 -15.413  0.00  0.00    -0.101 C 
ATOM     32  C   UNL     1      27.469 -22.609 -16.490  0.00  0.00    -0.101 C 
ATOM     33  H   UNL     1      31.265 -24.439 -15.351  0.00  0.00    -0.080 HD
ATOM     34  H   UNL     1      27.987 -22.715 -14.537  0.00  0.00    -0.080 HD
ENDBRANCH  25  26
ENDBRANCH  24  25
ENDBRANCH  23  24
ENDBRANCH  22  23
ENDBRANCH   3  22
TORSDOF 9
ENDMDL
MODEL 7
REMARK VINA RESULT:     -12.0      5.088     11.934
REMARK  Name = 60939
REMARK  9 active torsions:
REMARK  status: ('A' for Active; 'I' for Inactive)
REMARK    1  A    between atoms: N_3  and  C_22
REMARK    2  A    between atoms: N_4  and  N_8
REMARK    3  A    between atoms: N_8  and  C_9
REMARK    4  A    between atoms: C_9  and  C_11
REMARK    5  A    between atoms: C_12  and  C_16
REMARK    6  A    between atoms: C_22  and  C_23
REMARK    7  A    between atoms: C_23  and  C_24
REMARK    8  A    between atoms: C_24  and  C_25
REMARK    9  A    between atoms: C_25  and  N_26
REMARK                            x       y       z     vdW  Elec       q    Type
REMARK                         _______ _______ _______ _____ _____    ______ ____
ROOT
ATOM      1  O   UNL     1      31.910 -21.312 -19.831  0.00  0.00    -0.273 OA
ATOM      2  O   UNL     1      36.277 -21.348 -18.360  0.00  0.00    -0.251 OA
ATOM      3  N   UNL     1      34.015 -21.673 -18.876  0.00  0.00    -0.212 N 
ATOM      4  N   UNL     1      35.073 -19.939 -19.794  0.00  0.00    -0.181 N 
ATOM      5  C   UNL     1      33.085 -21.011 -19.664  0.00  0.00    +0.254 C 
ATOM      6  C   UNL     1      35.247 -21.026 -18.937  0.00  0.00    +0.328 C 
ATOM      7  C   UNL     1      33.747 -19.816 -20.323  0.00  0.00    +0.200 C 
ENDROOT
BRANCH   4   8
ATOM      8  N   UNL     1      36.058 -19.081 -20.096  0.00  0.00    -0.118 NA
BRANCH   8   9
ATOM      9  C   UNL     1      36.298 -18.994 -21.365  0.00  0.00    +0.176 C 
BRANCH   9  11
ATOM     10  O   UNL     1      35.148 -17.032 -22.162  0.00  0.00    -0.456 OA
ATOM     11  C   UNL     1      35.362 -18.367 -22.284  0.00  0.00    +0.142 C 
ATOM     12  C   UNL     1      34.248 -16.693 -23.122  0.00  0.00    +0.145 C 
ATOM     13  C   UNL     1      34.608 -18.886 -23.312  0.00  0.00    +0.038 C 
ATOM     14  C   UNL     1      33.884 -17.798 -23.855  0.00  0.00    +0.040 C 
BRANCH  12  16
ATOM     15 CL   UNL     1      32.746 -10.942 -23.289  0.00  0.00    -0.082 Cl
ATOM     16  C   UNL     1      33.884 -15.305 -23.162  0.00  0.00    +0.035 C 
ATOM     17  C   UNL     1      34.089 -14.497 -22.043  0.00  0.00    +0.004 C 
ATOM     18  C   UNL     1      33.328 -14.762 -24.321  0.00  0.00    +0.004 C 
ATOM     19  C   UNL     1      33.736 -13.148 -22.082  0.00  0.00    +0.011 C 
ATOM     20  C   UNL     1      32.975 -13.413 -24.360  0.00  0.00    +0.011 C 
ATOM     21  C   UNL     1      33.180 -12.606 -23.241  0.00  0.00    +0.058 C 
ENDBRANCH  12  16
ENDBRANCH   9  11
ENDBRANCH   8   9
ENDBRANCH   4   8
BRANCH   3  22
ATOM     22  C   UNL     1      33.745 -22.856 -18.107  0.00  0.00    +0.102 C 
BRANCH  22  23
ATOM     23  C   UNL     1      33.065 -22.544 -16.778  0.00  0.00    +0.020 C 
BRANCH  23  24
ATOM     24  C   UNL     1      34.029 -22.619 -15.590  0.00  0.00    -0.021 C 
BRANCH  24  25
ATOM     25  C   UNL     1      34.137 -24.047 -15.057  0.00  0.00    -0.077 C 
BRANCH  25  26
ATOM     26  N   UNL     1      35.492 -24.306 -14.573  0.00  0.00    +0.384 N 
ATOM     27  N   UNL     1      38.278 -24.978 -14.953  0.00  0.00    +0.383 N 
ATOM     28  C   UNL     1      36.440 -23.338 -15.138  0.00  0.00    -0.101 C 
ATOM     29  C   UNL     1      35.908 -25.676 -14.895  0.00  0.00    -0.101 C 
ATOM     30  C   UNL     1      37.862 -23.608 -14.633  0.00  0.00    -0.101 C 
ATOM     31  C   UNL     1      37.330 -25.948 -14.390  0.00  0.00    -0.101 C 
ATOM     32  C   UNL     1      39.632 -25.237 -14.468  0.00  0.00    -0.101 C 
ATOM     33  H   UNL     1      35.490 -24.200 -13.559  0.00  0.00    -0.080 HD
ATOM     34  H   UNL     1      38.282 -25.084 -15.968  0.00  0.00    -0.080 HD
ENDBRANCH  25  26
ENDBRANCH  24  25
ENDBRANCH  23  24
ENDBRANCH  22  23
ENDBRANCH   3  22
TORSDOF 9
ENDMDL
MODEL 8
REMARK VINA RESULT:     -11.9      5.655     11.524
REMARK  Name = 60939
REMARK  9 active torsions:
REMARK  status: ('A' for Active; 'I' for Inactive)
REMARK    1  A    between atoms: N_3  and  C_22
REMARK    2  A    between atoms: N_4  and  N_8
REMARK    3  A    between atoms: N_8  and  C_9
REMARK    4  A    between atoms: C_9  and  C_11
REMARK    5  A    between atoms: C_12  and  C_16
REMARK    6  A    between atoms: C_22  and  C_23
REMARK    7  A    between atoms: C_23  and  C_24
REMARK    8  A    between atoms: C_24  and  C_25
REMARK    9  A    between atoms: C_25  and  N_26
REMARK                            x       y       z     vdW  Elec       q    Type
REMARK                         _______ _______ _______ _____ _____    ______ ____
ROOT
ATOM      1  O   UNL     1      37.162 -21.383 -15.657  0.00  0.00    -0.273 OA
ATOM      2  O   UNL     1      33.072 -22.614 -17.385  0.00  0.00    -0.251 OA
ATOM      3  N   UNL     1      34.993 -22.112 -16.142  0.00  0.00    -0.212 N 
ATOM      4  N   UNL     1      35.011 -21.701 -18.332  0.00  0.00    -0.181 N 
ATOM      5  C   UNL     1      36.242 -21.586 -16.438  0.00  0.00    +0.254 C 
ATOM      6  C   UNL     1      34.218 -22.196 -17.296  0.00  0.00    +0.328 C 
ATOM      7  C   UNL     1      36.318 -21.280 -17.921  0.00  0.00    +0.200 C 
ENDROOT
BRANCH   4   8
ATOM      8  N   UNL     1      34.589 -21.625 -19.602  0.00  0.00    -0.118 NA
BRANCH   8   9
ATOM      9  C   UNL     1      34.045 -20.490 -19.902  0.00  0.00    +0.176 C 
BRANCH   9  11
ATOM     10  O   UNL     1      34.151 -18.250 -20.784  0.00  0.00    -0.456 OA
ATOM     11  C   UNL     1      34.799 -19.416 -20.528  0.00  0.00    +0.142 C 
ATOM     12  C   UNL     1      35.059 -17.420 -21.362  0.00  0.00    +0.145 C 
ATOM     13  C   UNL     1      36.111 -19.341 -20.936  0.00  0.00    +0.038 C 
ATOM     14  C   UNL     1      36.279 -18.044 -21.479  0.00  0.00    +0.040 C 
BRANCH  12  16
ATOM     15 CL   UNL     1      33.015 -12.029 -22.818  0.00  0.00    -0.082 Cl
ATOM     16  C   UNL     1      34.567 -16.118 -21.713  0.00  0.00    +0.035 C 
ATOM     17  C   UNL     1      34.522 -15.727 -23.052  0.00  0.00    +0.004 C 
ATOM     18  C   UNL     1      34.130 -15.244 -20.717  0.00  0.00    +0.004 C 
ATOM     19  C   UNL     1      34.042 -14.462 -23.394  0.00  0.00    +0.011 C 
ATOM     20  C   UNL     1      33.651 -13.980 -21.058  0.00  0.00    +0.011 C 
ATOM     21  C   UNL     1      33.606 -13.589 -22.396  0.00  0.00    +0.058 C 
ENDBRANCH  12  16
ENDBRANCH   9  11
ENDBRANCH   8   9
ENDBRANCH   4   8
BRANCH   3  22
ATOM     22  C   UNL     1      34.561 -22.512 -14.831  0.00  0.00    +0.102 C 
BRANCH  22  23
ATOM     23  C   UNL     1      34.550 -24.027 -14.658  0.00  0.00    +0.020 C 
BRANCH  23  24
ATOM     24  C   UNL     1      33.579 -24.490 -13.569  0.00  0.00    -0.021 C 
BRANCH  24  25
ATOM     25  C   UNL     1      32.435 -23.491 -13.390  0.00  0.00    -0.077 C 
BRANCH  25  26
ATOM     26  N   UNL     1      31.426 -23.685 -14.430  0.00  0.00    +0.384 N 
ATOM     27  N   UNL     1      28.725 -23.562 -15.452  0.00  0.00    +0.383 N 
ATOM     28  C   UNL     1      30.809 -22.406 -14.802  0.00  0.00    -0.101 C 
ATOM     29  C   UNL     1      30.401 -24.639 -13.990  0.00  0.00    -0.101 C 
ATOM     30  C   UNL     1      29.750 -22.608 -15.891  0.00  0.00    -0.101 C 
ATOM     31  C   UNL     1      29.341 -24.841 -15.079  0.00  0.00    -0.101 C 
ATOM     32  C   UNL     1      27.717 -23.756 -16.493  0.00  0.00    -0.101 C 
ATOM     33  H   UNL     1      31.891 -24.069 -15.252  0.00  0.00    -0.080 HD
ATOM     34  H   UNL     1      28.258 -23.178 -14.631  0.00  0.00    -0.080 HD
ENDBRANCH  25  26
ENDBRANCH  24  25
ENDBRANCH  23  24
ENDBRANCH  22  23
ENDBRANCH   3  22
TORSDOF 9
ENDMDL
MODEL 9
REMARK VINA RESULT:     -11.9      6.643     12.550
REMARK  Name = 60939
REMARK  9 active torsions:
REMARK  status: ('A' for Active; 'I' for Inactive)
REMARK    1  A    between atoms: N_3  and  C_22
REMARK    2  A    between atoms: N_4  and  N_8
REMARK    3  A    between atoms: N_8  and  C_9
REMARK    4  A    between atoms: C_9  and  C_11
REMARK    5  A    between atoms: C_12  and  C_16
REMARK    6  A    between atoms: C_22  and  C_23
REMARK    7  A    between atoms: C_23  and  C_24
REMARK    8  A    between atoms: C_24  and  C_25
REMARK    9  A    between atoms: C_25  and  N_26
REMARK                            x       y       z     vdW  Elec       q    Type
REMARK                         _______ _______ _______ _____ _____    ______ ____
ROOT
ATOM      1  O   UNL     1      30.140 -22.529 -15.388  0.00  0.00    -0.273 OA
ATOM      2  O   UNL     1      34.494 -23.994 -15.749  0.00  0.00    -0.251 OA
ATOM      3  N   UNL     1      32.287 -23.438 -15.195  0.00  0.00    -0.212 N 
ATOM      4  N   UNL     1      33.084 -22.772 -17.166  0.00  0.00    -0.181 N 
ATOM      5  C   UNL     1      31.264 -22.742 -15.822  0.00  0.00    +0.254 C 
ATOM      6  C   UNL     1      33.420 -23.465 -16.004  0.00  0.00    +0.328 C 
ATOM      7  C   UNL     1      31.744 -22.263 -17.179  0.00  0.00    +0.200 C 
ENDROOT
BRANCH   4   8
ATOM      8  N   UNL     1      33.937 -22.596 -18.185  0.00  0.00    -0.118 NA
BRANCH   8   9
ATOM      9  C   UNL     1      33.523 -21.744 -19.067  0.00  0.00    +0.176 C 
BRANCH   9  11
ATOM     10  O   UNL     1      33.893 -19.920 -20.598  0.00  0.00    -0.456 OA
ATOM     11  C   UNL     1      34.415 -20.772 -19.678  0.00  0.00    +0.142 C 
ATOM     12  C   UNL     1      34.913 -19.124 -21.013  0.00  0.00    +0.145 C 
ATOM     13  C   UNL     1      35.758 -20.529 -19.500  0.00  0.00    +0.038 C 
ATOM     14  C   UNL     1      36.080 -19.459 -20.368  0.00  0.00    +0.040 C 
BRANCH  12  16
ATOM     15 CL   UNL     1      33.472 -15.048 -25.096  0.00  0.00    -0.082 Cl
ATOM     16  C   UNL     1      34.564 -18.140 -21.998  0.00  0.00    +0.035 C 
ATOM     17  C   UNL     1      34.852 -16.793 -21.772  0.00  0.00    +0.004 C 
ATOM     18  C   UNL     1      33.939 -18.529 -23.183  0.00  0.00    +0.004 C 
ATOM     19  C   UNL     1      34.514 -15.837 -22.730  0.00  0.00    +0.011 C 
ATOM     20  C   UNL     1      33.601 -17.574 -24.141  0.00  0.00    +0.011 C 
ATOM     21  C   UNL     1      33.889 -16.228 -23.915  0.00  0.00    +0.058 C 
ENDBRANCH  12  16
ENDBRANCH   9  11
ENDBRANCH   8   9
ENDBRANCH   4   8
BRANCH   3  22
ATOM     22  C   UNL     1      32.190 -24.044 -13.895  0.00  0.00    +0.102 C 
BRANCH  22  23
ATOM     23  C   UNL     1      32.847 -23.200 -12.808  0.00  0.00    +0.020 C 
BRANCH  23  24
ATOM     24  C   UNL     1      34.074 -23.880 -12.194  0.00  0.00    -0.021 C 
BRANCH  24  25
ATOM     25  C   UNL     1      35.347 -23.083 -12.480  0.00  0.00    -0.077 C 
BRANCH  25  26
ATOM     26  N   UNL     1      36.340 -23.932 -13.135  0.00  0.00    +0.384 N 
ATOM     27  N   UNL     1      39.051 -24.776 -13.677  0.00  0.00    +0.383 N 
ATOM     28  C   UNL     1      37.119 -24.684 -12.142  0.00  0.00    -0.101 C 
ATOM     29  C   UNL     1      37.231 -23.133 -13.984  0.00  0.00    -0.101 C 
ATOM     30  C   UNL     1      38.162 -25.574 -12.827  0.00  0.00    -0.101 C 
ATOM     31  C   UNL     1      38.274 -24.023 -14.670  0.00  0.00    -0.101 C 
ATOM     32  C   UNL     1      40.044 -25.626 -14.333  0.00  0.00    -0.101 C 
ATOM     33  H   UNL     1      35.844 -24.599 -13.726  0.00  0.00    -0.080 HD
ATOM     34  H   UNL     1      39.550 -24.110 -13.086  0.00  0.00    -0.080 HD
ENDBRANCH  25  26
ENDBRANCH  24  25
ENDBRANCH  23  24
ENDBRANCH  22  23
ENDBRANCH   3  22
TORSDOF 9
ENDMDL
