MODEL 1
REMARK VINA RESULT:     -10.5      0.000      0.000
REMARK  Name = 4487
REMARK  3 active torsions:
REMARK  status: ('A' for Active; 'I' for Inactive)
REMARK    1  A    between atoms: N_3  and  C_9
REMARK    2  A    between atoms: C_5  and  N_16
REMARK    3  A    between atoms: C_17  and  C_20
REMARK                            x       y       z     vdW  Elec       q    Type
REMARK                         _______ _______ _______ _____ _____    ______ ____
ROOT
ATOM      1  O   UNL     1      37.178 -21.636 -16.210  0.00  0.00    -0.264 OA
ATOM      2  N   UNL     1      34.272 -23.371 -15.462  0.00  0.00    -0.265 N 
ATOM      3  N   UNL     1      35.629 -23.131 -15.202  0.00  0.00    -0.213 N 
ATOM      4  C   UNL     1      33.925 -22.614 -16.578  0.00  0.00    +0.073 A 
ATOM      5  C   UNL     1      34.934 -21.841 -17.006  0.00  0.00    +0.122 A 
ATOM      6  C   UNL     1      36.075 -22.143 -16.086  0.00  0.00    +0.293 A 
ATOM      7  C   UNL     1      33.359 -23.499 -14.330  0.00  0.00    +0.152 C 
ATOM      8  C   UNL     1      32.549 -22.667 -17.152  0.00  0.00    +0.053 C 
ENDROOT
BRANCH   3   9
ATOM      9  C   UNL     1      36.438 -23.992 -14.419  0.00  0.00    +0.084 C 
ATOM     10  C   UNL     1      37.128 -23.494 -13.310  0.00  0.00    +0.019 C 
ATOM     11  C   UNL     1      36.552 -25.346 -14.750  0.00  0.00    +0.019 C 
ATOM     12  C   UNL     1      37.924 -24.341 -12.539  0.00  0.00    +0.002 C 
ATOM     13  C   UNL     1      37.348 -26.193 -13.979  0.00  0.00    +0.002 C 
ATOM     14  C   UNL     1      38.034 -25.691 -12.874  0.00  0.00    +0.000 C 
ENDBRANCH   3   9
BRANCH   5  16
ATOM     15  O   UNL     1      34.607 -22.369 -19.793  0.00  0.00    -0.270 OA
ATOM     16  N   UNL     1      35.066 -20.945 -18.008  0.00  0.00    -0.276 N 
ATOM     17  C   UNL     1      34.896 -21.256 -19.358  0.00  0.00    +0.251 C 
ATOM     18  H   UNL     1      35.296 -20.018 -17.772  0.00  0.00    +0.155 HD
BRANCH  17  20
ATOM     19  N   UNL     1      34.128 -18.806 -22.071  0.00  0.00    -0.242 NA
ATOM     20  C   UNL     1      35.059 -20.132 -20.315  0.00  0.00    +0.073 C 
ATOM     21  C   UNL     1      36.231 -19.413 -20.332  0.00  0.00    +0.008 C 
ATOM     22  C   UNL     1      34.043 -19.816 -21.176  0.00  0.00    +0.103 C 
ATOM     23  C   UNL     1      36.355 -18.366 -21.238  0.00  0.00    +0.021 C 
ATOM     24  C   UNL     1      35.284 -18.105 -22.078  0.00  0.00    +0.099 C 
ENDBRANCH  17  20
ENDBRANCH   5  16
TORSDOF 3
ENDMDL
MODEL 2
REMARK VINA RESULT:      -9.9     10.353     13.998
REMARK  Name = 4487
REMARK  3 active torsions:
REMARK  status: ('A' for Active; 'I' for Inactive)
REMARK    1  A    between atoms: N_3  and  C_9
REMARK    2  A    between atoms: C_5  and  N_16
REMARK    3  A    between atoms: C_17  and  C_20
REMARK                            x       y       z     vdW  Elec       q    Type
REMARK                         _______ _______ _______ _____ _____    ______ ____
ROOT
ATOM      1  O   UNL     1      33.898 -10.846 -24.132  0.00  0.00    -0.264 OA
ATOM      2  N   UNL     1      31.748 -12.201 -21.774  0.00  0.00    -0.265 N 
ATOM      3  N   UNL     1      32.810 -12.375 -22.673  0.00  0.00    -0.213 N 
ATOM      4  C   UNL     1      31.285 -10.897 -21.930  0.00  0.00    +0.073 A 
ATOM      5  C   UNL     1      32.023 -10.192 -22.801  0.00  0.00    +0.122 A 
ATOM      6  C   UNL     1      33.067 -11.146 -23.289  0.00  0.00    +0.293 A 
ATOM      7  C   UNL     1      31.850 -12.807 -20.450  0.00  0.00    +0.152 C 
ATOM      8  C   UNL     1      30.123 -10.388 -21.143  0.00  0.00    +0.053 C 
ENDROOT
BRANCH   3   9
ATOM      9  C   UNL     1      33.273 -13.646 -23.096  0.00  0.00    +0.084 C 
ATOM     10  C   UNL     1      34.039 -14.439 -22.235  0.00  0.00    +0.019 C 
ATOM     11  C   UNL     1      32.969 -14.117 -24.377  0.00  0.00    +0.019 C 
ATOM     12  C   UNL     1      34.494 -15.690 -22.650  0.00  0.00    +0.002 C 
ATOM     13  C   UNL     1      33.425 -15.368 -24.793  0.00  0.00    +0.002 C 
ATOM     14  C   UNL     1      34.187 -16.155 -23.929  0.00  0.00    +0.000 C 
ENDBRANCH   3   9
BRANCH   5  16
ATOM     15  O   UNL     1      32.404  -7.840 -21.229  0.00  0.00    -0.270 OA
ATOM     16  N   UNL     1      31.979  -8.919 -23.248  0.00  0.00    -0.276 N 
ATOM     17  C   UNL     1      32.172  -7.801 -22.435  0.00  0.00    +0.251 C 
ATOM     18  H   UNL     1      31.800  -8.771 -24.204  0.00  0.00    +0.155 HD
BRANCH  17  20
ATOM     19  N   UNL     1      30.768  -4.733 -24.039  0.00  0.00    -0.242 NA
ATOM     20  C   UNL     1      32.109  -6.480 -23.112  0.00  0.00    +0.073 C 
ATOM     21  C   UNL     1      33.271  -5.815 -23.422  0.00  0.00    +0.008 C 
ATOM     22  C   UNL     1      30.896  -5.930 -23.424  0.00  0.00    +0.103 C 
ATOM     23  C   UNL     1      33.181  -4.580 -24.055  0.00  0.00    +0.021 C 
ATOM     24  C   UNL     1      31.918  -4.088 -24.339  0.00  0.00    +0.099 C 
ENDBRANCH  17  20
ENDBRANCH   5  16
TORSDOF 3
ENDMDL
MODEL 3
REMARK VINA RESULT:      -9.7      4.090     10.234
REMARK  Name = 4487
REMARK  3 active torsions:
REMARK  status: ('A' for Active; 'I' for Inactive)
REMARK    1  A    between atoms: N_3  and  C_9
REMARK    2  A    between atoms: C_5  and  N_16
REMARK    3  A    between atoms: C_17  and  C_20
REMARK                            x       y       z     vdW  Elec       q    Type
REMARK                         _______ _______ _______ _____ _____    ______ ____
ROOT
ATOM      1  O   UNL     1      34.259 -15.376 -20.091  0.00  0.00    -0.264 OA
ATOM      2  N   UNL     1      33.862 -15.796 -23.509  0.00  0.00    -0.265 N 
ATOM      3  N   UNL     1      33.831 -14.951 -22.390  0.00  0.00    -0.213 N 
ATOM      4  C   UNL     1      34.103 -17.086 -23.045  0.00  0.00    +0.073 A 
ATOM      5  C   UNL     1      34.312 -17.124 -21.721  0.00  0.00    +0.122 A 
ATOM      6  C   UNL     1      34.167 -15.707 -21.263  0.00  0.00    +0.293 A 
ATOM      7  C   UNL     1      34.494 -15.308 -24.732  0.00  0.00    +0.152 C 
ATOM      8  C   UNL     1      34.160 -18.247 -23.981  0.00  0.00    +0.053 C 
ENDROOT
BRANCH   3   9
ATOM      9  C   UNL     1      33.232 -13.666 -22.399  0.00  0.00    +0.084 C 
ATOM     10  C   UNL     1      32.298 -13.319 -21.418  0.00  0.00    +0.019 C 
ATOM     11  C   UNL     1      33.569 -12.738 -23.388  0.00  0.00    +0.019 C 
ATOM     12  C   UNL     1      31.708 -12.055 -21.425  0.00  0.00    +0.002 C 
ATOM     13  C   UNL     1      32.979 -11.474 -23.396  0.00  0.00    +0.002 C 
ATOM     14  C   UNL     1      32.048 -11.132 -22.415  0.00  0.00    +0.000 C 
ENDBRANCH   3   9
BRANCH   5  16
ATOM     15  O   UNL     1      32.904 -19.592 -21.447  0.00  0.00    -0.270 OA
ATOM     16  N   UNL     1      34.599 -18.112 -20.847  0.00  0.00    -0.276 N 
ATOM     17  C   UNL     1      33.876 -19.303 -20.753  0.00  0.00    +0.251 C 
ATOM     18  H   UNL     1      35.363 -17.985 -20.240  0.00  0.00    +0.155 HD
BRANCH  17  20
ATOM     19  N   UNL     1      33.842 -22.060 -18.233  0.00  0.00    -0.242 NA
ATOM     20  C   UNL     1      34.356 -20.283 -19.746  0.00  0.00    +0.073 C 
ATOM     21  C   UNL     1      35.688 -20.321 -19.410  0.00  0.00    +0.008 C 
ATOM     22  C   UNL     1      33.471 -21.144 -19.156  0.00  0.00    +0.103 C 
ATOM     23  C   UNL     1      36.108 -21.250 -18.464  0.00  0.00    +0.021 C 
ATOM     24  C   UNL     1      35.155 -22.088 -17.910  0.00  0.00    +0.099 C 
ENDBRANCH  17  20
ENDBRANCH   5  16
TORSDOF 3
ENDMDL
MODEL 4
REMARK VINA RESULT:      -9.7      6.685     10.314
REMARK  Name = 4487
REMARK  3 active torsions:
REMARK  status: ('A' for Active; 'I' for Inactive)
REMARK    1  A    between atoms: N_3  and  C_9
REMARK    2  A    between atoms: C_5  and  N_16
REMARK    3  A    between atoms: C_17  and  C_20
REMARK                            x       y       z     vdW  Elec       q    Type
REMARK                         _______ _______ _______ _____ _____    ______ ____
ROOT
ATOM      1  O   UNL     1      34.072 -14.643 -20.739  0.00  0.00    -0.264 OA
ATOM      2  N   UNL     1      33.945 -16.229 -23.818  0.00  0.00    -0.265 N 
ATOM      3  N   UNL     1      34.184 -16.301 -22.438  0.00  0.00    -0.213 N 
ATOM      4  C   UNL     1      33.706 -14.892 -24.126  0.00  0.00    +0.073 A 
ATOM      5  C   UNL     1      33.690 -14.111 -23.037  0.00  0.00    +0.122 A 
ATOM      6  C   UNL     1      33.975 -15.031 -21.892  0.00  0.00    +0.293 A 
ATOM      7  C   UNL     1      33.169 -17.294 -24.447  0.00  0.00    +0.152 C 
ATOM      8  C   UNL     1      33.451 -14.455 -25.531  0.00  0.00    +0.053 C 
ENDROOT
BRANCH   3   9
ATOM      9  C   UNL     1      34.843 -17.391 -21.816  0.00  0.00    +0.084 C 
ATOM     10  C   UNL     1      34.104 -18.372 -21.148  0.00  0.00    +0.019 C 
ATOM     11  C   UNL     1      36.237 -17.493 -21.866  0.00  0.00    +0.019 C 
ATOM     12  C   UNL     1      34.752 -19.445 -20.536  0.00  0.00    +0.002 C 
ATOM     13  C   UNL     1      36.885 -18.565 -21.254  0.00  0.00    +0.002 C 
ATOM     14  C   UNL     1      36.144 -19.542 -20.590  0.00  0.00    +0.000 C 
ENDBRANCH   3   9
BRANCH   5  16
ATOM     15  O   UNL     1      31.178 -12.867 -22.496  0.00  0.00    -0.270 OA
ATOM     16  N   UNL     1      33.480 -12.792 -22.835  0.00  0.00    -0.276 N 
ATOM     17  C   UNL     1      32.228 -12.233 -22.574  0.00  0.00    +0.251 C 
ATOM     18  H   UNL     1      34.257 -12.189 -22.876  0.00  0.00    +0.155 HD
BRANCH  17  20
ATOM     19  N   UNL     1      32.972  -8.598 -23.003  0.00  0.00    -0.242 NA
ATOM     20  C   UNL     1      32.199 -10.764 -22.357  0.00  0.00    +0.073 C 
ATOM     21  C   UNL     1      31.413 -10.236 -21.361  0.00  0.00    +0.008 C 
ATOM     22  C   UNL     1      32.954  -9.942 -23.148  0.00  0.00    +0.103 C 
ATOM     23  C   UNL     1      31.405  -8.857 -21.181  0.00  0.00    +0.021 C 
ATOM     24  C   UNL     1      32.195  -8.089 -22.020  0.00  0.00    +0.099 C 
ENDBRANCH  17  20
ENDBRANCH   5  16
TORSDOF 3
ENDMDL
MODEL 5
REMARK VINA RESULT:      -9.6      7.761     13.405
REMARK  Name = 4487
REMARK  3 active torsions:
REMARK  status: ('A' for Active; 'I' for Inactive)
REMARK    1  A    between atoms: N_3  and  C_9
REMARK    2  A    between atoms: C_5  and  N_16
REMARK    3  A    between atoms: C_17  and  C_20
REMARK                            x       y       z     vdW  Elec       q    Type
REMARK                         _______ _______ _______ _____ _____    ______ ____
ROOT
ATOM      1  O   UNL     1      33.416 -11.744 -24.412  0.00  0.00    -0.264 OA
ATOM      2  N   UNL     1      31.628 -10.753 -21.612  0.00  0.00    -0.265 N 
ATOM      3  N   UNL     1      32.231 -10.419 -22.834  0.00  0.00    -0.213 N 
ATOM      4  C   UNL     1      31.929 -12.088 -21.355  0.00  0.00    +0.073 A 
ATOM      5  C   UNL     1      32.609 -12.663 -22.359  0.00  0.00    +0.122 A 
ATOM      6  C   UNL     1      32.797 -11.579 -23.373  0.00  0.00    +0.293 A 
ATOM      7  C   UNL     1      30.303 -10.213 -21.320  0.00  0.00    +0.152 C 
ATOM      8  C   UNL     1      31.468 -12.758 -20.104  0.00  0.00    +0.053 C 
ENDROOT
BRANCH   3   9
ATOM      9  C   UNL     1      32.492  -9.085 -23.236  0.00  0.00    +0.084 C 
ATOM     10  C   UNL     1      33.802  -8.597 -23.247  0.00  0.00    +0.019 C 
ATOM     11  C   UNL     1      31.441  -8.248 -23.625  0.00  0.00    +0.019 C 
ATOM     12  C   UNL     1      34.059  -7.285 -23.644  0.00  0.00    +0.002 C 
ATOM     13  C   UNL     1      31.698  -6.936 -24.020  0.00  0.00    +0.002 C 
ATOM     14  C   UNL     1      33.007  -6.454 -24.030  0.00  0.00    +0.000 C 
ENDBRANCH   3   9
BRANCH   5  16
ATOM     15  O   UNL     1      34.272 -14.155 -20.582  0.00  0.00    -0.270 OA
ATOM     16  N   UNL     1      33.087 -13.907 -22.572  0.00  0.00    -0.276 N 
ATOM     17  C   UNL     1      33.900 -14.594 -21.669  0.00  0.00    +0.251 C 
ATOM     18  H   UNL     1      32.850 -14.355 -23.415  0.00  0.00    +0.155 HD
BRANCH  17  20
ATOM     19  N   UNL     1      34.492 -17.612 -23.789  0.00  0.00    -0.242 NA
ATOM     20  C   UNL     1      34.310 -15.965 -22.068  0.00  0.00    +0.073 C 
ATOM     21  C   UNL     1      34.859 -16.813 -21.136  0.00  0.00    +0.008 C 
ATOM     22  C   UNL     1      34.140 -16.378 -23.361  0.00  0.00    +0.103 C 
ATOM     23  C   UNL     1      35.233 -18.090 -21.538  0.00  0.00    +0.021 C 
ATOM     24  C   UNL     1      35.031 -18.437 -22.864  0.00  0.00    +0.099 C 
ENDBRANCH  17  20
ENDBRANCH   5  16
TORSDOF 3
ENDMDL
MODEL 6
REMARK VINA RESULT:      -9.5      1.653      7.613
REMARK  Name = 4487
REMARK  3 active torsions:
REMARK  status: ('A' for Active; 'I' for Inactive)
REMARK    1  A    between atoms: N_3  and  C_9
REMARK    2  A    between atoms: C_5  and  N_16
REMARK    3  A    between atoms: C_17  and  C_20
REMARK                            x       y       z     vdW  Elec       q    Type
REMARK                         _______ _______ _______ _____ _____    ______ ____
ROOT
ATOM      1  O   UNL     1      36.719 -21.024 -17.265  0.00  0.00    -0.264 OA
ATOM      2  N   UNL     1      33.598 -21.963 -18.445  0.00  0.00    -0.265 N 
ATOM      3  N   UNL     1      34.806 -21.279 -18.651  0.00  0.00    -0.213 N 
ATOM      4  C   UNL     1      33.616 -22.446 -17.140  0.00  0.00    +0.073 A 
ATOM      5  C   UNL     1      34.777 -22.197 -16.516  0.00  0.00    +0.122 A 
ATOM      6  C   UNL     1      35.601 -21.446 -17.513  0.00  0.00    +0.293 A 
ATOM      7  C   UNL     1      33.061 -22.770 -19.537  0.00  0.00    +0.152 C 
ATOM      8  C   UNL     1      32.454 -23.196 -16.576  0.00  0.00    +0.053 C 
ENDROOT
BRANCH   3   9
ATOM      9  C   UNL     1      34.997 -20.328 -19.685  0.00  0.00    +0.084 C 
ATOM     10  C   UNL     1      33.922 -19.935 -20.487  0.00  0.00    +0.019 C 
ATOM     11  C   UNL     1      36.262 -19.777 -19.909  0.00  0.00    +0.019 C 
ATOM     12  C   UNL     1      34.109 -18.998 -21.504  0.00  0.00    +0.002 C 
ATOM     13  C   UNL     1      36.450 -18.841 -20.927  0.00  0.00    +0.002 C 
ATOM     14  C   UNL     1      35.374 -18.452 -21.724  0.00  0.00    +0.000 C 
ENDBRANCH   3   9
BRANCH   5  16
ATOM     15  O   UNL     1      35.395 -24.798 -15.514  0.00  0.00    -0.270 OA
ATOM     16  N   UNL     1      35.259 -22.484 -15.288  0.00  0.00    -0.276 N 
ATOM     17  C   UNL     1      35.545 -23.776 -14.846  0.00  0.00    +0.251 C 
ATOM     18  H   UNL     1      35.417 -21.737 -14.668  0.00  0.00    +0.155 HD
BRANCH  17  20
ATOM     19  N   UNL     1      36.984 -25.288 -11.747  0.00  0.00    -0.242 NA
ATOM     20  C   UNL     1      36.090 -23.892 -13.469  0.00  0.00    +0.073 C 
ATOM     21  C   UNL     1      36.201 -22.771 -12.681  0.00  0.00    +0.008 C 
ATOM     22  C   UNL     1      36.480 -25.113 -12.990  0.00  0.00    +0.103 C 
ATOM     23  C   UNL     1      36.715 -22.911 -11.397  0.00  0.00    +0.021 C 
ATOM     24  C   UNL     1      37.089 -24.178 -10.981  0.00  0.00    +0.099 C 
ENDBRANCH  17  20
ENDBRANCH   5  16
TORSDOF 3
ENDMDL
MODEL 7
REMARK VINA RESULT:      -9.0      5.921     11.847
REMARK  Name = 4487
REMARK  3 active torsions:
REMARK  status: ('A' for Active; 'I' for Inactive)
REMARK    1  A    between atoms: N_3  and  C_9
REMARK    2  A    between atoms: C_5  and  N_16
REMARK    3  A    between atoms: C_17  and  C_20
REMARK                            x       y       z     vdW  Elec       q    Type
REMARK                         _______ _______ _______ _____ _____    ______ ____
ROOT
ATOM      1  O   UNL     1      33.809 -13.285 -20.722  0.00  0.00    -0.264 OA
ATOM      2  N   UNL     1      32.921 -13.301 -24.073  0.00  0.00    -0.265 N 
ATOM      3  N   UNL     1      32.992 -12.616 -22.851  0.00  0.00    -0.213 N 
ATOM      4  C   UNL     1      33.342 -14.608 -23.838  0.00  0.00    +0.073 A 
ATOM      5  C   UNL     1      33.758 -14.793 -22.576  0.00  0.00    +0.122 A 
ATOM      6  C   UNL     1      33.564 -13.470 -21.904  0.00  0.00    +0.293 A 
ATOM      7  C   UNL     1      33.310 -12.595 -25.291  0.00  0.00    +0.152 C 
ATOM      8  C   UNL     1      33.353 -15.626 -24.929  0.00  0.00    +0.053 C 
ENDROOT
BRANCH   3   9
ATOM      9  C   UNL     1      32.289 -11.413 -22.590  0.00  0.00    +0.084 C 
ATOM     10  C   UNL     1      31.201 -11.410 -21.712  0.00  0.00    +0.019 C 
ATOM     11  C   UNL     1      32.679 -10.221 -23.208  0.00  0.00    +0.019 C 
ATOM     12  C   UNL     1      30.509 -10.226 -21.454  0.00  0.00    +0.002 C 
ATOM     13  C   UNL     1      31.987  -9.037 -22.951  0.00  0.00    +0.002 C 
ATOM     14  C   UNL     1      30.903  -9.039 -22.074  0.00  0.00    +0.000 C 
ENDBRANCH   3   9
BRANCH   5  16
ATOM     15  O   UNL     1      33.655 -17.522 -23.405  0.00  0.00    -0.270 OA
ATOM     16  N   UNL     1      34.262 -15.849 -21.904  0.00  0.00    -0.276 N 
ATOM     17  C   UNL     1      34.185 -17.168 -22.353  0.00  0.00    +0.251 C 
ATOM     18  H   UNL     1      34.710 -15.679 -21.044  0.00  0.00    +0.155 HD
BRANCH  17  20
ATOM     19  N   UNL     1      36.739 -18.917 -20.263  0.00  0.00    -0.242 NA
ATOM     20  C   UNL     1      34.818 -18.195 -21.487  0.00  0.00    +0.073 C 
ATOM     21  C   UNL     1      34.109 -19.315 -21.124  0.00  0.00    +0.008 C 
ATOM     22  C   UNL     1      36.104 -18.022 -21.053  0.00  0.00    +0.103 C 
ATOM     23  C   UNL     1      34.728 -20.259 -20.312  0.00  0.00    +0.021 C 
ATOM     24  C   UNL     1      36.031 -20.015 -19.912  0.00  0.00    +0.099 C 
ENDBRANCH  17  20
ENDBRANCH   5  16
TORSDOF 3
ENDMDL
MODEL 8
REMARK VINA RESULT:      -8.8      1.965      4.032
REMARK  Name = 4487
REMARK  3 active torsions:
REMARK  status: ('A' for Active; 'I' for Inactive)
REMARK    1  A    between atoms: N_3  and  C_9
REMARK    2  A    between atoms: C_5  and  N_16
REMARK    3  A    between atoms: C_17  and  C_20
REMARK                            x       y       z     vdW  Elec       q    Type
REMARK                         _______ _______ _______ _____ _____    ______ ____
ROOT
ATOM      1  O   UNL     1      32.102 -22.107 -17.575  0.00  0.00    -0.264 OA
ATOM      2  N   UNL     1      34.364 -23.393 -15.285  0.00  0.00    -0.265 N 
ATOM      3  N   UNL     1      33.047 -23.318 -15.761  0.00  0.00    -0.213 N 
ATOM      4  C   UNL     1      35.123 -22.490 -16.025  0.00  0.00    +0.073 A 
ATOM      5  C   UNL     1      34.412 -21.900 -16.997  0.00  0.00    +0.122 A 
ATOM      6  C   UNL     1      33.030 -22.457 -16.863  0.00  0.00    +0.293 A 
ATOM      7  C   UNL     1      34.900 -24.703 -14.924  0.00  0.00    +0.152 C 
ATOM      8  C   UNL     1      36.575 -22.289 -15.748  0.00  0.00    +0.053 C 
ENDROOT
BRANCH   3   9
ATOM      9  C   UNL     1      31.924 -23.770 -15.024  0.00  0.00    +0.084 C 
ATOM     10  C   UNL     1      30.652 -23.764 -15.605  0.00  0.00    +0.019 C 
ATOM     11  C   UNL     1      32.080 -24.225 -13.711  0.00  0.00    +0.019 C 
ATOM     12  C   UNL     1      29.547 -24.210 -14.880  0.00  0.00    +0.002 C 
ATOM     13  C   UNL     1      30.974 -24.670 -12.986  0.00  0.00    +0.002 C 
ATOM     14  C   UNL     1      29.708 -24.663 -13.570  0.00  0.00    +0.000 C 
ENDBRANCH   3   9
BRANCH   5  16
ATOM     15  O   UNL     1      34.542 -22.408 -19.804  0.00  0.00    -0.270 OA
ATOM     16  N   UNL     1      34.709 -20.998 -17.958  0.00  0.00    -0.276 N 
ATOM     17  C   UNL     1      34.761 -21.299 -19.320  0.00  0.00    +0.251 C 
ATOM     18  H   UNL     1      34.902 -20.074 -17.680  0.00  0.00    +0.155 HD
BRANCH  17  20
ATOM     19  N   UNL     1      36.579 -18.406 -20.827  0.00  0.00    -0.242 NA
ATOM     20  C   UNL     1      35.083 -20.170 -20.229  0.00  0.00    +0.073 C 
ATOM     21  C   UNL     1      34.230 -19.857 -21.260  0.00  0.00    +0.008 C 
ATOM     22  C   UNL     1      36.227 -19.445 -20.037  0.00  0.00    +0.103 C 
ATOM     23  C   UNL     1      34.558 -18.795 -22.095  0.00  0.00    +0.021 C 
ATOM     24  C   UNL     1      35.733 -18.108 -21.839  0.00  0.00    +0.099 C 
ENDBRANCH  17  20
ENDBRANCH   5  16
TORSDOF 3
ENDMDL
MODEL 9
REMARK VINA RESULT:      -8.6      3.781      6.151
REMARK  Name = 4487
REMARK  3 active torsions:
REMARK  status: ('A' for Active; 'I' for Inactive)
REMARK    1  A    between atoms: N_3  and  C_9
REMARK    2  A    between atoms: C_5  and  N_16
REMARK    3  A    between atoms: C_17  and  C_20
REMARK                            x       y       z     vdW  Elec       q    Type
REMARK                         _______ _______ _______ _____ _____    ______ ____
ROOT
ATOM      1  O   UNL     1      32.170 -19.637 -20.994  0.00  0.00    -0.264 OA
ATOM      2  N   UNL     1      35.381 -20.269 -19.851  0.00  0.00    -0.265 N 
ATOM      3  N   UNL     1      34.008 -20.548 -19.792  0.00  0.00    -0.213 N 
ATOM      4  C   UNL     1      35.548 -19.199 -20.725  0.00  0.00    +0.073 A 
ATOM      5  C   UNL     1      34.396 -18.822 -21.299  0.00  0.00    +0.122 A 
ATOM      6  C   UNL     1      33.356 -19.726 -20.717  0.00  0.00    +0.293 A 
ATOM      7  C   UNL     1      36.319 -21.388 -19.847  0.00  0.00    +0.152 C 
ATOM      8  C   UNL     1      36.897 -18.617 -20.989  0.00  0.00    +0.053 C 
ENDROOT
BRANCH   3   9
ATOM      9  C   UNL     1      33.405 -21.281 -18.740  0.00  0.00    +0.084 C 
ATOM     10  C   UNL     1      34.194 -22.030 -17.862  0.00  0.00    +0.019 C 
ATOM     11  C   UNL     1      32.017 -21.261 -18.572  0.00  0.00    +0.019 C 
ATOM     12  C   UNL     1      33.601 -22.751 -16.825  0.00  0.00    +0.002 C 
ATOM     13  C   UNL     1      31.424 -21.982 -17.536  0.00  0.00    +0.002 C 
ATOM     14  C   UNL     1      32.216 -22.727 -16.663  0.00  0.00    +0.000 C 
ENDBRANCH   3   9
BRANCH   5  16
ATOM     15  O   UNL     1      34.634 -15.998 -20.949  0.00  0.00    -0.270 OA
ATOM     16  N   UNL     1      34.068 -17.876 -22.206  0.00  0.00    -0.276 N 
ATOM     17  C   UNL     1      34.204 -16.504 -21.984  0.00  0.00    +0.251 C 
ATOM     18  H   UNL     1      33.712 -18.171 -23.074  0.00  0.00    +0.155 HD
BRANCH  17  20
ATOM     19  N   UNL     1      33.386 -15.366 -25.446  0.00  0.00    -0.242 NA
ATOM     20  C   UNL     1      33.812 -15.617 -23.109  0.00  0.00    +0.073 C 
ATOM     21  C   UNL     1      33.528 -14.294 -22.868  0.00  0.00    +0.008 C 
ATOM     22  C   UNL     1      33.736 -16.119 -24.379  0.00  0.00    +0.103 C 
ATOM     23  C   UNL     1      33.165 -13.487 -23.941  0.00  0.00    +0.021 C 
ATOM     24  C   UNL     1      33.109 -14.066 -25.198  0.00  0.00    +0.099 C 
ENDBRANCH  17  20
ENDBRANCH   5  16
TORSDOF 3
ENDMDL
