MODEL 1
REMARK VINA RESULT:     -12.2      0.000      0.000
REMARK  Name = 24795070
REMARK  5 active torsions:
REMARK  status: ('A' for Active; 'I' for Inactive)
REMARK    1  A    between atoms: N_1  and  C_23
REMARK    2  A    between atoms: C_9  and  C_12
REMARK    3  A    between atoms: C_15  and  O_18
REMARK    4  A    between atoms: O_18  and  C_22
REMARK    5  A    between atoms: C_23  and  C_25
REMARK                            x       y       z     vdW  Elec       q    Type
REMARK                         _______ _______ _______ _____ _____    ______ ____
ROOT
ATOM      1  N   UNL     1      32.360 -22.341 -18.369  0.00  0.00    -0.317 N 
ATOM      2  N   UNL     1      33.309 -23.027 -15.062  0.00  0.00    -0.170 N 
ATOM      3  N   UNL     1      33.449 -22.807 -16.396  0.00  0.00    -0.158 NA
ATOM      4  N   UNL     1      32.365 -23.273 -13.057  0.00  0.00    -0.226 NA
ATOM      5  C   UNL     1      32.330 -22.570 -17.040  0.00  0.00    +0.147 C 
ATOM      6  C   UNL     1      30.994 -22.544 -16.353  0.00  0.00    +0.039 C 
ATOM      7  C   UNL     1      32.138 -23.024 -14.330  0.00  0.00    +0.155 C 
ATOM      8  C   UNL     1      30.944 -22.770 -15.036  0.00  0.00    +0.039 C 
ATOM      9  C   UNL     1      34.328 -23.292 -14.185  0.00  0.00    +0.095 C 
ATOM     10  C   UNL     1      33.723 -23.440 -12.961  0.00  0.00    +0.117 C 
ATOM     11  H   UNL     1      31.509 -22.165 -18.833  0.00  0.00    +0.148 HD
ENDROOT
BRANCH   9  12
ATOM     12  C   UNL     1      35.720 -23.381 -14.559  0.00  0.00    +0.020 C 
ATOM     13  C   UNL     1      36.497 -24.448 -14.106  0.00  0.00    +0.039 C 
ATOM     14  C   UNL     1      36.286 -22.401 -15.374  0.00  0.00    +0.002 C 
ATOM     15  C   UNL     1      37.842 -24.533 -14.467  0.00  0.00    +0.147 C 
ATOM     16  C   UNL     1      37.631 -22.487 -15.734  0.00  0.00    +0.003 C 
ATOM     17  C   UNL     1      38.409 -23.552 -15.281  0.00  0.00    +0.037 C 
BRANCH  15  18
ATOM     18  O   UNL     1      38.600 -25.572 -14.025  0.00  0.00    -0.404 OA
BRANCH  18  22
ATOM     19  F   UNL     1      40.634 -26.442 -13.444  0.00  0.00    -0.133 F 
ATOM     20  F   UNL     1      40.420 -24.281 -13.686  0.00  0.00    -0.133 F 
ATOM     21  F   UNL     1      40.385 -25.563 -15.457  0.00  0.00    -0.133 F 
ATOM     22  C   UNL     1      40.014 -25.480 -14.160  0.00  0.00    +0.575 C 
ENDBRANCH  18  22
ENDBRANCH  15  18
ENDBRANCH   9  12
BRANCH   1  23
ATOM     23  C   UNL     1      33.573 -22.339 -19.142  0.00  0.00    +0.088 C 
BRANCH  23  25
ATOM     24  N   UNL     1      35.123 -18.885 -21.222  0.00  0.00    +0.386 N 
ATOM     25  C   UNL     1      34.016 -20.903 -19.405  0.00  0.00    +0.015 C 
ATOM     26  C   UNL     1      33.192 -20.269 -20.531  0.00  0.00    -0.021 C 
ATOM     27  C   UNL     1      35.506 -20.842 -19.757  0.00  0.00    -0.021 C 
ATOM     28  C   UNL     1      33.697 -18.865 -20.868  0.00  0.00    -0.077 C 
ATOM     29  C   UNL     1      35.936 -19.418 -20.119  0.00  0.00    -0.077 C 
ATOM     30  C   UNL     1      35.578 -17.545 -21.591  0.00  0.00    -0.101 C 
ATOM     31  H   UNL     1      35.239 -19.502 -22.025  0.00  0.00    -0.080 HD
ENDBRANCH  23  25
ENDBRANCH   1  23
TORSDOF 5
ENDMDL
MODEL 2
REMARK VINA RESULT:     -11.8      5.676      7.456
REMARK  Name = 24795070
REMARK  5 active torsions:
REMARK  status: ('A' for Active; 'I' for Inactive)
REMARK    1  A    between atoms: N_1  and  C_23
REMARK    2  A    between atoms: C_9  and  C_12
REMARK    3  A    between atoms: C_15  and  O_18
REMARK    4  A    between atoms: O_18  and  C_22
REMARK    5  A    between atoms: C_23  and  C_25
REMARK                            x       y       z     vdW  Elec       q    Type
REMARK                         _______ _______ _______ _____ _____    ______ ____
ROOT
ATOM      1  N   UNL     1      34.368 -22.204 -17.520  0.00  0.00    -0.317 N 
ATOM      2  N   UNL     1      32.512 -23.314 -14.757  0.00  0.00    -0.170 N 
ATOM      3  N   UNL     1      32.763 -22.918 -16.033  0.00  0.00    -0.158 NA
ATOM      4  N   UNL     1      32.834 -23.838 -12.614  0.00  0.00    -0.226 NA
ATOM      5  C   UNL     1      34.014 -22.610 -16.283  0.00  0.00    +0.147 C 
ATOM      6  C   UNL     1      35.089 -22.689 -15.236  0.00  0.00    +0.039 C 
ATOM      7  C   UNL     1      33.418 -23.424 -13.721  0.00  0.00    +0.155 C 
ATOM      8  C   UNL     1      34.758 -23.089 -14.003  0.00  0.00    +0.039 C 
ATOM      9  C   UNL     1      31.289 -23.684 -14.262  0.00  0.00    +0.095 C 
ATOM     10  C   UNL     1      31.513 -24.000 -12.945  0.00  0.00    +0.117 C 
ATOM     11  H   UNL     1      35.313 -21.978 -17.686  0.00  0.00    +0.148 HD
ENDROOT
BRANCH   9  12
ATOM     12  C   UNL     1      30.071 -23.705 -15.037  0.00  0.00    +0.020 C 
ATOM     13  C   UNL     1      29.465 -22.507 -15.417  0.00  0.00    +0.039 C 
ATOM     14  C   UNL     1      29.501 -24.924 -15.405  0.00  0.00    +0.002 C 
ATOM     15  C   UNL     1      28.288 -22.529 -16.165  0.00  0.00    +0.147 C 
ATOM     16  C   UNL     1      28.324 -24.944 -16.153  0.00  0.00    +0.003 C 
ATOM     17  C   UNL     1      27.717 -23.747 -16.532  0.00  0.00    +0.037 C 
BRANCH  15  18
ATOM     18  O   UNL     1      27.697 -21.361 -16.536  0.00  0.00    -0.404 OA
BRANCH  18  22
ATOM     19  F   UNL     1      26.057 -22.190 -17.897  0.00  0.00    -0.133 F 
ATOM     20  F   UNL     1      25.922 -20.128 -17.188  0.00  0.00    -0.133 F 
ATOM     21  F   UNL     1      25.575 -21.765 -15.782  0.00  0.00    -0.133 F 
ATOM     22  C   UNL     1      26.308 -21.378 -16.848  0.00  0.00    +0.575 C 
ENDBRANCH  18  22
ENDBRANCH  15  18
ENDBRANCH   9  12
BRANCH   1  23
ATOM     23  C   UNL     1      33.436 -22.087 -18.609  0.00  0.00    +0.088 C 
BRANCH  23  25
ATOM     24  N   UNL     1      35.078 -18.693 -20.717  0.00  0.00    +0.386 N 
ATOM     25  C   UNL     1      34.053 -21.257 -19.731  0.00  0.00    +0.015 C 
ATOM     26  C   UNL     1      35.422 -20.706 -19.321  0.00  0.00    -0.021 C 
ATOM     27  C   UNL     1      33.129 -20.102 -20.132  0.00  0.00    -0.021 C 
ATOM     28  C   UNL     1      36.002 -19.792 -20.401  0.00  0.00    -0.077 C 
ATOM     29  C   UNL     1      33.784 -19.207 -21.188  0.00  0.00    -0.077 C 
ATOM     30  C   UNL     1      35.668 -17.800 -21.713  0.00  0.00    -0.101 C 
ATOM     31  H   UNL     1      34.914 -18.164 -19.860  0.00  0.00    -0.080 HD
ENDBRANCH  23  25
ENDBRANCH   1  23
TORSDOF 5
ENDMDL
MODEL 3
REMARK VINA RESULT:     -11.3      5.200      6.922
REMARK  Name = 24795070
REMARK  5 active torsions:
REMARK  status: ('A' for Active; 'I' for Inactive)
REMARK    1  A    between atoms: N_1  and  C_23
REMARK    2  A    between atoms: C_9  and  C_12
REMARK    3  A    between atoms: C_15  and  O_18
REMARK    4  A    between atoms: O_18  and  C_22
REMARK    5  A    between atoms: C_23  and  C_25
REMARK                            x       y       z     vdW  Elec       q    Type
REMARK                         _______ _______ _______ _____ _____    ______ ____
ROOT
ATOM      1  N   UNL     1      34.782 -22.099 -17.405  0.00  0.00    -0.317 N 
ATOM      2  N   UNL     1      33.468 -23.208 -14.347  0.00  0.00    -0.170 N 
ATOM      3  N   UNL     1      33.490 -22.868 -15.663  0.00  0.00    -0.158 NA
ATOM      4  N   UNL     1      34.149 -23.569 -12.255  0.00  0.00    -0.226 NA
ATOM      5  C   UNL     1      34.654 -22.460 -16.112  0.00  0.00    +0.147 C 
ATOM      6  C   UNL     1      35.872 -22.375 -15.235  0.00  0.00    +0.039 C 
ATOM      7  C   UNL     1      34.521 -23.170 -13.454  0.00  0.00    +0.155 C 
ATOM      8  C   UNL     1      35.765 -22.729 -13.950  0.00  0.00    +0.039 C 
ATOM      9  C   UNL     1      32.374 -23.660 -13.657  0.00  0.00    +0.095 C 
ATOM     10  C   UNL     1      32.817 -23.874 -12.375  0.00  0.00    +0.117 C 
ATOM     11  H   UNL     1      35.665 -21.796 -17.721  0.00  0.00    +0.148 HD
ENDROOT
BRANCH   9  12
ATOM     12  C   UNL     1      31.065 -23.842 -14.239  0.00  0.00    +0.020 C 
ATOM     13  C   UNL     1      30.473 -22.806 -14.962  0.00  0.00    +0.039 C 
ATOM     14  C   UNL     1      30.393 -25.054 -14.076  0.00  0.00    +0.002 C 
ATOM     15  C   UNL     1      29.208 -22.982 -15.523  0.00  0.00    +0.147 C 
ATOM     16  C   UNL     1      29.127 -25.228 -14.637  0.00  0.00    +0.003 C 
ATOM     17  C   UNL     1      28.535 -24.193 -15.360  0.00  0.00    +0.037 C 
BRANCH  15  18
ATOM     18  O   UNL     1      28.631 -21.973 -16.229  0.00  0.00    -0.404 OA
BRANCH  18  22
ATOM     19  F   UNL     1      27.038 -23.077 -17.444  0.00  0.00    -0.133 F 
ATOM     20  F   UNL     1      26.842 -20.925 -17.122  0.00  0.00    -0.133 F 
ATOM     21  F   UNL     1      26.504 -22.290 -15.449  0.00  0.00    -0.133 F 
ATOM     22  C   UNL     1      27.250 -22.082 -16.555  0.00  0.00    +0.575 C 
ENDBRANCH  18  22
ENDBRANCH  15  18
ENDBRANCH   9  12
BRANCH   1  23
ATOM     23  C   UNL     1      33.694 -22.135 -18.346  0.00  0.00    +0.088 C 
BRANCH  23  25
ATOM     24  N   UNL     1      34.654 -18.731 -20.825  0.00  0.00    +0.386 N 
ATOM     25  C   UNL     1      34.054 -21.318 -19.583  0.00  0.00    +0.015 C 
ATOM     26  C   UNL     1      35.403 -20.614 -19.407  0.00  0.00    -0.021 C 
ATOM     27  C   UNL     1      32.967 -20.283 -19.894  0.00  0.00    -0.021 C 
ATOM     28  C   UNL     1      35.723 -19.714 -20.602  0.00  0.00    -0.077 C 
ATOM     29  C   UNL     1      33.366 -19.394 -21.074  0.00  0.00    -0.077 C 
ATOM     30  C   UNL     1      34.997 -17.845 -21.937  0.00  0.00    -0.101 C 
ATOM     31  H   UNL     1      34.561 -18.170 -19.978  0.00  0.00    -0.080 HD
ENDBRANCH  23  25
ENDBRANCH   1  23
TORSDOF 5
ENDMDL
MODEL 4
REMARK VINA RESULT:     -11.2      2.930      6.342
REMARK  Name = 24795070
REMARK  5 active torsions:
REMARK  status: ('A' for Active; 'I' for Inactive)
REMARK    1  A    between atoms: N_1  and  C_23
REMARK    2  A    between atoms: C_9  and  C_12
REMARK    3  A    between atoms: C_15  and  O_18
REMARK    4  A    between atoms: O_18  and  C_22
REMARK    5  A    between atoms: C_23  and  C_25
REMARK                            x       y       z     vdW  Elec       q    Type
REMARK                         _______ _______ _______ _____ _____    ______ ____
ROOT
ATOM      1  N   UNL     1      34.039 -23.432 -12.639  0.00  0.00    -0.317 N 
ATOM      2  N   UNL     1      31.740 -23.142 -15.273  0.00  0.00    -0.170 N 
ATOM      3  N   UNL     1      32.925 -23.042 -14.615  0.00  0.00    -0.158 NA
ATOM      4  N   UNL     1      29.599 -23.598 -15.697  0.00  0.00    -0.226 NA
ATOM      5  C   UNL     1      32.913 -23.487 -13.380  0.00  0.00    +0.147 C 
ATOM      6  C   UNL     1      31.680 -24.063 -12.742  0.00  0.00    +0.039 C 
ATOM      7  C   UNL     1      30.552 -23.652 -14.789  0.00  0.00    +0.155 C 
ATOM      8  C   UNL     1      30.554 -24.125 -13.461  0.00  0.00    +0.039 C 
ATOM      9  C   UNL     1      31.509 -22.746 -16.565  0.00  0.00    +0.095 C 
ATOM     10  C   UNL     1      30.187 -23.036 -16.801  0.00  0.00    +0.117 C 
ATOM     11  H   UNL     1      34.008 -23.772 -11.715  0.00  0.00    +0.148 HD
ENDROOT
BRANCH   9  12
ATOM     12  C   UNL     1      32.507 -22.155 -17.425  0.00  0.00    +0.020 C 
ATOM     13  C   UNL     1      33.862 -22.346 -17.154  0.00  0.00    +0.039 C 
ATOM     14  C   UNL     1      32.115 -21.394 -18.527  0.00  0.00    +0.002 C 
ATOM     15  C   UNL     1      34.826 -21.775 -17.986  0.00  0.00    +0.147 C 
ATOM     16  C   UNL     1      33.080 -20.823 -19.357  0.00  0.00    +0.003 C 
ATOM     17  C   UNL     1      34.434 -21.013 -19.086  0.00  0.00    +0.037 C 
BRANCH  15  18
ATOM     18  O   UNL     1      36.148 -21.961 -17.722  0.00  0.00    -0.404 OA
BRANCH  18  22
ATOM     19  F   UNL     1      37.123 -20.031 -16.978  0.00  0.00    -0.133 F 
ATOM     20  F   UNL     1      37.803 -21.952 -16.188  0.00  0.00    -0.133 F 
ATOM     21  F   UNL     1      35.845 -21.184 -15.592  0.00  0.00    -0.133 F 
ATOM     22  C   UNL     1      36.719 -21.268 -16.618  0.00  0.00    +0.575 C 
ENDBRANCH  18  22
ENDBRANCH  15  18
ENDBRANCH   9  12
BRANCH   1  23
ATOM     23  C   UNL     1      35.283 -22.904 -13.132  0.00  0.00    +0.088 C 
BRANCH  23  25
ATOM     24  N   UNL     1      38.885 -25.039 -14.193  0.00  0.00    +0.386 N 
ATOM     25  C   UNL     1      36.330 -24.013 -13.184  0.00  0.00    +0.015 C 
ATOM     26  C   UNL     1      37.681 -23.520 -12.655  0.00  0.00    -0.021 C 
ATOM     27  C   UNL     1      36.496 -24.546 -14.612  0.00  0.00    -0.021 C 
ATOM     28  C   UNL     1      38.761 -24.595 -12.798  0.00  0.00    -0.077 C 
ATOM     29  C   UNL     1      37.615 -25.588 -14.690  0.00  0.00    -0.077 C 
ATOM     30  C   UNL     1      39.955 -26.028 -14.322  0.00  0.00    -0.101 C 
ATOM     31  H   UNL     1      39.121 -24.227 -14.762  0.00  0.00    -0.080 HD
ENDBRANCH  23  25
ENDBRANCH   1  23
TORSDOF 5
ENDMDL
MODEL 5
REMARK VINA RESULT:     -11.1      4.508      6.115
REMARK  Name = 24795070
REMARK  5 active torsions:
REMARK  status: ('A' for Active; 'I' for Inactive)
REMARK    1  A    between atoms: N_1  and  C_23
REMARK    2  A    between atoms: C_9  and  C_12
REMARK    3  A    between atoms: C_15  and  O_18
REMARK    4  A    between atoms: O_18  and  C_22
REMARK    5  A    between atoms: C_23  and  C_25
REMARK                            x       y       z     vdW  Elec       q    Type
REMARK                         _______ _______ _______ _____ _____    ______ ____
ROOT
ATOM      1  N   UNL     1      36.078 -21.193 -18.585  0.00  0.00    -0.317 N 
ATOM      2  N   UNL     1      35.128 -22.466 -15.457  0.00  0.00    -0.170 N 
ATOM      3  N   UNL     1      34.990 -22.018 -16.733  0.00  0.00    -0.158 NA
ATOM      4  N   UNL     1      36.067 -23.048 -13.520  0.00  0.00    -0.226 NA
ATOM      5  C   UNL     1      36.106 -21.653 -17.317  0.00  0.00    +0.147 C 
ATOM      6  C   UNL     1      37.439 -21.725 -16.626  0.00  0.00    +0.039 C 
ATOM      7  C   UNL     1      36.296 -22.575 -14.729  0.00  0.00    +0.155 C 
ATOM      8  C   UNL     1      37.488 -22.178 -15.369  0.00  0.00    +0.039 C 
ATOM      9  C   UNL     1      34.110 -22.900 -14.649  0.00  0.00    +0.095 C 
ATOM     10  C   UNL     1      34.712 -23.251 -13.465  0.00  0.00    +0.117 C 
ATOM     11  H   UNL     1      36.928 -20.925 -19.004  0.00  0.00    +0.148 HD
ENDROOT
BRANCH   9  12
ATOM     12  C   UNL     1      32.721 -22.943 -15.042  0.00  0.00    +0.020 C 
ATOM     13  C   UNL     1      31.779 -23.549 -14.210  0.00  0.00    +0.039 C 
ATOM     14  C   UNL     1      32.323 -22.380 -16.254  0.00  0.00    +0.002 C 
ATOM     15  C   UNL     1      30.438 -23.591 -14.591  0.00  0.00    +0.147 C 
ATOM     16  C   UNL     1      30.981 -22.423 -16.634  0.00  0.00    +0.003 C 
ATOM     17  C   UNL     1      30.039 -23.029 -15.803  0.00  0.00    +0.037 C 
BRANCH  15  18
ATOM     18  O   UNL     1      29.519 -24.182 -13.780  0.00  0.00    -0.404 OA
BRANCH  18  22
ATOM     19  F   UNL     1      27.861 -25.711 -13.403  0.00  0.00    -0.133 F 
ATOM     20  F   UNL     1      29.345 -26.097 -14.960  0.00  0.00    -0.133 F 
ATOM     21  F   UNL     1      27.835 -24.550 -15.284  0.00  0.00    -0.133 F 
ATOM     22  C   UNL     1      28.624 -25.128 -14.352  0.00  0.00    +0.575 C 
ENDBRANCH  18  22
ENDBRANCH  15  18
ENDBRANCH   9  12
BRANCH   1  23
ATOM     23  C   UNL     1      34.869 -21.076 -19.355  0.00  0.00    +0.088 C 
BRANCH  23  25
ATOM     24  N   UNL     1      34.952 -17.497 -21.772  0.00  0.00    +0.386 N 
ATOM     25  C   UNL     1      35.104 -20.159 -20.551  0.00  0.00    +0.015 C 
ATOM     26  C   UNL     1      36.085 -19.035 -20.200  0.00  0.00    -0.021 C 
ATOM     27  C   UNL     1      33.786 -19.558 -21.051  0.00  0.00    -0.021 C 
ATOM     28  C   UNL     1      36.248 -18.055 -21.363  0.00  0.00    -0.077 C 
ATOM     29  C   UNL     1      34.025 -18.560 -22.187  0.00  0.00    -0.077 C 
ATOM     30  C   UNL     1      35.130 -16.524 -22.849  0.00  0.00    -0.101 C 
ATOM     31  H   UNL     1      34.546 -17.022 -20.966  0.00  0.00    -0.080 HD
ENDBRANCH  23  25
ENDBRANCH   1  23
TORSDOF 5
ENDMDL
MODEL 6
REMARK VINA RESULT:     -10.9     12.615     16.842
REMARK  Name = 24795070
REMARK  5 active torsions:
REMARK  status: ('A' for Active; 'I' for Inactive)
REMARK    1  A    between atoms: N_1  and  C_23
REMARK    2  A    between atoms: C_9  and  C_12
REMARK    3  A    between atoms: C_15  and  O_18
REMARK    4  A    between atoms: O_18  and  C_22
REMARK    5  A    between atoms: C_23  and  C_25
REMARK                            x       y       z     vdW  Elec       q    Type
REMARK                         _______ _______ _______ _____ _____    ______ ____
ROOT
ATOM      1  N   UNL     1      31.916 -11.725 -21.541  0.00  0.00    -0.317 N 
ATOM      2  N   UNL     1      31.624  -8.262 -21.061  0.00  0.00    -0.170 N 
ATOM      3  N   UNL     1      31.791  -9.435 -21.728  0.00  0.00    -0.158 NA
ATOM      4  N   UNL     1      31.301  -6.815 -19.396  0.00  0.00    -0.226 NA
ATOM      5  C   UNL     1      31.759 -10.510 -20.977  0.00  0.00    +0.147 C 
ATOM      6  C   UNL     1      31.553 -10.449 -19.489  0.00  0.00    +0.039 C 
ATOM      7  C   UNL     1      31.427  -8.090 -19.705  0.00  0.00    +0.155 C 
ATOM      8  C   UNL     1      31.396  -9.253 -18.910  0.00  0.00    +0.039 C 
ATOM      9  C   UNL     1      31.619  -7.015 -21.629  0.00  0.00    +0.095 C 
ATOM     10  C   UNL     1      31.419  -6.144 -20.586  0.00  0.00    +0.117 C 
ATOM     11  H   UNL     1      31.889 -12.519 -20.958  0.00  0.00    +0.148 HD
ENDROOT
BRANCH   9  12
ATOM     12  C   UNL     1      31.795  -6.763 -23.039  0.00  0.00    +0.020 C 
ATOM     13  C   UNL     1      33.048  -6.398 -23.531  0.00  0.00    +0.039 C 
ATOM     14  C   UNL     1      30.711  -6.885 -23.910  0.00  0.00    +0.002 C 
ATOM     15  C   UNL     1      33.218  -6.154 -24.894  0.00  0.00    +0.147 C 
ATOM     16  C   UNL     1      30.882  -6.640 -25.272  0.00  0.00    +0.003 C 
ATOM     17  C   UNL     1      32.134  -6.274 -25.765  0.00  0.00    +0.037 C 
BRANCH  15  18
ATOM     18  O   UNL     1      34.440  -5.798 -25.374  0.00  0.00    -0.404 OA
BRANCH  18  22
ATOM     19  F   UNL     1      35.918  -4.093 -25.748  0.00  0.00    -0.133 F 
ATOM     20  F   UNL     1      33.903  -3.631 -25.042  0.00  0.00    -0.133 F 
ATOM     21  F   UNL     1      34.183  -4.316 -27.098  0.00  0.00    -0.133 F 
ATOM     22  C   UNL     1      34.622  -4.462 -25.829  0.00  0.00    +0.575 C 
ENDBRANCH  18  22
ENDBRANCH  15  18
ENDBRANCH   9  12
BRANCH   1  23
ATOM     23  C   UNL     1      32.120 -11.919 -22.952  0.00  0.00    +0.088 C 
BRANCH  23  25
ATOM     24  N   UNL     1      33.739 -15.911 -23.266  0.00  0.00    +0.386 N 
ATOM     25  C   UNL     1      33.124 -13.046 -23.179  0.00  0.00    +0.015 C 
ATOM     26  C   UNL     1      32.689 -13.946 -24.340  0.00  0.00    -0.021 C 
ATOM     27  C   UNL     1      33.302 -13.887 -21.910  0.00  0.00    -0.021 C 
ATOM     28  C   UNL     1      33.636 -15.135 -24.509  0.00  0.00    -0.077 C 
ATOM     29  C   UNL     1      34.231 -15.079 -22.159  0.00  0.00    -0.077 C 
ATOM     30  C   UNL     1      34.607 -17.073 -23.458  0.00  0.00    -0.101 C 
ATOM     31  H   UNL     1      32.804 -16.239 -23.022  0.00  0.00    -0.080 HD
ENDBRANCH  23  25
ENDBRANCH   1  23
TORSDOF 5
ENDMDL
MODEL 7
REMARK VINA RESULT:     -10.9     13.141     17.312
REMARK  Name = 24795070
REMARK  5 active torsions:
REMARK  status: ('A' for Active; 'I' for Inactive)
REMARK    1  A    between atoms: N_1  and  C_23
REMARK    2  A    between atoms: C_9  and  C_12
REMARK    3  A    between atoms: C_15  and  O_18
REMARK    4  A    between atoms: O_18  and  C_22
REMARK    5  A    between atoms: C_23  and  C_25
REMARK                            x       y       z     vdW  Elec       q    Type
REMARK                         _______ _______ _______ _____ _____    ______ ____
ROOT
ATOM      1  N   UNL     1      31.850 -11.559 -21.894  0.00  0.00    -0.317 N 
ATOM      2  N   UNL     1      31.928  -8.142 -21.101  0.00  0.00    -0.170 N 
ATOM      3  N   UNL     1      32.070  -9.268 -21.849  0.00  0.00    -0.158 NA
ATOM      4  N   UNL     1      31.468  -6.803 -19.379  0.00  0.00    -0.226 NA
ATOM      5  C   UNL     1      31.744 -10.384 -21.240  0.00  0.00    +0.147 C 
ATOM      6  C   UNL     1      31.250 -10.414 -19.820  0.00  0.00    +0.039 C 
ATOM      7  C   UNL     1      31.484  -8.053 -19.797  0.00  0.00    +0.155 C 
ATOM      8  C   UNL     1      31.139  -9.259 -19.155  0.00  0.00    +0.039 C 
ATOM      9  C   UNL     1      32.203  -6.866 -21.520  0.00  0.00    +0.095 C 
ATOM     10  C   UNL     1      31.913  -6.063 -20.444  0.00  0.00    +0.117 C 
ATOM     11  H   UNL     1      31.600 -12.384 -21.418  0.00  0.00    +0.148 HD
ENDROOT
BRANCH   9  12
ATOM     12  C   UNL     1      32.694  -6.530 -22.835  0.00  0.00    +0.020 C 
ATOM     13  C   UNL     1      31.903  -5.775 -23.702  0.00  0.00    +0.039 C 
ATOM     14  C   UNL     1      33.958  -6.961 -23.238  0.00  0.00    +0.002 C 
ATOM     15  C   UNL     1      32.378  -5.451 -24.973  0.00  0.00    +0.147 C 
ATOM     16  C   UNL     1      34.431  -6.636 -24.510  0.00  0.00    +0.003 C 
ATOM     17  C   UNL     1      33.641  -5.882 -25.377  0.00  0.00    +0.037 C 
BRANCH  15  18
ATOM     18  O   UNL     1      31.607  -4.714 -25.819  0.00  0.00    -0.404 OA
BRANCH  18  22
ATOM     19  F   UNL     1      30.418  -3.035 -24.821  0.00  0.00    -0.133 F 
ATOM     20  F   UNL     1      31.342  -2.685 -26.770  0.00  0.00    -0.133 F 
ATOM     21  F   UNL     1      32.612  -2.831 -24.996  0.00  0.00    -0.133 F 
ATOM     22  C   UNL     1      31.496  -3.315 -25.584  0.00  0.00    +0.575 C 
ENDBRANCH  18  22
ENDBRANCH  15  18
ENDBRANCH   9  12
BRANCH   1  23
ATOM     23  C   UNL     1      32.309 -11.666 -23.254  0.00  0.00    +0.088 C 
BRANCH  23  25
ATOM     24  N   UNL     1      33.675 -15.763 -23.296  0.00  0.00    +0.386 N 
ATOM     25  C   UNL     1      33.243 -12.865 -23.391  0.00  0.00    +0.015 C 
ATOM     26  C   UNL     1      32.774 -13.803 -24.508  0.00  0.00    -0.021 C 
ATOM     27  C   UNL     1      33.342 -13.639 -22.072  0.00  0.00    -0.021 C 
ATOM     28  C   UNL     1      33.647 -15.057 -24.585  0.00  0.00    -0.077 C 
ATOM     29  C   UNL     1      34.198 -14.898 -22.229  0.00  0.00    -0.077 C 
ATOM     30  C   UNL     1      34.471 -16.986 -23.400  0.00  0.00    -0.101 C 
ATOM     31  H   UNL     1      32.717 -16.017 -23.056  0.00  0.00    -0.080 HD
ENDBRANCH  23  25
ENDBRANCH   1  23
TORSDOF 5
ENDMDL
MODEL 8
REMARK VINA RESULT:     -10.9      4.214      7.237
REMARK  Name = 24795070
REMARK  5 active torsions:
REMARK  status: ('A' for Active; 'I' for Inactive)
REMARK    1  A    between atoms: N_1  and  C_23
REMARK    2  A    between atoms: C_9  and  C_12
REMARK    3  A    between atoms: C_15  and  O_18
REMARK    4  A    between atoms: O_18  and  C_22
REMARK    5  A    between atoms: C_23  and  C_25
REMARK                            x       y       z     vdW  Elec       q    Type
REMARK                         _______ _______ _______ _____ _____    ______ ____
ROOT
ATOM      1  N   UNL     1      34.458 -23.298 -12.175  0.00  0.00    -0.317 N 
ATOM      2  N   UNL     1      32.712 -23.060 -15.209  0.00  0.00    -0.170 N 
ATOM      3  N   UNL     1      33.751 -22.957 -14.338  0.00  0.00    -0.158 NA
ATOM      4  N   UNL     1      30.683 -23.497 -16.022  0.00  0.00    -0.226 NA
ATOM      5  C   UNL     1      33.494 -23.359 -13.116  0.00  0.00    +0.147 C 
ATOM      6  C   UNL     1      32.149 -23.895 -12.710  0.00  0.00    +0.039 C 
ATOM      7  C   UNL     1      31.443 -23.536 -14.946  0.00  0.00    +0.155 C 
ATOM      8  C   UNL     1      31.180 -23.964 -13.629  0.00  0.00    +0.039 C 
ATOM      9  C   UNL     1      32.741 -22.704 -16.532  0.00  0.00    +0.095 C 
ATOM     10  C   UNL     1      31.483 -22.982 -17.008  0.00  0.00    +0.117 C 
ATOM     11  H   UNL     1      34.243 -23.606 -11.264  0.00  0.00    +0.148 HD
ENDROOT
BRANCH   9  12
ATOM     12  C   UNL     1      33.898 -22.159 -17.202  0.00  0.00    +0.020 C 
ATOM     13  C   UNL     1      33.825 -21.818 -18.553  0.00  0.00    +0.039 C 
ATOM     14  C   UNL     1      35.088 -21.972 -16.498  0.00  0.00    +0.002 C 
ATOM     15  C   UNL     1      34.942 -21.291 -19.200  0.00  0.00    +0.147 C 
ATOM     16  C   UNL     1      36.205 -21.445 -17.146  0.00  0.00    +0.003 C 
ATOM     17  C   UNL     1      36.133 -21.106 -18.497  0.00  0.00    +0.037 C 
BRANCH  15  18
ATOM     18  O   UNL     1      34.872 -20.959 -20.518  0.00  0.00    -0.404 OA
BRANCH  18  22
ATOM     19  F   UNL     1      33.456 -19.189 -20.215  0.00  0.00    -0.133 F 
ATOM     20  F   UNL     1      34.329 -19.540 -22.187  0.00  0.00    -0.133 F 
ATOM     21  F   UNL     1      35.600 -18.791 -20.574  0.00  0.00    -0.133 F 
ATOM     22  C   UNL     1      34.565 -19.612 -20.857  0.00  0.00    +0.575 C 
ENDBRANCH  18  22
ENDBRANCH  15  18
ENDBRANCH   9  12
BRANCH   1  23
ATOM     23  C   UNL     1      35.784 -22.806 -12.436  0.00  0.00    +0.088 C 
BRANCH  23  25
ATOM     24  N   UNL     1      39.279 -24.989 -13.731  0.00  0.00    +0.386 N 
ATOM     25  C   UNL     1      36.640 -23.919 -13.033  0.00  0.00    +0.015 C 
ATOM     26  C   UNL     1      37.593 -24.505 -11.986  0.00  0.00    -0.021 C 
ATOM     27  C   UNL     1      37.441 -23.411 -14.237  0.00  0.00    -0.021 C 
ATOM     28  C   UNL     1      38.523 -25.551 -12.603  0.00  0.00    -0.077 C 
ATOM     29  C   UNL     1      38.376 -24.494 -14.780  0.00  0.00    -0.077 C 
ATOM     30  C   UNL     1      40.200 -25.986 -14.277  0.00  0.00    -0.101 C 
ATOM     31  H   UNL     1      39.821 -24.198 -13.384  0.00  0.00    -0.080 HD
ENDBRANCH  23  25
ENDBRANCH   1  23
TORSDOF 5
ENDMDL
MODEL 9
REMARK VINA RESULT:     -10.6      4.556      7.280
REMARK  Name = 24795070
REMARK  5 active torsions:
REMARK  status: ('A' for Active; 'I' for Inactive)
REMARK    1  A    between atoms: N_1  and  C_23
REMARK    2  A    between atoms: C_9  and  C_12
REMARK    3  A    between atoms: C_15  and  O_18
REMARK    4  A    between atoms: O_18  and  C_22
REMARK    5  A    between atoms: C_23  and  C_25
REMARK                            x       y       z     vdW  Elec       q    Type
REMARK                         _______ _______ _______ _____ _____    ______ ____
ROOT
ATOM      1  N   UNL     1      31.972 -23.883 -14.641  0.00  0.00    -0.317 N 
ATOM      2  N   UNL     1      35.125 -22.548 -15.405  0.00  0.00    -0.170 N 
ATOM      3  N   UNL     1      33.820 -22.884 -15.581  0.00  0.00    -0.158 NA
ATOM      4  N   UNL     1      37.132 -22.324 -14.460  0.00  0.00    -0.226 NA
ATOM      5  C   UNL     1      33.265 -23.505 -14.567  0.00  0.00    +0.147 C 
ATOM      6  C   UNL     1      34.017 -23.821 -13.304  0.00  0.00    +0.039 C 
ATOM      7  C   UNL     1      35.909 -22.785 -14.293  0.00  0.00    +0.155 C 
ATOM      8  C   UNL     1      35.300 -23.454 -13.212  0.00  0.00    +0.039 C 
ATOM      9  C   UNL     1      35.912 -21.896 -16.319  0.00  0.00    +0.095 C 
ATOM     10  C   UNL     1      37.139 -21.772 -15.715  0.00  0.00    +0.117 C 
ATOM     11  H   UNL     1      31.575 -24.347 -13.868  0.00  0.00    +0.148 HD
ENDROOT
BRANCH   9  12
ATOM     12  C   UNL     1      35.461 -21.468 -17.622  0.00  0.00    +0.020 C 
ATOM     13  C   UNL     1      36.236 -20.585 -18.373  0.00  0.00    +0.039 C 
ATOM     14  C   UNL     1      34.249 -21.939 -18.129  0.00  0.00    +0.002 C 
ATOM     15  C   UNL     1      35.800 -20.171 -19.631  0.00  0.00    +0.147 C 
ATOM     16  C   UNL     1      33.813 -21.524 -19.387  0.00  0.00    +0.003 C 
ATOM     17  C   UNL     1      34.588 -20.640 -20.138  0.00  0.00    +0.037 C 
BRANCH  15  18
ATOM     18  O   UNL     1      36.556 -19.310 -20.364  0.00  0.00    -0.404 OA
BRANCH  18  22
ATOM     19  F   UNL     1      35.154 -19.123 -22.161  0.00  0.00    -0.133 F 
ATOM     20  F   UNL     1      36.822 -17.728 -21.952  0.00  0.00    -0.133 F 
ATOM     21  F   UNL     1      35.110 -17.554 -20.605  0.00  0.00    -0.133 F 
ATOM     22  C   UNL     1      35.893 -18.432 -21.267  0.00  0.00    +0.575 C 
ENDBRANCH  18  22
ENDBRANCH  15  18
ENDBRANCH   9  12
BRANCH   1  23
ATOM     23  C   UNL     1      31.144 -23.640 -15.792  0.00  0.00    +0.088 C 
BRANCH  23  25
ATOM     24  N   UNL     1      27.165 -21.963 -15.670  0.00  0.00    +0.386 N 
ATOM     25  C   UNL     1      29.704 -23.394 -15.350  0.00  0.00    +0.015 C 
ATOM     26  C   UNL     1      28.719 -23.709 -16.481  0.00  0.00    -0.021 C 
ATOM     27  C   UNL     1      29.511 -21.947 -14.883  0.00  0.00    -0.021 C 
ATOM     28  C   UNL     1      27.283 -23.370 -16.079  0.00  0.00    -0.077 C 
ATOM     29  C   UNL     1      28.048 -21.666 -14.533  0.00  0.00    -0.077 C 
ATOM     30  C   UNL     1      25.777 -21.641 -15.338  0.00  0.00    -0.101 C 
ATOM     31  H   UNL     1      27.456 -21.382 -16.456  0.00  0.00    -0.080 HD
ENDBRANCH  23  25
ENDBRANCH   1  23
TORSDOF 5
ENDMDL
