MODEL 1
REMARK VINA RESULT:     -11.1      0.000      0.000
REMARK  Name = 25021183
REMARK  7 active torsions:
REMARK  status: ('A' for Active; 'I' for Inactive)
REMARK    1  A    between atoms: C_3  and  C_10
REMARK    2  A    between atoms: C_7  and  C_20
REMARK    3  A    between atoms: N_9  and  C_12
REMARK    4  A    between atoms: C_12  and  C_13
REMARK    5  A    between atoms: C_20  and  N_21
REMARK    6  A    between atoms: C_20  and  C_25
REMARK    7  A    between atoms: C_25  and  C_26
REMARK                            x       y       z     vdW  Elec       q    Type
REMARK                         _______ _______ _______ _____ _____    ______ ____
ROOT
ATOM      1  O   UNL     1      35.815 -21.830 -18.241  0.00  0.00    -0.277 OA
ATOM      2  N   UNL     1      34.259 -22.318 -16.598  0.00  0.00    -0.275 N 
ATOM      3  C   UNL     1      33.280 -22.943 -17.477  0.00  0.00    +0.152 C 
ATOM      4  C   UNL     1      32.327 -23.674 -16.537  0.00  0.00    +0.031 C 
ATOM      5  C   UNL     1      32.384 -22.843 -15.258  0.00  0.00    +0.024 C 
ATOM      6  C   UNL     1      33.833 -22.386 -15.202  0.00  0.00    +0.094 C 
ATOM      7  C   UNL     1      35.491 -21.873 -17.053  0.00  0.00    +0.206 C 
ENDROOT
BRANCH   3  10
ATOM      8  O   UNL     1      31.485 -21.424 -17.887  0.00  0.00    -0.273 OA
ATOM      9  N   UNL     1      33.328 -21.402 -19.309  0.00  0.00    -0.299 N 
ATOM     10  C   UNL     1      32.589 -21.842 -18.224  0.00  0.00    +0.241 C 
ATOM     11  H   UNL     1      34.205 -21.815 -19.479  0.00  0.00    +0.150 HD
BRANCH   9  12
ATOM     12  C   UNL     1      32.872 -20.363 -20.205  0.00  0.00    +0.116 C 
BRANCH  12  13
ATOM     13  C   UNL     1      34.011 -19.551 -20.750  0.00  0.00    -0.003 C 
ATOM     14  C   UNL     1      33.782 -18.622 -21.765  0.00  0.00    -0.007 C 
ATOM     15  C   UNL     1      35.298 -19.725 -20.241  0.00  0.00    -0.003 C 
ATOM     16  C   UNL     1      34.840 -17.867 -22.271  0.00  0.00    -0.022 C 
ATOM     17  C   UNL     1      36.356 -18.970 -20.747  0.00  0.00    -0.001 C 
ATOM     18  C   UNL     1      36.128 -18.041 -21.762  0.00  0.00    -0.004 C 
ATOM     19  C   UNL     1      34.596 -16.874 -23.357  0.00  0.00    +0.031 C 
ENDBRANCH  12  13
ENDBRANCH   9  12
ENDBRANCH   3  10
BRANCH   7  20
ATOM     20  C   UNL     1      36.451 -21.414 -15.985  0.00  0.00    +0.018 C 
BRANCH  20  21
ATOM     21  N   UNL     1      37.068 -20.206 -16.515  0.00  0.00    +0.388 N 
ATOM     22  H   UNL     1      37.671 -20.448 -17.302  0.00  0.00    -0.089 HD
ATOM     23  H   UNL     1      37.623 -19.759 -15.786  0.00  0.00    -0.089 HD
ATOM     24  H   UNL     1      36.341 -19.564 -16.831  0.00  0.00    -0.089 HD
ENDBRANCH  20  21
BRANCH  20  25
ATOM     25  C   UNL     1      37.497 -22.488 -15.686  0.00  0.00    +0.013 C 
BRANCH  25  26
ATOM     26  C   UNL     1      37.132 -23.342 -14.493  0.00  0.00    -0.024 C 
ATOM     27  C   UNL     1      36.841 -22.741 -13.269  0.00  0.00    -0.004 C 
ATOM     28  C   UNL     1      37.089 -24.730 -14.617  0.00  0.00    -0.004 C 
ATOM     29  C   UNL     1      36.504 -23.529 -12.168  0.00  0.00    -0.000 C 
ATOM     30  C   UNL     1      36.752 -25.518 -13.516  0.00  0.00    -0.000 C 
ATOM     31  C   UNL     1      36.460 -24.917 -12.292  0.00  0.00    -0.000 C 
ENDBRANCH  25  26
ENDBRANCH  20  25
ENDBRANCH   7  20
TORSDOF 7
ENDMDL
MODEL 2
REMARK VINA RESULT:     -11.0      5.065      8.356
REMARK  Name = 25021183
REMARK  7 active torsions:
REMARK  status: ('A' for Active; 'I' for Inactive)
REMARK    1  A    between atoms: C_3  and  C_10
REMARK    2  A    between atoms: C_7  and  C_20
REMARK    3  A    between atoms: N_9  and  C_12
REMARK    4  A    between atoms: C_12  and  C_13
REMARK    5  A    between atoms: C_20  and  N_21
REMARK    6  A    between atoms: C_20  and  C_25
REMARK    7  A    between atoms: C_25  and  C_26
REMARK                            x       y       z     vdW  Elec       q    Type
REMARK                         _______ _______ _______ _____ _____    ______ ____
ROOT
ATOM      1  O   UNL     1      35.572 -17.284 -20.556  0.00  0.00    -0.277 OA
ATOM      2  N   UNL     1      34.417 -16.687 -22.471  0.00  0.00    -0.275 N 
ATOM      3  C   UNL     1      34.703 -15.261 -22.401  0.00  0.00    +0.152 C 
ATOM      4  C   UNL     1      34.340 -14.724 -23.781  0.00  0.00    +0.031 C 
ATOM      5  C   UNL     1      33.240 -15.672 -24.251  0.00  0.00    +0.024 C 
ATOM      6  C   UNL     1      33.668 -17.015 -23.682  0.00  0.00    +0.094 C 
ATOM      7  C   UNL     1      34.944 -17.598 -21.568  0.00  0.00    +0.206 C 
ENDROOT
BRANCH   3  10
ATOM      8  O   UNL     1      33.969 -14.978 -20.147  0.00  0.00    -0.273 OA
ATOM      9  N   UNL     1      32.857 -13.839 -21.846  0.00  0.00    -0.299 N 
ATOM     10  C   UNL     1      33.823 -14.686 -21.331  0.00  0.00    +0.241 C 
ATOM     11  H   UNL     1      32.842 -13.681 -22.818  0.00  0.00    +0.150 HD
BRANCH   9  12
ATOM     12  C   UNL     1      31.871 -13.174 -21.026  0.00  0.00    +0.116 C 
BRANCH  12  13
ATOM     13  C   UNL     1      31.779 -11.708 -21.332  0.00  0.00    -0.003 C 
ATOM     14  C   UNL     1      31.450 -10.804 -20.323  0.00  0.00    -0.007 C 
ATOM     15  C   UNL     1      32.023 -11.249 -22.627  0.00  0.00    -0.003 C 
ATOM     16  C   UNL     1      31.364  -9.440 -20.607  0.00  0.00    -0.022 C 
ATOM     17  C   UNL     1      31.937  -9.887 -22.912  0.00  0.00    -0.001 C 
ATOM     18  C   UNL     1      31.608  -8.982 -21.902  0.00  0.00    -0.004 C 
ATOM     19  C   UNL     1      31.012  -8.473 -19.528  0.00  0.00    +0.031 C 
ENDBRANCH  12  13
ENDBRANCH   9  12
ENDBRANCH   3  10
BRANCH   7  20
ATOM     20  C   UNL     1      34.693 -19.050 -21.889  0.00  0.00    +0.018 C 
BRANCH  20  21
ATOM     21  N   UNL     1      34.585 -19.110 -23.340  0.00  0.00    +0.388 N 
ATOM     22  H   UNL     1      35.256 -18.467 -23.759  0.00  0.00    -0.089 HD
ATOM     23  H   UNL     1      33.641 -18.847 -23.621  0.00  0.00    -0.089 HD
ATOM     24  H   UNL     1      34.782 -20.060 -23.656  0.00  0.00    -0.089 HD
ENDBRANCH  20  21
BRANCH  20  25
ATOM     25  C   UNL     1      33.416 -19.551 -21.215  0.00  0.00    +0.013 C 
BRANCH  25  26
ATOM     26  C   UNL     1      33.695 -20.448 -20.030  0.00  0.00    -0.024 C 
ATOM     27  C   UNL     1      35.011 -20.704 -19.645  0.00  0.00    -0.004 C 
ATOM     28  C   UNL     1      32.637 -21.020 -19.324  0.00  0.00    -0.004 C 
ATOM     29  C   UNL     1      35.269 -21.531 -18.552  0.00  0.00    -0.000 C 
ATOM     30  C   UNL     1      32.895 -21.848 -18.231  0.00  0.00    -0.000 C 
ATOM     31  C   UNL     1      34.211 -22.104 -17.846  0.00  0.00    -0.000 C 
ENDBRANCH  25  26
ENDBRANCH  20  25
ENDBRANCH   7  20
TORSDOF 7
ENDMDL
MODEL 3
REMARK VINA RESULT:     -10.9      2.380      7.549
REMARK  Name = 25021183
REMARK  7 active torsions:
REMARK  status: ('A' for Active; 'I' for Inactive)
REMARK    1  A    between atoms: C_3  and  C_10
REMARK    2  A    between atoms: C_7  and  C_20
REMARK    3  A    between atoms: N_9  and  C_12
REMARK    4  A    between atoms: C_12  and  C_13
REMARK    5  A    between atoms: C_20  and  N_21
REMARK    6  A    between atoms: C_20  and  C_25
REMARK    7  A    between atoms: C_25  and  C_26
REMARK                            x       y       z     vdW  Elec       q    Type
REMARK                         _______ _______ _______ _____ _____    ______ ____
ROOT
ATOM      1  O   UNL     1      33.056 -23.679 -17.173  0.00  0.00    -0.277 OA
ATOM      2  N   UNL     1      34.867 -22.492 -16.355  0.00  0.00    -0.275 N 
ATOM      3  C   UNL     1      35.352 -23.528 -15.454  0.00  0.00    +0.152 C 
ATOM      4  C   UNL     1      36.764 -23.088 -15.081  0.00  0.00    +0.031 C 
ATOM      5  C   UNL     1      36.699 -21.566 -15.182  0.00  0.00    +0.024 C 
ATOM      6  C   UNL     1      35.758 -21.333 -16.354  0.00  0.00    +0.094 C 
ATOM      7  C   UNL     1      33.787 -22.687 -17.202  0.00  0.00    +0.206 C 
ENDROOT
BRANCH   3  10
ATOM      8  O   UNL     1      34.745 -24.113 -13.220  0.00  0.00    -0.273 OA
ATOM      9  N   UNL     1      33.255 -22.866 -14.503  0.00  0.00    -0.299 N 
ATOM     10  C   UNL     1      34.440 -23.540 -14.263  0.00  0.00    +0.241 C 
ATOM     11  H   UNL     1      33.126 -22.444 -15.383  0.00  0.00    +0.150 HD
BRANCH   9  12
ATOM     12  C   UNL     1      32.199 -22.752 -13.524  0.00  0.00    +0.116 C 
BRANCH  12  13
ATOM     13  C   UNL     1      30.898 -23.302 -14.032  0.00  0.00    -0.003 C 
ATOM     14  C   UNL     1      30.062 -22.505 -14.814  0.00  0.00    -0.007 C 
ATOM     15  C   UNL     1      30.526 -24.611 -13.724  0.00  0.00    -0.003 C 
ATOM     16  C   UNL     1      28.853 -23.017 -15.287  0.00  0.00    -0.022 C 
ATOM     17  C   UNL     1      29.317 -25.121 -14.196  0.00  0.00    -0.001 C 
ATOM     18  C   UNL     1      28.480 -24.325 -14.978  0.00  0.00    -0.004 C 
ATOM     19  C   UNL     1      27.958 -22.165 -16.123  0.00  0.00    +0.031 C 
ENDBRANCH  12  13
ENDBRANCH   9  12
ENDBRANCH   3  10
BRANCH   7  20
ATOM     20  C   UNL     1      33.528 -21.580 -18.192  0.00  0.00    +0.018 C 
BRANCH  20  21
ATOM     21  N   UNL     1      32.097 -21.629 -18.459  0.00  0.00    +0.388 N 
ATOM     22  H   UNL     1      31.588 -21.255 -17.658  0.00  0.00    -0.089 HD
ATOM     23  H   UNL     1      31.815 -22.594 -18.622  0.00  0.00    -0.089 HD
ATOM     24  H   UNL     1      31.886 -21.068 -19.285  0.00  0.00    -0.089 HD
ENDBRANCH  20  21
BRANCH  20  25
ATOM     25  C   UNL     1      34.339 -21.783 -19.472  0.00  0.00    +0.013 C 
BRANCH  25  26
ATOM     26  C   UNL     1      34.747 -20.479 -20.117  0.00  0.00    -0.024 C 
ATOM     27  C   UNL     1      33.815 -19.742 -20.847  0.00  0.00    -0.004 C 
ATOM     28  C   UNL     1      36.055 -20.014 -19.985  0.00  0.00    -0.004 C 
ATOM     29  C   UNL     1      34.191 -18.538 -21.444  0.00  0.00    -0.000 C 
ATOM     30  C   UNL     1      36.431 -18.810 -20.581  0.00  0.00    -0.000 C 
ATOM     31  C   UNL     1      35.499 -18.073 -21.311  0.00  0.00    -0.000 C 
ENDBRANCH  25  26
ENDBRANCH  20  25
ENDBRANCH   7  20
TORSDOF 7
ENDMDL
MODEL 4
REMARK VINA RESULT:     -10.8      7.392     10.943
REMARK  Name = 25021183
REMARK  7 active torsions:
REMARK  status: ('A' for Active; 'I' for Inactive)
REMARK    1  A    between atoms: C_3  and  C_10
REMARK    2  A    between atoms: C_7  and  C_20
REMARK    3  A    between atoms: N_9  and  C_12
REMARK    4  A    between atoms: C_12  and  C_13
REMARK    5  A    between atoms: C_20  and  N_21
REMARK    6  A    between atoms: C_20  and  C_25
REMARK    7  A    between atoms: C_25  and  C_26
REMARK                            x       y       z     vdW  Elec       q    Type
REMARK                         _______ _______ _______ _____ _____    ______ ____
ROOT
ATOM      1  O   UNL     1      32.696 -14.318 -24.762  0.00  0.00    -0.277 OA
ATOM      2  N   UNL     1      33.161 -14.012 -22.515  0.00  0.00    -0.275 N 
ATOM      3  C   UNL     1      32.100 -13.049 -22.255  0.00  0.00    +0.152 C 
ATOM      4  C   UNL     1      31.993 -12.991 -20.735  0.00  0.00    +0.031 C 
ATOM      5  C   UNL     1      33.408 -13.323 -20.268  0.00  0.00    +0.024 C 
ATOM      6  C   UNL     1      33.883 -14.344 -21.289  0.00  0.00    +0.094 C 
ATOM      7  C   UNL     1      33.324 -14.626 -23.748  0.00  0.00    +0.206 C 
ENDROOT
BRANCH   3  10
ATOM      8  O   UNL     1      33.628 -11.608 -23.391  0.00  0.00    -0.273 OA
ATOM      9  N   UNL     1      31.605 -10.736 -22.635  0.00  0.00    -0.299 N 
ATOM     10  C   UNL     1      32.541 -11.737 -22.833  0.00  0.00    +0.241 C 
ATOM     11  H   UNL     1      30.767 -10.963 -22.172  0.00  0.00    +0.150 HD
BRANCH   9  12
ATOM     12  C   UNL     1      31.801  -9.375 -23.077  0.00  0.00    +0.116 C 
BRANCH  12  13
ATOM     13  C   UNL     1      31.712  -8.397 -21.942  0.00  0.00    -0.003 C 
ATOM     14  C   UNL     1      31.817  -7.028 -22.190  0.00  0.00    -0.007 C 
ATOM     15  C   UNL     1      31.524  -8.856 -20.638  0.00  0.00    -0.003 C 
ATOM     16  C   UNL     1      31.734  -6.119 -21.135  0.00  0.00    -0.022 C 
ATOM     17  C   UNL     1      31.441  -7.948 -19.583  0.00  0.00    -0.001 C 
ATOM     18  C   UNL     1      31.546  -6.579 -19.831  0.00  0.00    -0.004 C 
ATOM     19  C   UNL     1      31.846  -4.656 -21.400  0.00  0.00    +0.031 C 
ENDBRANCH  12  13
ENDBRANCH   9  12
ENDBRANCH   3  10
BRANCH   7  20
ATOM     20  C   UNL     1      34.356 -15.724 -23.796  0.00  0.00    +0.018 C 
BRANCH  20  21
ATOM     21  N   UNL     1      34.946 -15.640 -25.125  0.00  0.00    +0.388 N 
ATOM     22  H   UNL     1      35.951 -15.801 -25.063  0.00  0.00    -0.089 HD
ATOM     23  H   UNL     1      34.772 -14.715 -25.516  0.00  0.00    -0.089 HD
ATOM     24  H   UNL     1      34.526 -16.348 -25.728  0.00  0.00    -0.089 HD
ENDBRANCH  20  21
BRANCH  20  25
ATOM     25  C   UNL     1      33.717 -17.092 -23.557  0.00  0.00    +0.013 C 
BRANCH  25  26
ATOM     26  C   UNL     1      34.447 -17.901 -22.509  0.00  0.00    -0.024 C 
ATOM     27  C   UNL     1      33.830 -19.010 -21.931  0.00  0.00    -0.004 C 
ATOM     28  C   UNL     1      35.736 -17.537 -22.119  0.00  0.00    -0.004 C 
ATOM     29  C   UNL     1      34.503 -19.757 -20.963  0.00  0.00    -0.000 C 
ATOM     30  C   UNL     1      36.409 -18.284 -21.152  0.00  0.00    -0.000 C 
ATOM     31  C   UNL     1      35.792 -19.393 -20.574  0.00  0.00    -0.000 C 
ENDBRANCH  25  26
ENDBRANCH  20  25
ENDBRANCH   7  20
TORSDOF 7
ENDMDL
MODEL 5
REMARK VINA RESULT:     -10.6      1.789      2.606
REMARK  Name = 25021183
REMARK  7 active torsions:
REMARK  status: ('A' for Active; 'I' for Inactive)
REMARK    1  A    between atoms: C_3  and  C_10
REMARK    2  A    between atoms: C_7  and  C_20
REMARK    3  A    between atoms: N_9  and  C_12
REMARK    4  A    between atoms: C_12  and  C_13
REMARK    5  A    between atoms: C_20  and  N_21
REMARK    6  A    between atoms: C_20  and  C_25
REMARK    7  A    between atoms: C_25  and  C_26
REMARK                            x       y       z     vdW  Elec       q    Type
REMARK                         _______ _______ _______ _____ _____    ______ ____
ROOT
ATOM      1  O   UNL     1      34.034 -23.236 -16.431  0.00  0.00    -0.277 OA
ATOM      2  N   UNL     1      32.241 -23.044 -14.979  0.00  0.00    -0.275 N 
ATOM      3  C   UNL     1      31.222 -23.509 -15.910  0.00  0.00    +0.152 C 
ATOM      4  C   UNL     1      30.010 -23.813 -15.037  0.00  0.00    +0.031 C 
ATOM      5  C   UNL     1      30.166 -22.847 -13.865  0.00  0.00    +0.024 C 
ATOM      6  C   UNL     1      31.671 -22.789 -13.658  0.00  0.00    +0.094 C 
ATOM      7  C   UNL     1      33.589 -23.015 -15.304  0.00  0.00    +0.206 C 
ENDROOT
BRANCH   3  10
ATOM      8  O   UNL     1      29.919 -21.726 -16.815  0.00  0.00    -0.273 OA
ATOM      9  N   UNL     1      31.974 -22.226 -17.788  0.00  0.00    -0.299 N 
ATOM     10  C   UNL     1      30.952 -22.387 -16.868  0.00  0.00    +0.241 C 
ATOM     11  H   UNL     1      32.757 -22.820 -17.728  0.00  0.00    +0.150 HD
BRANCH   9  12
ATOM     12  C   UNL     1      31.946 -21.229 -18.833  0.00  0.00    +0.116 C 
BRANCH  12  13
ATOM     13  C   UNL     1      33.325 -20.860 -19.296  0.00  0.00    -0.003 C 
ATOM     14  C   UNL     1      33.490 -19.925 -20.318  0.00  0.00    -0.007 C 
ATOM     15  C   UNL     1      34.441 -21.452 -18.705  0.00  0.00    -0.003 C 
ATOM     16  C   UNL     1      34.772 -19.582 -20.749  0.00  0.00    -0.022 C 
ATOM     17  C   UNL     1      35.722 -21.110 -19.136  0.00  0.00    -0.001 C 
ATOM     18  C   UNL     1      35.889 -20.174 -20.158  0.00  0.00    -0.004 C 
ATOM     19  C   UNL     1      34.950 -18.582 -21.841  0.00  0.00    +0.031 C 
ENDBRANCH  12  13
ENDBRANCH   9  12
ENDBRANCH   3  10
BRANCH   7  20
ATOM     20  C   UNL     1      34.524 -22.676 -14.170  0.00  0.00    +0.018 C 
BRANCH  20  21
ATOM     21  N   UNL     1      35.744 -22.198 -14.807  0.00  0.00    +0.388 N 
ATOM     22  H   UNL     1      35.572 -22.045 -15.800  0.00  0.00    -0.089 HD
ATOM     23  H   UNL     1      36.481 -22.892 -14.692  0.00  0.00    -0.089 HD
ATOM     24  H   UNL     1      36.032 -21.321 -14.373  0.00  0.00    -0.089 HD
ENDBRANCH  20  21
BRANCH  20  25
ATOM     25  C   UNL     1      34.796 -23.899 -13.294  0.00  0.00    +0.013 C 
BRANCH  25  26
ATOM     26  C   UNL     1      36.183 -24.463 -13.496  0.00  0.00    -0.024 C 
ATOM     27  C   UNL     1      36.401 -25.452 -14.455  0.00  0.00    -0.004 C 
ATOM     28  C   UNL     1      37.245 -23.996 -12.722  0.00  0.00    -0.004 C 
ATOM     29  C   UNL     1      37.682 -25.972 -14.641  0.00  0.00    -0.000 C 
ATOM     30  C   UNL     1      38.526 -24.517 -12.908  0.00  0.00    -0.000 C 
ATOM     31  C   UNL     1      38.744 -25.505 -13.867  0.00  0.00    -0.000 C 
ENDBRANCH  25  26
ENDBRANCH  20  25
ENDBRANCH   7  20
TORSDOF 7
ENDMDL
MODEL 6
REMARK VINA RESULT:     -10.6      8.061     13.255
REMARK  Name = 25021183
REMARK  7 active torsions:
REMARK  status: ('A' for Active; 'I' for Inactive)
REMARK    1  A    between atoms: C_3  and  C_10
REMARK    2  A    between atoms: C_7  and  C_20
REMARK    3  A    between atoms: N_9  and  C_12
REMARK    4  A    between atoms: C_12  and  C_13
REMARK    5  A    between atoms: C_20  and  N_21
REMARK    6  A    between atoms: C_20  and  C_25
REMARK    7  A    between atoms: C_25  and  C_26
REMARK                            x       y       z     vdW  Elec       q    Type
REMARK                         _______ _______ _______ _____ _____    ______ ____
ROOT
ATOM      1  O   UNL     1      33.073 -10.148 -23.548  0.00  0.00    -0.277 OA
ATOM      2  N   UNL     1      32.370 -11.554 -21.848  0.00  0.00    -0.275 N 
ATOM      3  C   UNL     1      33.479 -12.494 -21.940  0.00  0.00    +0.152 C 
ATOM      4  C   UNL     1      33.406 -13.307 -20.652  0.00  0.00    +0.031 C 
ATOM      5  C   UNL     1      31.920 -13.286 -20.304  0.00  0.00    +0.024 C 
ATOM      6  C   UNL     1      31.477 -11.899 -20.745  0.00  0.00    +0.094 C 
ATOM      7  C   UNL     1      32.300 -10.406 -22.624  0.00  0.00    +0.206 C 
ENDROOT
BRANCH   3  10
ATOM      8  O   UNL     1      32.320 -13.113 -23.934  0.00  0.00    -0.273 OA
ATOM      9  N   UNL     1      34.137 -14.394 -23.242  0.00  0.00    -0.299 N 
ATOM     10  C   UNL     1      33.237 -13.346 -23.151  0.00  0.00    +0.241 C 
ATOM     11  H   UNL     1      34.832 -14.476 -22.550  0.00  0.00    +0.150 HD
BRANCH   9  12
ATOM     12  C   UNL     1      34.104 -15.373 -24.304  0.00  0.00    +0.116 C 
BRANCH  12  13
ATOM     13  C   UNL     1      34.240 -16.773 -23.783  0.00  0.00    -0.003 C 
ATOM     14  C   UNL     1      35.058 -17.033 -22.684  0.00  0.00    -0.007 C 
ATOM     15  C   UNL     1      33.547 -17.817 -24.398  0.00  0.00    -0.003 C 
ATOM     16  C   UNL     1      35.185 -18.335 -22.199  0.00  0.00    -0.022 C 
ATOM     17  C   UNL     1      33.674 -19.118 -23.913  0.00  0.00    -0.001 C 
ATOM     18  C   UNL     1      34.492 -19.378 -22.814  0.00  0.00    -0.004 C 
ATOM     19  C   UNL     1      36.060 -18.612 -21.024  0.00  0.00    +0.031 C 
ENDBRANCH  12  13
ENDBRANCH   9  12
ENDBRANCH   3  10
BRANCH   7  20
ATOM     20  C   UNL     1      31.181  -9.456 -22.278  0.00  0.00    +0.018 C 
BRANCH  20  21
ATOM     21  N   UNL     1      30.840  -8.793 -23.530  0.00  0.00    +0.388 N 
ATOM     22  H   UNL     1      31.132  -7.817 -23.489  0.00  0.00    -0.089 HD
ATOM     23  H   UNL     1      29.833  -8.842 -23.677  0.00  0.00    -0.089 HD
ATOM     24  H   UNL     1      31.319  -9.258 -24.302  0.00  0.00    -0.089 HD
ENDBRANCH  20  21
BRANCH  20  25
ATOM     25  C   UNL     1      31.622  -8.448 -21.218  0.00  0.00    +0.013 C 
BRANCH  25  26
ATOM     26  C   UNL     1      31.883  -7.074 -21.792  0.00  0.00    -0.024 C 
ATOM     27  C   UNL     1      30.889  -6.097 -21.740  0.00  0.00    -0.004 C 
ATOM     28  C   UNL     1      33.117  -6.784 -22.375  0.00  0.00    -0.004 C 
ATOM     29  C   UNL     1      31.130  -4.829 -22.269  0.00  0.00    -0.000 C 
ATOM     30  C   UNL     1      33.357  -5.517 -22.905  0.00  0.00    -0.000 C 
ATOM     31  C   UNL     1      32.363  -4.539 -22.852  0.00  0.00    -0.000 C 
ENDBRANCH  25  26
ENDBRANCH  20  25
ENDBRANCH   7  20
TORSDOF 7
ENDMDL
MODEL 7
REMARK VINA RESULT:     -10.4      2.567      8.729
REMARK  Name = 25021183
REMARK  7 active torsions:
REMARK  status: ('A' for Active; 'I' for Inactive)
REMARK    1  A    between atoms: C_3  and  C_10
REMARK    2  A    between atoms: C_7  and  C_20
REMARK    3  A    between atoms: N_9  and  C_12
REMARK    4  A    between atoms: C_12  and  C_13
REMARK    5  A    between atoms: C_20  and  N_21
REMARK    6  A    between atoms: C_20  and  C_25
REMARK    7  A    between atoms: C_25  and  C_26
REMARK                            x       y       z     vdW  Elec       q    Type
REMARK                         _______ _______ _______ _____ _____    ______ ____
ROOT
ATOM      1  O   UNL     1      33.220 -19.348 -22.349  0.00  0.00    -0.277 OA
ATOM      2  N   UNL     1      34.784 -19.771 -20.696  0.00  0.00    -0.275 N 
ATOM      3  C   UNL     1      34.306 -21.103 -20.351  0.00  0.00    +0.152 C 
ATOM      4  C   UNL     1      35.432 -21.719 -19.528  0.00  0.00    +0.031 C 
ATOM      5  C   UNL     1      36.092 -20.509 -18.871  0.00  0.00    +0.024 C 
ATOM      6  C   UNL     1      35.985 -19.430 -19.937  0.00  0.00    +0.094 C 
ATOM      7  C   UNL     1      34.236 -19.028 -21.730  0.00  0.00    +0.206 C 
ENDROOT
BRANCH   3  10
ATOM      8  O   UNL     1      32.297 -19.977 -19.718  0.00  0.00    -0.273 OA
ATOM      9  N   UNL     1      32.900 -21.925 -18.594  0.00  0.00    -0.299 N 
ATOM     10  C   UNL     1      33.056 -20.927 -19.540  0.00  0.00    +0.241 C 
ATOM     11  H   UNL     1      33.578 -22.637 -18.548  0.00  0.00    +0.150 HD
BRANCH   9  12
ATOM     12  C   UNL     1      31.789 -21.972 -17.671  0.00  0.00    +0.116 C 
BRANCH  12  13
ATOM     13  C   UNL     1      32.162 -22.629 -16.374  0.00  0.00    -0.003 C 
ATOM     14  C   UNL     1      31.169 -22.989 -15.464  0.00  0.00    -0.007 C 
ATOM     15  C   UNL     1      33.503 -22.879 -16.079  0.00  0.00    -0.003 C 
ATOM     16  C   UNL     1      31.516 -23.600 -14.258  0.00  0.00    -0.022 C 
ATOM     17  C   UNL     1      33.849 -23.489 -14.874  0.00  0.00    -0.001 C 
ATOM     18  C   UNL     1      32.856 -23.851 -13.963  0.00  0.00    -0.004 C 
ATOM     19  C   UNL     1      30.454 -23.986 -13.284  0.00  0.00    +0.031 C 
ENDBRANCH  12  13
ENDBRANCH   9  12
ENDBRANCH   3  10
BRANCH   7  20
ATOM     20  C   UNL     1      34.963 -17.750 -22.068  0.00  0.00    +0.018 C 
BRANCH  20  21
ATOM     21  N   UNL     1      36.365 -18.128 -22.194  0.00  0.00    +0.388 N 
ATOM     22  H   UNL     1      36.882 -17.790 -21.383  0.00  0.00    -0.089 HD
ATOM     23  H   UNL     1      36.752 -17.716 -23.042  0.00  0.00    -0.089 HD
ATOM     24  H   UNL     1      36.439 -19.144 -22.244  0.00  0.00    -0.089 HD
ENDBRANCH  20  21
BRANCH  20  25
ATOM     25  C   UNL     1      34.766 -16.699 -20.977  0.00  0.00    +0.013 C 
BRANCH  25  26
ATOM     26  C   UNL     1      34.257 -15.383 -21.520  0.00  0.00    -0.024 C 
ATOM     27  C   UNL     1      33.760 -14.415 -20.648  0.00  0.00    -0.004 C 
ATOM     28  C   UNL     1      34.285 -15.138 -22.893  0.00  0.00    -0.004 C 
ATOM     29  C   UNL     1      33.290 -13.201 -21.150  0.00  0.00    -0.000 C 
ATOM     30  C   UNL     1      33.815 -13.924 -23.394  0.00  0.00    -0.000 C 
ATOM     31  C   UNL     1      33.317 -12.956 -22.522  0.00  0.00    -0.000 C 
ENDBRANCH  25  26
ENDBRANCH  20  25
ENDBRANCH   7  20
TORSDOF 7
ENDMDL
MODEL 8
REMARK VINA RESULT:     -10.3      2.467      5.796
REMARK  Name = 25021183
REMARK  7 active torsions:
REMARK  status: ('A' for Active; 'I' for Inactive)
REMARK    1  A    between atoms: C_3  and  C_10
REMARK    2  A    between atoms: C_7  and  C_20
REMARK    3  A    between atoms: N_9  and  C_12
REMARK    4  A    between atoms: C_12  and  C_13
REMARK    5  A    between atoms: C_20  and  N_21
REMARK    6  A    between atoms: C_20  and  C_25
REMARK    7  A    between atoms: C_25  and  C_26
REMARK                            x       y       z     vdW  Elec       q    Type
REMARK                         _______ _______ _______ _____ _____    ______ ____
ROOT
ATOM      1  O   UNL     1      33.717 -22.104 -14.334  0.00  0.00    -0.277 OA
ATOM      2  N   UNL     1      35.206 -23.382 -13.105  0.00  0.00    -0.275 N 
ATOM      3  C   UNL     1      36.366 -22.525 -13.306  0.00  0.00    +0.152 C 
ATOM      4  C   UNL     1      37.379 -22.993 -12.267  0.00  0.00    +0.031 C 
ATOM      5  C   UNL     1      37.036 -24.469 -12.079  0.00  0.00    +0.024 C 
ATOM      6  C   UNL     1      35.522 -24.497 -12.216  0.00  0.00    +0.094 C 
ATOM      7  C   UNL     1      33.946 -23.054 -13.584  0.00  0.00    +0.206 C 
ENDROOT
BRANCH   3  10
ATOM      8  O   UNL     1      37.594 -23.701 -14.982  0.00  0.00    -0.273 OA
ATOM      9  N   UNL     1      36.391 -21.803 -15.590  0.00  0.00    -0.299 N 
ATOM     10  C   UNL     1      36.854 -22.762 -14.705  0.00  0.00    +0.241 C 
ATOM     11  H   UNL     1      35.799 -21.095 -15.248  0.00  0.00    +0.150 HD
BRANCH   9  12
ATOM     12  C   UNL     1      36.736 -21.793 -16.993  0.00  0.00    +0.116 C 
BRANCH  12  13
ATOM     13  C   UNL     1      35.538 -21.554 -17.866  0.00  0.00    -0.003 C 
ATOM     14  C   UNL     1      35.644 -20.732 -18.987  0.00  0.00    -0.007 C 
ATOM     15  C   UNL     1      34.317 -22.155 -17.554  0.00  0.00    -0.003 C 
ATOM     16  C   UNL     1      34.531 -20.511 -19.798  0.00  0.00    -0.022 C 
ATOM     17  C   UNL     1      33.205 -21.933 -18.364  0.00  0.00    -0.001 C 
ATOM     18  C   UNL     1      33.310 -21.111 -19.487  0.00  0.00    -0.004 C 
ATOM     19  C   UNL     1      34.644 -19.632 -20.998  0.00  0.00    +0.031 C 
ENDBRANCH  12  13
ENDBRANCH   9  12
ENDBRANCH   3  10
BRANCH   7  20
ATOM     20  C   UNL     1      32.825 -23.959 -13.137  0.00  0.00    +0.018 C 
BRANCH  20  21
ATOM     21  N   UNL     1      32.640 -24.908 -14.227  0.00  0.00    +0.388 N 
ATOM     22  H   UNL     1      31.985 -25.634 -13.938  0.00  0.00    -0.089 HD
ATOM     23  H   UNL     1      33.536 -25.333 -14.464  0.00  0.00    -0.089 HD
ATOM     24  H   UNL     1      32.269 -24.420 -15.042  0.00  0.00    -0.089 HD
ENDBRANCH  20  21
BRANCH  20  25
ATOM     25  C   UNL     1      31.548 -23.164 -12.870  0.00  0.00    +0.013 C 
BRANCH  25  26
ATOM     26  C   UNL     1      30.465 -23.441 -13.887  0.00  0.00    -0.024 C 
ATOM     27  C   UNL     1      29.627 -24.544 -13.730  0.00  0.00    -0.004 C 
ATOM     28  C   UNL     1      30.305 -22.593 -14.983  0.00  0.00    -0.004 C 
ATOM     29  C   UNL     1      28.627 -24.800 -14.668  0.00  0.00    -0.000 C 
ATOM     30  C   UNL     1      29.305 -22.849 -15.922  0.00  0.00    -0.000 C 
ATOM     31  C   UNL     1      28.467 -23.953 -15.765  0.00  0.00    -0.000 C 
ENDBRANCH  25  26
ENDBRANCH  20  25
ENDBRANCH   7  20
TORSDOF 7
ENDMDL
MODEL 9
REMARK VINA RESULT:     -10.2      1.891      7.769
REMARK  Name = 25021183
REMARK  7 active torsions:
REMARK  status: ('A' for Active; 'I' for Inactive)
REMARK    1  A    between atoms: C_3  and  C_10
REMARK    2  A    between atoms: C_7  and  C_20
REMARK    3  A    between atoms: N_9  and  C_12
REMARK    4  A    between atoms: C_12  and  C_13
REMARK    5  A    between atoms: C_20  and  N_21
REMARK    6  A    between atoms: C_20  and  C_25
REMARK    7  A    between atoms: C_25  and  C_26
REMARK                            x       y       z     vdW  Elec       q    Type
REMARK                         _______ _______ _______ _____ _____    ______ ____
ROOT
ATOM      1  O   UNL     1      35.138 -22.198 -16.555  0.00  0.00    -0.277 OA
ATOM      2  N   UNL     1      32.838 -22.394 -16.380  0.00  0.00    -0.275 N 
ATOM      3  C   UNL     1      32.790 -22.501 -14.928  0.00  0.00    +0.152 C 
ATOM      4  C   UNL     1      31.327 -22.267 -14.570  0.00  0.00    +0.031 C 
ATOM      5  C   UNL     1      30.577 -22.767 -15.803  0.00  0.00    +0.024 C 
ATOM      6  C   UNL     1      31.494 -22.378 -16.952  0.00  0.00    +0.094 C 
ATOM      7  C   UNL     1      34.020 -22.177 -17.072  0.00  0.00    +0.206 C 
ENDROOT
BRANCH   3  10
ATOM      8  O   UNL     1      32.559 -24.621 -13.856  0.00  0.00    -0.273 OA
ATOM      9  N   UNL     1      34.468 -24.199 -15.120  0.00  0.00    -0.299 N 
ATOM     10  C   UNL     1      33.236 -23.888 -14.572  0.00  0.00    +0.241 C 
ATOM     11  H   UNL     1      34.916 -23.526 -15.680  0.00  0.00    +0.150 HD
BRANCH   9  12
ATOM     12  C   UNL     1      35.129 -25.467 -14.907  0.00  0.00    +0.116 C 
BRANCH  12  13
ATOM     13  C   UNL     1      36.363 -25.323 -14.065  0.00  0.00    -0.003 C 
ATOM     14  C   UNL     1      37.624 -25.461 -14.646  0.00  0.00    -0.007 C 
ATOM     15  C   UNL     1      36.250 -25.052 -12.701  0.00  0.00    -0.003 C 
ATOM     16  C   UNL     1      38.771 -25.327 -13.864  0.00  0.00    -0.022 C 
ATOM     17  C   UNL     1      37.397 -24.920 -11.919  0.00  0.00    -0.001 C 
ATOM     18  C   UNL     1      38.658 -25.056 -12.500  0.00  0.00    -0.004 C 
ATOM     19  C   UNL     1      40.120 -25.474 -14.485  0.00  0.00    +0.031 C 
ENDBRANCH  12  13
ENDBRANCH   9  12
ENDBRANCH   3  10
BRANCH   7  20
ATOM     20  C   UNL     1      33.869 -21.915 -18.549  0.00  0.00    +0.018 C 
BRANCH  20  21
ATOM     21  N   UNL     1      33.387 -23.168 -19.115  0.00  0.00    +0.388 N 
ATOM     22  H   UNL     1      34.070 -23.526 -19.782  0.00  0.00    -0.089 HD
ATOM     23  H   UNL     1      32.499 -23.007 -19.589  0.00  0.00    -0.089 HD
ATOM     24  H   UNL     1      33.254 -23.848 -18.366  0.00  0.00    -0.089 HD
ENDBRANCH  20  21
BRANCH  20  25
ATOM     25  C   UNL     1      35.200 -21.499 -19.174  0.00  0.00    +0.013 C 
BRANCH  25  26
ATOM     26  C   UNL     1      35.072 -20.285 -20.066  0.00  0.00    -0.024 C 
ATOM     27  C   UNL     1      33.844 -19.975 -20.649  0.00  0.00    -0.004 C 
ATOM     28  C   UNL     1      36.182 -19.475 -20.305  0.00  0.00    -0.004 C 
ATOM     29  C   UNL     1      33.725 -18.855 -21.472  0.00  0.00    -0.000 C 
ATOM     30  C   UNL     1      36.064 -18.355 -21.128  0.00  0.00    -0.000 C 
ATOM     31  C   UNL     1      34.835 -18.045 -21.712  0.00  0.00    -0.000 C 
ENDBRANCH  25  26
ENDBRANCH  20  25
ENDBRANCH   7  20
TORSDOF 7
ENDMDL
