MODEL 1
REMARK VINA RESULT:     -13.8      0.000      0.000
REMARK  Name = 54726191
REMARK  4 active torsions:
REMARK  status: ('A' for Active; 'I' for Inactive)
REMARK    1  A    between atoms: C_15  and  O_31
REMARK    2  A    between atoms: C_16  and  C_20
REMARK    3  A    between atoms: N_19  and  C_22
REMARK    4  A    between atoms: C_22  and  C_25
REMARK                            x       y       z     vdW  Elec       q    Type
REMARK                         _______ _______ _______ _____ _____    ______ ____
ROOT
ATOM      1  O   UNL     1      36.768 -22.561 -15.280  0.00  0.00    -0.336 OA
ATOM      2  O   UNL     1      32.805 -23.392 -17.661  0.00  0.00    -0.268 OA
ATOM      3  O   UNL     1      32.932 -19.723 -21.188  0.00  0.00    -0.283 OA
ATOM      4  N   UNL     1      34.621 -22.834 -16.338  0.00  0.00    -0.253 N 
ATOM      5  N   UNL     1      35.506 -21.107 -18.380  0.00  0.00    -0.275 N 
ATOM      6  C   UNL     1      35.772 -21.954 -16.112  0.00  0.00    +0.215 C 
ATOM      7  C   UNL     1      34.117 -23.621 -15.198  0.00  0.00    +0.080 C 
ATOM      8  C   UNL     1      35.260 -24.142 -14.326  0.00  0.00    +0.052 C 
ATOM      9  C   UNL     1      36.467 -21.644 -17.428  0.00  0.00    +0.147 C 
ATOM     10  C   UNL     1      36.262 -23.040 -14.042  0.00  0.00    +0.146 C 
ATOM     11  C   UNL     1      33.806 -22.702 -17.471  0.00  0.00    +0.267 C 
ATOM     12  C   UNL     1      34.213 -21.633 -18.459  0.00  0.00    +0.143 C 
ATOM     13  C   UNL     1      33.111 -22.800 -14.381  0.00  0.00    +0.022 C 
ATOM     14  C   UNL     1      35.892 -20.134 -19.291  0.00  0.00    +0.074 C 
ATOM     15  C   UNL     1      33.311 -21.211 -19.372  0.00  0.00    +0.191 C 
ATOM     16  C   UNL     1      35.105 -19.624 -20.247  0.00  0.00    +0.110 C 
ATOM     17  C   UNL     1      33.717 -20.145 -20.344  0.00  0.00    +0.236 C 
ENDROOT
BRANCH  16  20
ATOM     18  O   UNL     1      36.848 -18.304 -21.104  0.00  0.00    -0.270 OA
ATOM     19  N   UNL     1      34.697 -18.031 -21.962  0.00  0.00    -0.297 N 
ATOM     20  C   UNL     1      35.652 -18.597 -21.132  0.00  0.00    +0.251 C 
ATOM     21  H   UNL     1      33.769 -18.352 -21.890  0.00  0.00    +0.150 HD
BRANCH  19  22
ATOM     22  C   UNL     1      34.991 -16.994 -22.924  0.00  0.00    +0.119 C 
BRANCH  22  25
ATOM     23  F   UNL     1      33.985 -15.188 -24.856  0.00  0.00    -0.204 F 
ATOM     24  F   UNL     1      32.554 -12.104 -21.565  0.00  0.00    -0.204 F 
ATOM     25  C   UNL     1      34.342 -15.690 -22.563  0.00  0.00    +0.025 C 
ATOM     26  C   UNL     1      33.866 -14.845 -23.566  0.00  0.00    +0.140 C 
ATOM     27  C   UNL     1      34.212 -15.325 -21.223  0.00  0.00    +0.002 C 
ATOM     28  C   UNL     1      33.262 -13.633 -23.228  0.00  0.00    +0.059 C 
ATOM     29  C   UNL     1      33.608 -14.113 -20.886  0.00  0.00    +0.030 C 
ATOM     30  C   UNL     1      33.134 -13.267 -21.888  0.00  0.00    +0.142 C 
ENDBRANCH  22  25
ENDBRANCH  19  22
ENDBRANCH  16  20
BRANCH  15  31
ATOM     31  O   UNL     1      32.022 -21.686 -19.462  0.00  0.00    -0.502 OA
ATOM     32  H   UNL     1      31.867 -22.583 -19.682  0.00  0.00    +0.292 HD
ENDBRANCH  15  31
TORSDOF 4
ENDMDL
MODEL 2
REMARK VINA RESULT:     -12.2      4.365      9.850
REMARK  Name = 54726191
REMARK  4 active torsions:
REMARK  status: ('A' for Active; 'I' for Inactive)
REMARK    1  A    between atoms: C_15  and  O_31
REMARK    2  A    between atoms: C_16  and  C_20
REMARK    3  A    between atoms: N_19  and  C_22
REMARK    4  A    between atoms: C_22  and  C_25
REMARK                            x       y       z     vdW  Elec       q    Type
REMARK                         _______ _______ _______ _____ _____    ______ ____
ROOT
ATOM      1  O   UNL     1      31.529 -10.753 -19.771  0.00  0.00    -0.336 OA
ATOM      2  O   UNL     1      31.805 -11.919 -24.313  0.00  0.00    -0.268 OA
ATOM      3  O   UNL     1      34.654 -16.133 -24.124  0.00  0.00    -0.283 OA
ATOM      4  N   UNL     1      31.875 -11.206 -22.112  0.00  0.00    -0.253 N 
ATOM      5  N   UNL     1      32.874 -13.737 -21.383  0.00  0.00    -0.275 N 
ATOM      6  C   UNL     1      32.320 -11.456 -20.736  0.00  0.00    +0.215 C 
ATOM      7  C   UNL     1      31.485  -9.832 -22.475  0.00  0.00    +0.080 C 
ATOM      8  C   UNL     1      30.728  -9.144 -21.338  0.00  0.00    +0.052 C 
ATOM      9  C   UNL     1      32.177 -12.929 -20.393  0.00  0.00    +0.147 C 
ATOM     10  C   UNL     1      31.439  -9.355 -20.016  0.00  0.00    +0.146 C 
ATOM     11  C   UNL     1      32.121 -12.125 -23.141  0.00  0.00    +0.267 C 
ATOM     12  C   UNL     1      32.827 -13.399 -22.738  0.00  0.00    +0.143 C 
ATOM     13  C   UNL     1      32.713  -9.021 -22.907  0.00  0.00    +0.022 C 
ATOM     14  C   UNL     1      33.511 -14.911 -21.005  0.00  0.00    +0.074 C 
ATOM     15  C   UNL     1      33.404 -14.157 -23.697  0.00  0.00    +0.191 C 
ATOM     16  C   UNL     1      34.121 -15.756 -21.845  0.00  0.00    +0.110 C 
ATOM     17  C   UNL     1      34.110 -15.415 -23.291  0.00  0.00    +0.236 C 
ENDROOT
BRANCH  16  20
ATOM     18  O   UNL     1      35.369 -16.919 -20.231  0.00  0.00    -0.270 OA
ATOM     19  N   UNL     1      34.580 -18.074 -22.096  0.00  0.00    -0.297 N 
ATOM     20  C   UNL     1      34.755 -16.955 -21.298  0.00  0.00    +0.251 C 
ATOM     21  H   UNL     1      34.066 -17.975 -22.930  0.00  0.00    +0.150 HD
BRANCH  19  22
ATOM     22  C   UNL     1      35.113 -19.377 -21.770  0.00  0.00    +0.119 C 
BRANCH  22  25
ATOM     23  F   UNL     1      36.272 -21.037 -19.793  0.00  0.00    -0.204 F 
ATOM     24  F   UNL     1      32.090 -21.948 -17.776  0.00  0.00    -0.204 F 
ATOM     25  C   UNL     1      34.308 -20.063 -20.705  0.00  0.00    +0.025 C 
ATOM     26  C   UNL     1      34.943 -20.869 -19.759  0.00  0.00    +0.140 C 
ATOM     27  C   UNL     1      32.924 -19.893 -20.660  0.00  0.00    +0.002 C 
ATOM     28  C   UNL     1      34.193 -21.505 -18.770  0.00  0.00    +0.059 C 
ATOM     29  C   UNL     1      32.175 -20.530 -19.671  0.00  0.00    +0.030 C 
ATOM     30  C   UNL     1      32.809 -21.337 -18.726  0.00  0.00    +0.142 C 
ENDBRANCH  22  25
ENDBRANCH  19  22
ENDBRANCH  16  20
BRANCH  15  31
ATOM     31  O   UNL     1      33.401 -13.841 -25.037  0.00  0.00    -0.502 OA
ATOM     32  H   UNL     1      34.001 -13.203 -25.370  0.00  0.00    +0.292 HD
ENDBRANCH  15  31
TORSDOF 4
ENDMDL
MODEL 3
REMARK VINA RESULT:     -12.1      3.184      4.736
REMARK  Name = 54726191
REMARK  4 active torsions:
REMARK  status: ('A' for Active; 'I' for Inactive)
REMARK    1  A    between atoms: C_15  and  O_31
REMARK    2  A    between atoms: C_16  and  C_20
REMARK    3  A    between atoms: N_19  and  C_22
REMARK    4  A    between atoms: C_22  and  C_25
REMARK                            x       y       z     vdW  Elec       q    Type
REMARK                         _______ _______ _______ _____ _____    ______ ____
ROOT
ATOM      1  O   UNL     1      37.572 -24.129 -13.359  0.00  0.00    -0.336 OA
ATOM      2  O   UNL     1      32.970 -24.113 -12.417  0.00  0.00    -0.268 OA
ATOM      3  O   UNL     1      31.039 -22.236 -16.737  0.00  0.00    -0.283 OA
ATOM      4  N   UNL     1      35.245 -23.890 -12.783  0.00  0.00    -0.253 N 
ATOM      5  N   UNL     1      34.705 -23.458 -15.514  0.00  0.00    -0.275 N 
ATOM      6  C   UNL     1      36.326 -23.508 -13.698  0.00  0.00    +0.215 C 
ATOM      7  C   UNL     1      35.553 -23.976 -11.344  0.00  0.00    +0.080 C 
ATOM      8  C   UNL     1      36.942 -24.566 -11.101  0.00  0.00    +0.052 C 
ATOM      9  C   UNL     1      36.009 -23.965 -15.112  0.00  0.00    +0.147 C 
ATOM     10  C   UNL     1      37.967 -23.917 -12.010  0.00  0.00    +0.146 C 
ATOM     11  C   UNL     1      33.900 -23.848 -13.177  0.00  0.00    +0.267 C 
ATOM     12  C   UNL     1      33.642 -23.432 -14.607  0.00  0.00    +0.143 C 
ATOM     13  C   UNL     1      35.398 -22.602 -10.679  0.00  0.00    +0.022 C 
ATOM     14  C   UNL     1      34.474 -23.088 -16.832  0.00  0.00    +0.074 C 
ATOM     15  C   UNL     1      32.398 -23.032 -14.956  0.00  0.00    +0.191 C 
ATOM     16  C   UNL     1      33.296 -22.674 -17.315  0.00  0.00    +0.110 C 
ATOM     17  C   UNL     1      32.149 -22.613 -16.373  0.00  0.00    +0.236 C 
ENDROOT
BRANCH  16  20
ATOM     18  O   UNL     1      33.404 -23.148 -19.614  0.00  0.00    -0.270 OA
ATOM     19  N   UNL     1      32.886 -20.979 -18.929  0.00  0.00    -0.297 N 
ATOM     20  C   UNL     1      33.206 -22.313 -18.729  0.00  0.00    +0.251 C 
ATOM     21  H   UNL     1      32.751 -20.409 -18.138  0.00  0.00    +0.150 HD
BRANCH  19  22
ATOM     22  C   UNL     1      32.740 -20.383 -20.237  0.00  0.00    +0.119 C 
BRANCH  22  25
ATOM     23  F   UNL     1      32.938 -18.962 -22.677  0.00  0.00    -0.204 F 
ATOM     24  F   UNL     1      37.493 -17.904 -21.959  0.00  0.00    -0.204 F 
ATOM     25  C   UNL     1      34.007 -19.721 -20.698  0.00  0.00    +0.025 C 
ATOM     26  C   UNL     1      34.036 -19.036 -21.913  0.00  0.00    +0.140 C 
ATOM     27  C   UNL     1      35.155 -19.792 -19.909  0.00  0.00    +0.002 C 
ATOM     28  C   UNL     1      35.214 -18.422 -22.339  0.00  0.00    +0.059 C 
ATOM     29  C   UNL     1      36.333 -19.178 -20.335  0.00  0.00    +0.030 C 
ATOM     30  C   UNL     1      36.363 -18.493 -21.550  0.00  0.00    +0.142 C 
ENDBRANCH  22  25
ENDBRANCH  19  22
ENDBRANCH  16  20
BRANCH  15  31
ATOM     31  O   UNL     1      31.334 -22.967 -14.084  0.00  0.00    -0.502 OA
ATOM     32  H   UNL     1      31.400 -22.458 -13.301  0.00  0.00    +0.292 HD
ENDBRANCH  15  31
TORSDOF 4
ENDMDL
MODEL 4
REMARK VINA RESULT:     -11.9      3.924      9.461
REMARK  Name = 54726191
REMARK  4 active torsions:
REMARK  status: ('A' for Active; 'I' for Inactive)
REMARK    1  A    between atoms: C_15  and  O_31
REMARK    2  A    between atoms: C_16  and  C_20
REMARK    3  A    between atoms: N_19  and  C_22
REMARK    4  A    between atoms: C_22  and  C_25
REMARK                            x       y       z     vdW  Elec       q    Type
REMARK                         _______ _______ _______ _____ _____    ______ ____
ROOT
ATOM      1  O   UNL     1      33.556 -12.332 -22.491  0.00  0.00    -0.336 OA
ATOM      2  O   UNL     1      32.346 -15.916 -25.276  0.00  0.00    -0.268 OA
ATOM      3  O   UNL     1      34.950 -19.764 -23.195  0.00  0.00    -0.283 OA
ATOM      4  N   UNL     1      33.132 -14.107 -24.063  0.00  0.00    -0.253 N 
ATOM      5  N   UNL     1      34.213 -15.909 -22.186  0.00  0.00    -0.275 N 
ATOM      6  C   UNL     1      33.977 -13.615 -22.970  0.00  0.00    +0.215 C 
ATOM      7  C   UNL     1      32.699 -13.145 -25.092  0.00  0.00    +0.080 C 
ATOM      8  C   UNL     1      32.365 -11.783 -24.481  0.00  0.00    +0.052 C 
ATOM      9  C   UNL     1      33.894 -14.550 -21.774  0.00  0.00    +0.147 C 
ATOM     10  C   UNL     1      33.447 -11.350 -23.512  0.00  0.00    +0.146 C 
ATOM     11  C   UNL     1      33.007 -15.477 -24.335  0.00  0.00    +0.267 C 
ATOM     12  C   UNL     1      33.756 -16.408 -23.408  0.00  0.00    +0.143 C 
ATOM     13  C   UNL     1      33.758 -13.025 -26.194  0.00  0.00    +0.022 C 
ATOM     14  C   UNL     1      34.892 -16.760 -21.325  0.00  0.00    +0.074 C 
ATOM     15  C   UNL     1      33.972 -17.683 -23.801  0.00  0.00    +0.191 C 
ATOM     16  C   UNL     1      35.175 -18.042 -21.581  0.00  0.00    +0.110 C 
ATOM     17  C   UNL     1      34.722 -18.599 -22.882  0.00  0.00    +0.236 C 
ENDROOT
BRANCH  16  20
ATOM     18  O   UNL     1      36.970 -18.410 -20.112  0.00  0.00    -0.270 OA
ATOM     19  N   UNL     1      35.266 -19.998 -20.234  0.00  0.00    -0.297 N 
ATOM     20  C   UNL     1      35.903 -18.815 -20.575  0.00  0.00    +0.251 C 
ATOM     21  H   UNL     1      34.413 -20.212 -20.676  0.00  0.00    +0.150 HD
BRANCH  19  22
ATOM     22  C   UNL     1      35.789 -20.933 -19.264  0.00  0.00    +0.119 C 
BRANCH  22  25
ATOM     23  F   UNL     1      36.282 -22.096 -16.732  0.00  0.00    -0.204 F 
ATOM     24  F   UNL     1      31.717 -23.151 -16.070  0.00  0.00    -0.204 F 
ATOM     25  C   UNL     1      34.705 -21.524 -18.411  0.00  0.00    +0.025 C 
ATOM     26  C   UNL     1      35.017 -22.083 -17.171  0.00  0.00    +0.140 C 
ATOM     27  C   UNL     1      33.384 -21.514 -18.860  0.00  0.00    +0.002 C 
ATOM     28  C   UNL     1      34.007 -22.632 -16.380  0.00  0.00    +0.059 C 
ATOM     29  C   UNL     1      32.375 -22.064 -18.068  0.00  0.00    +0.030 C 
ATOM     30  C   UNL     1      32.686 -22.623 -16.829  0.00  0.00    +0.142 C 
ENDBRANCH  22  25
ENDBRANCH  19  22
ENDBRANCH  16  20
BRANCH  15  31
ATOM     31  O   UNL     1      33.560 -18.201 -25.008  0.00  0.00    -0.502 OA
ATOM     32  H   UNL     1      32.686 -18.524 -25.105  0.00  0.00    +0.292 HD
ENDBRANCH  15  31
TORSDOF 4
ENDMDL
MODEL 5
REMARK VINA RESULT:     -11.8      5.207      8.790
REMARK  Name = 54726191
REMARK  4 active torsions:
REMARK  status: ('A' for Active; 'I' for Inactive)
REMARK    1  A    between atoms: C_15  and  O_31
REMARK    2  A    between atoms: C_16  and  C_20
REMARK    3  A    between atoms: N_19  and  C_22
REMARK    4  A    between atoms: C_22  and  C_25
REMARK                            x       y       z     vdW  Elec       q    Type
REMARK                         _______ _______ _______ _____ _____    ______ ____
ROOT
ATOM      1  O   UNL     1      35.002 -17.063 -20.498  0.00  0.00    -0.336 OA
ATOM      2  O   UNL     1      34.566 -16.012 -25.056  0.00  0.00    -0.268 OA
ATOM      3  O   UNL     1      31.671 -11.829 -24.878  0.00  0.00    -0.283 OA
ATOM      4  N   UNL     1      34.575 -16.672 -22.837  0.00  0.00    -0.253 N 
ATOM      5  N   UNL     1      33.568 -14.136 -22.138  0.00  0.00    -0.275 N 
ATOM      6  C   UNL     1      34.171 -16.394 -21.454  0.00  0.00    +0.215 C 
ATOM      7  C   UNL     1      34.971 -18.050 -23.179  0.00  0.00    +0.080 C 
ATOM      8  C   UNL     1      35.772 -18.700 -22.050  0.00  0.00    +0.052 C 
ATOM      9  C   UNL     1      34.307 -14.910 -21.152  0.00  0.00    +0.147 C 
ATOM     10  C   UNL     1      35.102 -18.465 -20.711  0.00  0.00    +0.146 C 
ATOM     11  C   UNL     1      34.285 -15.782 -23.880  0.00  0.00    +0.267 C 
ATOM     12  C   UNL     1      33.576 -14.507 -23.485  0.00  0.00    +0.143 C 
ATOM     13  C   UNL     1      33.740 -18.886 -23.552  0.00  0.00    +0.022 C 
ATOM     14  C   UNL     1      32.929 -12.960 -21.769  0.00  0.00    +0.074 C 
ATOM     15  C   UNL     1      32.959 -13.780 -24.444  0.00  0.00    +0.191 C 
ATOM     16  C   UNL     1      32.281 -12.144 -22.609  0.00  0.00    +0.110 C 
ATOM     17  C   UNL     1      32.250 -12.521 -24.046  0.00  0.00    +0.236 C 
ENDROOT
BRANCH  16  20
ATOM     18  O   UNL     1      31.092 -10.950 -20.972  0.00  0.00    -0.270 OA
ATOM     19  N   UNL     1      31.758  -9.847 -22.916  0.00  0.00    -0.297 N 
ATOM     20  C   UNL     1      31.650 -10.940 -22.071  0.00  0.00    +0.251 C 
ATOM     21  H   UNL     1      32.230  -9.965 -23.772  0.00  0.00    +0.150 HD
BRANCH  19  22
ATOM     22  C   UNL     1      31.214  -8.544 -22.607  0.00  0.00    +0.119 C 
BRANCH  22  25
ATOM     23  F   UNL     1      30.686  -7.158 -25.016  0.00  0.00    -0.204 F 
ATOM     24  F   UNL     1      34.485  -4.381 -24.522  0.00  0.00    -0.204 F 
ATOM     25  C   UNL     1      32.085  -7.434 -23.119  0.00  0.00    +0.025 C 
ATOM     26  C   UNL     1      31.767  -6.791 -24.316  0.00  0.00    +0.140 C 
ATOM     27  C   UNL     1      33.212  -7.045 -22.396  0.00  0.00    +0.002 C 
ATOM     28  C   UNL     1      32.578  -5.760 -24.790  0.00  0.00    +0.059 C 
ATOM     29  C   UNL     1      34.023  -6.013 -22.870  0.00  0.00    +0.030 C 
ATOM     30  C   UNL     1      33.707  -5.371 -24.067  0.00  0.00    +0.142 C 
ENDBRANCH  22  25
ENDBRANCH  19  22
ENDBRANCH  16  20
BRANCH  15  31
ATOM     31  O   UNL     1      32.923 -14.128 -25.775  0.00  0.00    -0.502 OA
ATOM     32  H   UNL     1      32.315 -14.775 -26.074  0.00  0.00    +0.292 HD
ENDBRANCH  15  31
TORSDOF 4
ENDMDL
MODEL 6
REMARK VINA RESULT:     -11.6      6.396     12.111
REMARK  Name = 54726191
REMARK  4 active torsions:
REMARK  status: ('A' for Active; 'I' for Inactive)
REMARK    1  A    between atoms: C_15  and  O_31
REMARK    2  A    between atoms: C_16  and  C_20
REMARK    3  A    between atoms: N_19  and  C_22
REMARK    4  A    between atoms: C_22  and  C_25
REMARK                            x       y       z     vdW  Elec       q    Type
REMARK                         _______ _______ _______ _____ _____    ______ ____
ROOT
ATOM      1  O   UNL     1      33.180  -5.920 -23.802  0.00  0.00    -0.336 OA
ATOM      2  O   UNL     1      31.448  -8.265 -20.118  0.00  0.00    -0.268 OA
ATOM      3  O   UNL     1      31.363 -13.039 -21.882  0.00  0.00    -0.283 OA
ATOM      4  N   UNL     1      32.063  -7.077 -22.007  0.00  0.00    -0.253 N 
ATOM      5  N   UNL     1      32.832  -9.504 -23.214  0.00  0.00    -0.275 N 
ATOM      6  C   UNL     1      32.472  -7.105 -23.416  0.00  0.00    +0.215 C 
ATOM      7  C   UNL     1      31.547  -5.810 -21.460  0.00  0.00    +0.080 C 
ATOM      8  C   UNL     1      32.314  -4.607 -22.010  0.00  0.00    +0.052 C 
ATOM      9  C   UNL     1      33.430  -8.257 -23.667  0.00  0.00    +0.147 C 
ATOM     10  C   UNL     1      32.479  -4.717 -23.513  0.00  0.00    +0.146 C 
ATOM     11  C   UNL     1      31.840  -8.257 -21.285  0.00  0.00    +0.267 C 
ATOM     12  C   UNL     1      32.090  -9.548 -22.030  0.00  0.00    +0.143 C 
ATOM     13  C   UNL     1      30.040  -5.687 -21.721  0.00  0.00    +0.022 C 
ATOM     14  C   UNL     1      33.075 -10.687 -23.898  0.00  0.00    +0.074 C 
ATOM     15  C   UNL     1      31.573 -10.696 -21.538  0.00  0.00    +0.191 C 
ATOM     16  C   UNL     1      32.628 -11.893 -23.527  0.00  0.00    +0.110 C 
ATOM     17  C   UNL     1      31.816 -11.972 -22.285  0.00  0.00    +0.236 C 
ENDROOT
BRANCH  16  20
ATOM     18  O   UNL     1      32.700 -13.070 -25.558  0.00  0.00    -0.270 OA
ATOM     19  N   UNL     1      33.579 -14.067 -23.642  0.00  0.00    -0.297 N 
ATOM     20  C   UNL     1      32.962 -13.051 -24.355  0.00  0.00    +0.251 C 
ATOM     21  H   UNL     1      33.735 -13.932 -22.680  0.00  0.00    +0.150 HD
BRANCH  19  22
ATOM     22  C   UNL     1      34.004 -15.313 -24.238  0.00  0.00    +0.119 C 
BRANCH  22  25
ATOM     23  F   UNL     1      33.562 -18.057 -24.766  0.00  0.00    -0.204 F 
ATOM     24  F   UNL     1      34.784 -19.336 -20.378  0.00  0.00    -0.204 F 
ATOM     25  C   UNL     1      34.212 -16.386 -23.210  0.00  0.00    +0.025 C 
ATOM     26  C   UNL     1      33.975 -17.722 -23.537  0.00  0.00    +0.140 C 
ATOM     27  C   UNL     1      34.642 -16.047 -21.927  0.00  0.00    +0.002 C 
ATOM     28  C   UNL     1      34.168 -18.719 -22.579  0.00  0.00    +0.059 C 
ATOM     29  C   UNL     1      34.836 -17.044 -20.971  0.00  0.00    +0.030 C 
ATOM     30  C   UNL     1      34.598 -18.380 -21.296  0.00  0.00    +0.142 C 
ENDBRANCH  22  25
ENDBRANCH  19  22
ENDBRANCH  16  20
BRANCH  15  31
ATOM     31  O   UNL     1      30.815 -10.773 -20.391  0.00  0.00    -0.502 OA
ATOM     32  H   UNL     1      30.535  -9.990 -19.960  0.00  0.00    +0.292 HD
ENDBRANCH  15  31
TORSDOF 4
ENDMDL
MODEL 7
REMARK VINA RESULT:     -11.3      3.976      9.345
REMARK  Name = 54726191
REMARK  4 active torsions:
REMARK  status: ('A' for Active; 'I' for Inactive)
REMARK    1  A    between atoms: C_15  and  O_31
REMARK    2  A    between atoms: C_16  and  C_20
REMARK    3  A    between atoms: N_19  and  C_22
REMARK    4  A    between atoms: C_22  and  C_25
REMARK                            x       y       z     vdW  Elec       q    Type
REMARK                         _______ _______ _______ _____ _____    ______ ____
ROOT
ATOM      1  O   UNL     1      32.342 -12.132 -20.250  0.00  0.00    -0.336 OA
ATOM      2  O   UNL     1      32.573 -14.111 -24.504  0.00  0.00    -0.268 OA
ATOM      3  O   UNL     1      35.568 -18.129 -23.611  0.00  0.00    -0.283 OA
ATOM      4  N   UNL     1      32.660 -13.000 -22.474  0.00  0.00    -0.253 N 
ATOM      5  N   UNL     1      33.758 -15.321 -21.316  0.00  0.00    -0.275 N 
ATOM      6  C   UNL     1      33.139 -12.977 -21.088  0.00  0.00    +0.215 C 
ATOM      7  C   UNL     1      32.216 -11.729 -23.075  0.00  0.00    +0.080 C 
ATOM      8  C   UNL     1      31.458 -10.866 -22.066  0.00  0.00    +0.052 C 
ATOM      9  C   UNL     1      33.052 -14.365 -20.475  0.00  0.00    +0.147 C 
ATOM     10  C   UNL     1      32.200 -10.807 -20.745  0.00  0.00    +0.146 C 
ATOM     11  C   UNL     1      32.918 -14.086 -23.322  0.00  0.00    +0.267 C 
ATOM     12  C   UNL     1      33.674 -15.241 -22.708  0.00  0.00    +0.143 C 
ATOM     13  C   UNL     1      33.408 -10.976 -23.680  0.00  0.00    +0.022 C 
ATOM     14  C   UNL     1      34.441 -16.385 -20.743  0.00  0.00    +0.074 C 
ATOM     15  C   UNL     1      34.258 -16.146 -23.525  0.00  0.00    +0.191 C 
ATOM     16  C   UNL     1      35.064 -17.352 -21.428  0.00  0.00    +0.110 C 
ATOM     17  C   UNL     1      35.014 -17.285 -22.912  0.00  0.00    +0.236 C 
ENDROOT
BRANCH  16  20
ATOM     18  O   UNL     1      36.886 -18.242 -20.243  0.00  0.00    -0.270 OA
ATOM     19  N   UNL     1      34.986 -19.559 -20.551  0.00  0.00    -0.297 N 
ATOM     20  C   UNL     1      35.748 -18.409 -20.685  0.00  0.00    +0.251 C 
ATOM     21  H   UNL     1      34.087 -19.571 -20.951  0.00  0.00    +0.150 HD
BRANCH  19  22
ATOM     22  C   UNL     1      35.444 -20.742 -19.859  0.00  0.00    +0.119 C 
BRANCH  22  25
ATOM     23  F   UNL     1      36.073 -21.991 -17.399  0.00  0.00    -0.204 F 
ATOM     24  F   UNL     1      31.523 -22.796 -16.380  0.00  0.00    -0.204 F 
ATOM     25  C   UNL     1      34.400 -21.290 -18.930  0.00  0.00    +0.025 C 
ATOM     26  C   UNL     1      34.779 -21.895 -17.731  0.00  0.00    +0.140 C 
ATOM     27  C   UNL     1      33.050 -21.194 -19.268  0.00  0.00    +0.002 C 
ATOM     28  C   UNL     1      33.806 -22.404 -16.870  0.00  0.00    +0.059 C 
ATOM     29  C   UNL     1      32.078 -21.703 -18.406  0.00  0.00    +0.030 C 
ATOM     30  C   UNL     1      32.456 -22.308 -17.207  0.00  0.00    +0.142 C 
ENDBRANCH  22  25
ENDBRANCH  19  22
ENDBRANCH  16  20
BRANCH  15  31
ATOM     31  O   UNL     1      34.220 -16.085 -24.900  0.00  0.00    -0.502 OA
ATOM     32  H   UNL     1      34.701 -16.706 -25.410  0.00  0.00    +0.292 HD
ENDBRANCH  15  31
TORSDOF 4
ENDMDL
MODEL 8
REMARK VINA RESULT:     -11.2      1.887      2.717
REMARK  Name = 54726191
REMARK  4 active torsions:
REMARK  status: ('A' for Active; 'I' for Inactive)
REMARK    1  A    between atoms: C_15  and  O_31
REMARK    2  A    between atoms: C_16  and  C_20
REMARK    3  A    between atoms: N_19  and  C_22
REMARK    4  A    between atoms: C_22  and  C_25
REMARK                            x       y       z     vdW  Elec       q    Type
REMARK                         _______ _______ _______ _____ _____    ______ ____
ROOT
ATOM      1  O   UNL     1      34.874 -23.744 -13.685  0.00  0.00    -0.336 OA
ATOM      2  O   UNL     1      30.952 -23.232 -16.219  0.00  0.00    -0.268 OA
ATOM      3  O   UNL     1      32.598 -20.379 -20.100  0.00  0.00    -0.283 OA
ATOM      4  N   UNL     1      32.816 -23.277 -14.846  0.00  0.00    -0.253 N 
ATOM      5  N   UNL     1      34.354 -22.306 -16.998  0.00  0.00    -0.275 N 
ATOM      6  C   UNL     1      34.219 -22.901 -14.640  0.00  0.00    +0.215 C 
ATOM      7  C   UNL     1      32.019 -23.654 -13.665  0.00  0.00    +0.080 C 
ATOM      8  C   UNL     1      32.843 -24.470 -12.669  0.00  0.00    +0.052 C 
ATOM      9  C   UNL     1      35.004 -23.056 -15.933  0.00  0.00    +0.147 C 
ATOM     10  C   UNL     1      34.196 -23.827 -12.438  0.00  0.00    +0.146 C 
ATOM     11  C   UNL     1      32.142 -22.975 -16.038  0.00  0.00    +0.267 C 
ATOM     12  C   UNL     1      32.961 -22.285 -17.105  0.00  0.00    +0.143 C 
ATOM     13  C   UNL     1      31.411 -22.408 -13.008  0.00  0.00    +0.022 C 
ATOM     14  C   UNL     1      35.113 -21.685 -17.980  0.00  0.00    +0.074 C 
ATOM     15  C   UNL     1      32.318 -21.657 -18.115  0.00  0.00    +0.191 C 
ATOM     16  C   UNL     1      34.613 -21.029 -19.034  0.00  0.00    +0.110 C 
ATOM     17  C   UNL     1      33.134 -20.968 -19.167  0.00  0.00    +0.236 C 
ENDROOT
BRANCH  16  20
ATOM     18  O   UNL     1      36.471 -21.065 -20.470  0.00  0.00    -0.270 OA
ATOM     19  N   UNL     1      35.247 -19.091 -20.255  0.00  0.00    -0.297 N 
ATOM     20  C   UNL     1      35.540 -20.419 -19.986  0.00  0.00    +0.251 C 
ATOM     21  H   UNL     1      34.472 -18.685 -19.803  0.00  0.00    +0.150 HD
BRANCH  19  22
ATOM     22  C   UNL     1      36.019 -18.273 -21.162  0.00  0.00    +0.119 C 
BRANCH  22  25
ATOM     23  F   UNL     1      34.638 -19.700 -23.178  0.00  0.00    -0.204 F 
ATOM     24  F   UNL     1      32.776 -15.758 -25.017  0.00  0.00    -0.204 F 
ATOM     25  C   UNL     1      35.154 -17.604 -22.190  0.00  0.00    +0.025 C 
ATOM     26  C   UNL     1      34.500 -18.368 -23.158  0.00  0.00    +0.140 C 
ATOM     27  C   UNL     1      35.004 -16.217 -22.177  0.00  0.00    +0.002 C 
ATOM     28  C   UNL     1      33.697 -17.743 -24.113  0.00  0.00    +0.059 C 
ATOM     29  C   UNL     1      34.200 -15.594 -23.132  0.00  0.00    +0.030 C 
ATOM     30  C   UNL     1      33.547 -16.356 -24.100  0.00  0.00    +0.142 C 
ENDBRANCH  22  25
ENDBRANCH  19  22
ENDBRANCH  16  20
BRANCH  15  31
ATOM     31  O   UNL     1      30.949 -21.593 -18.239  0.00  0.00    -0.502 OA
ATOM     32  H   UNL     1      30.512 -20.766 -18.186  0.00  0.00    +0.292 HD
ENDBRANCH  15  31
TORSDOF 4
ENDMDL
MODEL 9
REMARK VINA RESULT:     -10.9      8.061     14.036
REMARK  Name = 54726191
REMARK  4 active torsions:
REMARK  status: ('A' for Active; 'I' for Inactive)
REMARK    1  A    between atoms: C_15  and  O_31
REMARK    2  A    between atoms: C_16  and  C_20
REMARK    3  A    between atoms: N_19  and  C_22
REMARK    4  A    between atoms: C_22  and  C_25
REMARK                            x       y       z     vdW  Elec       q    Type
REMARK                         _______ _______ _______ _____ _____    ______ ____
ROOT
ATOM      1  O   UNL     1      31.604  -5.094 -25.184  0.00  0.00    -0.336 OA
ATOM      2  O   UNL     1      32.337  -4.579 -20.572  0.00  0.00    -0.268 OA
ATOM      3  O   UNL     1      31.233  -9.232 -18.828  0.00  0.00    -0.283 OA
ATOM      4  N   UNL     1      31.739  -4.760 -22.802  0.00  0.00    -0.253 N 
ATOM      5  N   UNL     1      31.657  -7.559 -22.495  0.00  0.00    -0.275 N 
ATOM      6  C   UNL     1      31.251  -5.609 -23.894  0.00  0.00    +0.215 C 
ATOM      7  C   UNL     1      31.639  -3.298 -22.962  0.00  0.00    +0.080 C 
ATOM      8  C   UNL     1      31.944  -2.869 -24.398  0.00  0.00    +0.052 C 
ATOM      9  C   UNL     1      31.882  -6.989 -23.815  0.00  0.00    +0.147 C 
ATOM     10  C   UNL     1      31.204  -3.745 -25.389  0.00  0.00    +0.146 C 
ATOM     11  C   UNL     1      31.976  -5.277 -21.521  0.00  0.00    +0.267 C 
ATOM     12  C   UNL     1      31.743  -6.760 -21.351  0.00  0.00    +0.143 C 
ATOM     13  C   UNL     1      30.262  -2.800 -22.505  0.00  0.00    +0.022 C 
ATOM     14  C   UNL     1      31.455  -8.924 -22.347  0.00  0.00    +0.074 C 
ATOM     15  C   UNL     1      31.608  -7.261 -20.103  0.00  0.00    +0.191 C 
ATOM     16  C   UNL     1      31.306  -9.554 -21.175  0.00  0.00    +0.110 C 
ATOM     17  C   UNL     1      31.369  -8.731 -19.940  0.00  0.00    +0.236 C 
ENDROOT
BRANCH  16  20
ATOM     18  O   UNL     1      30.087 -11.496 -21.687  0.00  0.00    -0.270 OA
ATOM     19  N   UNL     1      32.122 -11.701 -20.567  0.00  0.00    -0.297 N 
ATOM     20  C   UNL     1      31.094 -11.001 -21.178  0.00  0.00    +0.251 C 
ATOM     21  H   UNL     1      32.877 -11.190 -20.196  0.00  0.00    +0.150 HD
BRANCH  19  22
ATOM     22  C   UNL     1      32.142 -13.141 -20.443  0.00  0.00    +0.119 C 
BRANCH  22  25
ATOM     23  F   UNL     1      34.074 -15.183 -20.123  0.00  0.00    -0.204 F 
ATOM     24  F   UNL     1      34.754 -15.592 -24.788  0.00  0.00    -0.204 F 
ATOM     25  C   UNL     1      32.839 -13.795 -21.600  0.00  0.00    +0.025 C 
ATOM     26  C   UNL     1      33.783 -14.797 -21.372  0.00  0.00    +0.140 C 
ATOM     27  C   UNL     1      32.541 -13.400 -22.905  0.00  0.00    +0.002 C 
ATOM     28  C   UNL     1      34.430 -15.404 -22.449  0.00  0.00    +0.059 C 
ATOM     29  C   UNL     1      33.189 -14.008 -23.982  0.00  0.00    +0.030 C 
ATOM     30  C   UNL     1      34.133 -15.009 -23.754  0.00  0.00    +0.142 C 
ENDBRANCH  22  25
ENDBRANCH  19  22
ENDBRANCH  16  20
BRANCH  15  31
ATOM     31  O   UNL     1      31.659  -6.501 -18.955  0.00  0.00    -0.502 OA
ATOM     32  H   UNL     1      31.561  -6.910 -18.118  0.00  0.00    +0.292 HD
ENDBRANCH  15  31
TORSDOF 4
ENDMDL
