MODEL 1
REMARK VINA RESULT:     -12.0      0.000      0.000
REMARK  Name = 42647297
REMARK  5 active torsions:
REMARK  status: ('A' for Active; 'I' for Inactive)
REMARK    1  A    between atoms: N_3  and  C_14
REMARK    2  A    between atoms: C_7  and  N_20
REMARK    3  A    between atoms: N_20  and  C_24
REMARK    4  A    between atoms: C_22  and  C_31
REMARK    5  A    between atoms: N_30  and  C_33
REMARK                            x       y       z     vdW  Elec       q    Type
REMARK                         _______ _______ _______ _____ _____    ______ ____
ROOT
ATOM      1  O   UNL     1      31.498 -21.662 -18.934  0.00  0.00    -0.269 OA
ATOM      2  N   UNL     1      33.125 -20.377 -20.019  0.00  0.00    -0.240 N 
ATOM      3  N   UNL     1      35.154 -19.233 -20.812  0.00  0.00    -0.174 N 
ATOM      4  N   UNL     1      36.468 -19.151 -20.518  0.00  0.00    -0.171 NA
ATOM      5  C   UNL     1      34.474 -20.074 -19.984  0.00  0.00    +0.133 C 
ATOM      6  C   UNL     1      35.394 -20.569 -19.102  0.00  0.00    +0.064 C 
ATOM      7  C   UNL     1      34.983 -21.490 -18.100  0.00  0.00    +0.057 C 
ATOM      8  C   UNL     1      33.678 -21.833 -18.071  0.00  0.00    +0.073 C 
ATOM      9  C   UNL     1      32.664 -21.282 -19.049  0.00  0.00    +0.255 C 
ATOM     10  C   UNL     1      36.609 -19.973 -19.469  0.00  0.00    +0.122 C 
ATOM     11  C   UNL     1      32.230 -19.788 -21.006  0.00  0.00    +0.122 C 
ENDROOT
BRANCH   3  14
ATOM     12  F   UNL     1      34.949 -16.467 -20.638  0.00  0.00    -0.203 F 
ATOM     13  F   UNL     1      33.285 -16.236 -25.059  0.00  0.00    -0.204 F 
ATOM     14  C   UNL     1      34.681 -18.474 -21.882  0.00  0.00    +0.103 C 
ATOM     15  C   UNL     1      34.589 -17.087 -21.771  0.00  0.00    +0.158 C 
ATOM     16  C   UNL     1      34.302 -19.105 -23.067  0.00  0.00    +0.021 C 
ATOM     17  C   UNL     1      34.117 -16.331 -22.845  0.00  0.00    +0.061 C 
ATOM     18  C   UNL     1      33.830 -18.349 -24.140  0.00  0.00    +0.031 C 
ATOM     19  C   UNL     1      33.738 -16.962 -24.028  0.00  0.00    +0.142 C 
ENDBRANCH   3  14
BRANCH   7  20
ATOM     20  N   UNL     1      35.899 -21.988 -17.213  0.00  0.00    -0.313 N 
ATOM     21  H   UNL     1      36.839 -21.952 -17.501  0.00  0.00    +0.152 HD
BRANCH  20  24
ATOM     22  C   UNL     1      34.108 -23.219 -14.234  0.00  0.00    +0.055 C 
ATOM     23  C   UNL     1      34.357 -22.668 -15.491  0.00  0.00    +0.019 C 
ATOM     24  C   UNL     1      35.667 -22.542 -15.952  0.00  0.00    +0.044 C 
ATOM     25  C   UNL     1      35.171 -23.645 -13.437  0.00  0.00    +0.004 C 
ATOM     26  C   UNL     1      36.730 -22.969 -15.155  0.00  0.00    -0.008 C 
ATOM     27  C   UNL     1      36.482 -23.520 -13.898  0.00  0.00    -0.003 C 
ATOM     28  C   UNL     1      38.144 -22.848 -15.622  0.00  0.00    +0.032 C 
BRANCH  22  31
ATOM     29  O   UNL     1      32.487 -24.030 -12.745  0.00  0.00    -0.270 OA
ATOM     30  N   UNL     1      31.744 -22.693 -14.486  0.00  0.00    -0.302 N 
ATOM     31  C   UNL     1      32.742 -23.349 -13.754  0.00  0.00    +0.246 C 
ATOM     32  H   UNL     1      32.011 -22.168 -15.274  0.00  0.00    +0.150 HD
BRANCH  30  33
ATOM     33  C   UNL     1      30.350 -22.748 -14.143  0.00  0.00    +0.072 C 
ATOM     34  C   UNL     1      29.475 -23.867 -14.628  0.00  0.00    +0.021 C 
ATOM     35  C   UNL     1      29.287 -22.478 -15.167  0.00  0.00    +0.021 C 
ENDBRANCH  30  33
ENDBRANCH  22  31
ENDBRANCH  20  24
ENDBRANCH   7  20
TORSDOF 5
ENDMDL
MODEL 2
REMARK VINA RESULT:     -11.9      8.885     12.656
REMARK  Name = 42647297
REMARK  5 active torsions:
REMARK  status: ('A' for Active; 'I' for Inactive)
REMARK    1  A    between atoms: N_3  and  C_14
REMARK    2  A    between atoms: C_7  and  N_20
REMARK    3  A    between atoms: N_20  and  C_24
REMARK    4  A    between atoms: C_22  and  C_31
REMARK    5  A    between atoms: N_30  and  C_33
REMARK                            x       y       z     vdW  Elec       q    Type
REMARK                         _______ _______ _______ _____ _____    ______ ____
ROOT
ATOM      1  O   UNL     1      35.601  -8.548 -24.074  0.00  0.00    -0.269 OA
ATOM      2  N   UNL     1      33.514  -7.698 -23.446  0.00  0.00    -0.240 N 
ATOM      3  N   UNL     1      31.186  -7.299 -22.758  0.00  0.00    -0.174 N 
ATOM      4  N   UNL     1      30.072  -7.996 -22.449  0.00  0.00    -0.171 NA
ATOM      5  C   UNL     1      32.241  -8.096 -23.084  0.00  0.00    +0.133 C 
ATOM      6  C   UNL     1      31.791  -9.384 -22.983  0.00  0.00    +0.064 C 
ATOM      7  C   UNL     1      32.676 -10.461 -23.264  0.00  0.00    +0.057 C 
ATOM      8  C   UNL     1      33.939 -10.148 -23.626  0.00  0.00    +0.073 C 
ATOM      9  C   UNL     1      34.429  -8.723 -23.737  0.00  0.00    +0.255 C 
ATOM     10  C   UNL     1      30.450  -9.274 -22.589  0.00  0.00    +0.122 C 
ATOM     11  C   UNL     1      33.886  -6.292 -23.524  0.00  0.00    +0.122 C 
ENDROOT
BRANCH   3  14
ATOM     12  F   UNL     1      31.778  -5.913 -20.424  0.00  0.00    -0.203 F 
ATOM     13  F   UNL     1      30.902  -1.786 -22.561  0.00  0.00    -0.204 F 
ATOM     14  C   UNL     1      31.114  -5.907 -22.706  0.00  0.00    +0.103 C 
ATOM     15  C   UNL     1      31.417  -5.234 -21.523  0.00  0.00    +0.158 C 
ATOM     16  C   UNL     1      30.739  -5.188 -23.841  0.00  0.00    +0.021 C 
ATOM     17  C   UNL     1      31.346  -3.841 -21.474  0.00  0.00    +0.061 C 
ATOM     18  C   UNL     1      30.667  -3.796 -23.792  0.00  0.00    +0.031 C 
ATOM     19  C   UNL     1      30.971  -3.123 -22.609  0.00  0.00    +0.142 C 
ENDBRANCH   3  14
BRANCH   7  20
ATOM     20  N   UNL     1      32.233 -11.752 -23.166  0.00  0.00    -0.313 N 
ATOM     21  H   UNL     1      31.534 -12.016 -23.807  0.00  0.00    +0.152 HD
BRANCH  20  24
ATOM     22  C   UNL     1      33.802 -14.826 -21.868  0.00  0.00    +0.055 C 
ATOM     23  C   UNL     1      33.381 -13.828 -22.747  0.00  0.00    +0.019 C 
ATOM     24  C   UNL     1      32.647 -12.742 -22.271  0.00  0.00    +0.044 C 
ATOM     25  C   UNL     1      33.489 -14.737 -20.511  0.00  0.00    +0.004 C 
ATOM     26  C   UNL     1      32.335 -12.653 -20.915  0.00  0.00    -0.008 C 
ATOM     27  C   UNL     1      32.755 -13.650 -20.035  0.00  0.00    -0.003 C 
ATOM     28  C   UNL     1      31.550 -11.501 -20.376  0.00  0.00    +0.032 C 
BRANCH  22  31
ATOM     29  O   UNL     1      34.940 -16.000 -23.550  0.00  0.00    -0.270 OA
ATOM     30  N   UNL     1      34.838 -16.991 -21.458  0.00  0.00    -0.302 N 
ATOM     31  C   UNL     1      34.567 -15.959 -22.364  0.00  0.00    +0.246 C 
ATOM     32  H   UNL     1      34.515 -16.897 -20.533  0.00  0.00    +0.150 HD
BRANCH  30  33
ATOM     33  C   UNL     1      35.564 -18.179 -21.811  0.00  0.00    +0.072 C 
ATOM     34  C   UNL     1      36.212 -19.034 -20.761  0.00  0.00    +0.021 C 
ATOM     35  C   UNL     1      37.060 -18.234 -21.707  0.00  0.00    +0.021 C 
ENDBRANCH  30  33
ENDBRANCH  22  31
ENDBRANCH  20  24
ENDBRANCH   7  20
TORSDOF 5
ENDMDL
MODEL 3
REMARK VINA RESULT:     -11.7      5.795      9.282
REMARK  Name = 42647297
REMARK  5 active torsions:
REMARK  status: ('A' for Active; 'I' for Inactive)
REMARK    1  A    between atoms: N_3  and  C_14
REMARK    2  A    between atoms: C_7  and  N_20
REMARK    3  A    between atoms: N_20  and  C_24
REMARK    4  A    between atoms: C_22  and  C_31
REMARK    5  A    between atoms: N_30  and  C_33
REMARK                            x       y       z     vdW  Elec       q    Type
REMARK                         _______ _______ _______ _____ _____    ______ ____
ROOT
ATOM      1  O   UNL     1      31.899 -13.614 -19.344  0.00  0.00    -0.269 OA
ATOM      2  N   UNL     1      32.150 -12.070 -21.084  0.00  0.00    -0.240 N 
ATOM      3  N   UNL     1      32.699 -10.816 -23.128  0.00  0.00    -0.174 N 
ATOM      4  N   UNL     1      33.396 -10.973 -24.273  0.00  0.00    -0.171 NA
ATOM      5  C   UNL     1      32.753 -11.909 -22.318  0.00  0.00    +0.133 C 
ATOM      6  C   UNL     1      33.527 -12.830 -22.969  0.00  0.00    +0.064 C 
ATOM      7  C   UNL     1      33.771 -14.094 -22.367  0.00  0.00    +0.057 C 
ATOM      8  C   UNL     1      33.215 -14.323 -21.158  0.00  0.00    +0.073 C 
ATOM      9  C   UNL     1      32.360 -13.302 -20.443  0.00  0.00    +0.255 C 
ATOM     10  C   UNL     1      33.902 -12.209 -24.169  0.00  0.00    +0.122 C 
ATOM     11  C   UNL     1      31.344 -11.018 -20.480  0.00  0.00    +0.122 C 
ENDROOT
BRANCH   3  14
ATOM     12  F   UNL     1      34.092  -8.412 -23.084  0.00  0.00    -0.203 F 
ATOM     13  F   UNL     1      30.082  -6.014 -22.354  0.00  0.00    -0.204 F 
ATOM     14  C   UNL     1      32.041  -9.602 -22.932  0.00  0.00    +0.103 C 
ATOM     15  C   UNL     1      32.762  -8.409 -22.915  0.00  0.00    +0.158 C 
ATOM     16  C   UNL     1      30.658  -9.584 -22.754  0.00  0.00    +0.021 C 
ATOM     17  C   UNL     1      32.100  -7.196 -22.720  0.00  0.00    +0.061 C 
ATOM     18  C   UNL     1      29.996  -8.372 -22.559  0.00  0.00    +0.031 C 
ATOM     19  C   UNL     1      30.717  -7.178 -22.542  0.00  0.00    +0.142 C 
ENDBRANCH   3  14
BRANCH   7  20
ATOM     20  N   UNL     1      34.546 -15.020 -23.011  0.00  0.00    -0.313 N 
ATOM     21  H   UNL     1      35.251 -14.658 -23.594  0.00  0.00    +0.152 HD
BRANCH  20  24
ATOM     22  C   UNL     1      35.011 -18.477 -21.819  0.00  0.00    +0.055 C 
ATOM     23  C   UNL     1      35.085 -17.087 -21.898  0.00  0.00    +0.019 C 
ATOM     24  C   UNL     1      34.462 -16.413 -22.948  0.00  0.00    +0.044 C 
ATOM     25  C   UNL     1      34.312 -19.195 -22.791  0.00  0.00    +0.004 C 
ATOM     26  C   UNL     1      33.763 -17.130 -23.919  0.00  0.00    -0.008 C 
ATOM     27  C   UNL     1      33.688 -18.520 -23.841  0.00  0.00    -0.003 C 
ATOM     28  C   UNL     1      33.084 -16.435 -25.055  0.00  0.00    +0.032 C 
BRANCH  22  31
ATOM     29  O   UNL     1      36.603 -18.654 -20.105  0.00  0.00    -0.270 OA
ATOM     30  N   UNL     1      35.194 -20.466 -20.425  0.00  0.00    -0.302 N 
ATOM     31  C   UNL     1      35.662 -19.180 -20.725  0.00  0.00    +0.246 C 
ATOM     32  H   UNL     1      34.445 -20.825 -20.953  0.00  0.00    +0.150 HD
BRANCH  30  33
ATOM     33  C   UNL     1      35.752 -21.285 -19.386  0.00  0.00    +0.072 C 
ATOM     34  C   UNL     1      34.945 -21.669 -18.181  0.00  0.00    +0.021 C 
ATOM     35  C   UNL     1      36.092 -20.710 -18.042  0.00  0.00    +0.021 C 
ENDBRANCH  30  33
ENDBRANCH  22  31
ENDBRANCH  20  24
ENDBRANCH   7  20
TORSDOF 5
ENDMDL
MODEL 4
REMARK VINA RESULT:     -11.5      8.765     12.535
REMARK  Name = 42647297
REMARK  5 active torsions:
REMARK  status: ('A' for Active; 'I' for Inactive)
REMARK    1  A    between atoms: N_3  and  C_14
REMARK    2  A    between atoms: C_7  and  N_20
REMARK    3  A    between atoms: N_20  and  C_24
REMARK    4  A    between atoms: C_22  and  C_31
REMARK    5  A    between atoms: N_30  and  C_33
REMARK                            x       y       z     vdW  Elec       q    Type
REMARK                         _______ _______ _______ _____ _____    ______ ____
ROOT
ATOM      1  O   UNL     1      31.869  -9.177 -18.223  0.00  0.00    -0.269 OA
ATOM      2  N   UNL     1      31.523  -8.033 -20.235  0.00  0.00    -0.240 N 
ATOM      3  N   UNL     1      31.122  -7.301 -22.549  0.00  0.00    -0.174 N 
ATOM      4  N   UNL     1      30.906  -7.832 -23.771  0.00  0.00    -0.171 NA
ATOM      5  C   UNL     1      31.288  -8.244 -21.580  0.00  0.00    +0.133 C 
ATOM      6  C   UNL     1      31.174  -9.457 -22.204  0.00  0.00    +0.064 C 
ATOM      7  C   UNL     1      31.301 -10.652 -21.444  0.00  0.00    +0.057 C 
ATOM      8  C   UNL     1      31.533 -10.523 -20.120  0.00  0.00    +0.073 C 
ATOM      9  C   UNL     1      31.658  -9.181 -19.437  0.00  0.00    +0.255 C 
ATOM     10  C   UNL     1      30.939  -9.154 -23.552  0.00  0.00    +0.122 C 
ATOM     11  C   UNL     1      31.628  -6.692 -19.675  0.00  0.00    +0.122 C 
ENDROOT
BRANCH   3  14
ATOM     12  F   UNL     1      33.383  -5.843 -23.243  0.00  0.00    -0.203 F 
ATOM     13  F   UNL     1      31.208  -1.795 -22.126  0.00  0.00    -0.204 F 
ATOM     14  C   UNL     1      31.147  -5.911 -22.442  0.00  0.00    +0.103 C 
ATOM     15  C   UNL     1      32.293  -5.202 -22.797  0.00  0.00    +0.158 C 
ATOM     16  C   UNL     1      30.020  -5.231 -21.981  0.00  0.00    +0.021 C 
ATOM     17  C   UNL     1      32.313  -3.810 -22.691  0.00  0.00    +0.061 C 
ATOM     18  C   UNL     1      30.041  -3.840 -21.873  0.00  0.00    +0.031 C 
ATOM     19  C   UNL     1      31.188  -3.130 -22.229  0.00  0.00    +0.142 C 
ENDBRANCH   3  14
BRANCH   7  20
ATOM     20  N   UNL     1      31.190 -11.868 -22.061  0.00  0.00    -0.313 N 
ATOM     21  H   UNL     1      30.273 -12.167 -22.258  0.00  0.00    +0.152 HD
BRANCH  20  24
ATOM     22  C   UNL     1      33.693 -14.569 -21.904  0.00  0.00    +0.055 C 
ATOM     23  C   UNL     1      32.674 -13.691 -21.537  0.00  0.00    +0.019 C 
ATOM     24  C   UNL     1      32.212 -12.739 -22.445  0.00  0.00    +0.044 C 
ATOM     25  C   UNL     1      34.251 -14.495 -23.181  0.00  0.00    +0.004 C 
ATOM     26  C   UNL     1      32.769 -12.666 -23.722  0.00  0.00    -0.008 C 
ATOM     27  C   UNL     1      33.788 -13.544 -24.090  0.00  0.00    -0.003 C 
ATOM     28  C   UNL     1      32.293 -11.657 -24.717  0.00  0.00    +0.032 C 
BRANCH  22  31
ATOM     29  O   UNL     1      34.037 -15.389 -19.733  0.00  0.00    -0.270 OA
ATOM     30  N   UNL     1      34.812 -16.691 -21.486  0.00  0.00    -0.302 N 
ATOM     31  C   UNL     1      34.176 -15.561 -20.957  0.00  0.00    +0.246 C 
ATOM     32  H   UNL     1      34.890 -16.769 -22.464  0.00  0.00    +0.150 HD
BRANCH  30  33
ATOM     33  C   UNL     1      35.357 -17.742 -20.672  0.00  0.00    +0.072 C 
ATOM     34  C   UNL     1      36.529 -18.556 -21.137  0.00  0.00    +0.021 C 
ATOM     35  C   UNL     1      35.169 -19.185 -21.040  0.00  0.00    +0.021 C 
ENDBRANCH  30  33
ENDBRANCH  22  31
ENDBRANCH  20  24
ENDBRANCH   7  20
TORSDOF 5
ENDMDL
MODEL 5
REMARK VINA RESULT:     -11.2      6.674     10.270
REMARK  Name = 42647297
REMARK  5 active torsions:
REMARK  status: ('A' for Active; 'I' for Inactive)
REMARK    1  A    between atoms: N_3  and  C_14
REMARK    2  A    between atoms: C_7  and  N_20
REMARK    3  A    between atoms: N_20  and  C_24
REMARK    4  A    between atoms: C_22  and  C_31
REMARK    5  A    between atoms: N_30  and  C_33
REMARK                            x       y       z     vdW  Elec       q    Type
REMARK                         _______ _______ _______ _____ _____    ______ ____
ROOT
ATOM      1  O   UNL     1      30.987 -12.776 -19.774  0.00  0.00    -0.269 OA
ATOM      2  N   UNL     1      31.526 -11.030 -21.235  0.00  0.00    -0.240 N 
ATOM      3  N   UNL     1      32.419  -9.535 -22.973  0.00  0.00    -0.174 N 
ATOM      4  N   UNL     1      33.319  -9.552 -23.979  0.00  0.00    -0.171 NA
ATOM      5  C   UNL     1      32.343 -10.720 -22.306  0.00  0.00    +0.133 C 
ATOM      6  C   UNL     1      33.242 -11.557 -22.909  0.00  0.00    +0.064 C 
ATOM      7  C   UNL     1      33.395 -12.887 -22.431  0.00  0.00    +0.057 C 
ATOM      8  C   UNL     1      32.629 -13.261 -21.384  0.00  0.00    +0.073 C 
ATOM      9  C   UNL     1      31.637 -12.333 -20.722  0.00  0.00    +0.255 C 
ATOM     10  C   UNL     1      33.820 -10.794 -23.934  0.00  0.00    +0.122 C 
ATOM     11  C   UNL     1      30.601 -10.058 -20.668  0.00  0.00    +0.122 C 
ENDROOT
BRANCH   3  14
ATOM     12  F   UNL     1      33.078  -7.825 -20.884  0.00  0.00    -0.203 F 
ATOM     13  F   UNL     1      29.616  -4.852 -22.125  0.00  0.00    -0.204 F 
ATOM     14  C   UNL     1      31.712  -8.352 -22.756  0.00  0.00    +0.103 C 
ATOM     15  C   UNL     1      32.063  -7.511 -21.701  0.00  0.00    +0.158 C 
ATOM     16  C   UNL     1      30.654  -8.012 -23.599  0.00  0.00    +0.021 C 
ATOM     17  C   UNL     1      31.355  -6.327 -21.489  0.00  0.00    +0.061 C 
ATOM     18  C   UNL     1      29.945  -6.830 -23.385  0.00  0.00    +0.031 C 
ATOM     19  C   UNL     1      30.296  -5.987 -22.330  0.00  0.00    +0.142 C 
ENDBRANCH   3  14
BRANCH   7  20
ATOM     20  N   UNL     1      34.294 -13.728 -23.028  0.00  0.00    -0.313 N 
ATOM     21  H   UNL     1      35.095 -13.301 -23.407  0.00  0.00    +0.152 HD
BRANCH  20  24
ATOM     22  C   UNL     1      34.616 -17.321 -22.267  0.00  0.00    +0.055 C 
ATOM     23  C   UNL     1      34.686 -15.934 -22.143  0.00  0.00    +0.019 C 
ATOM     24  C   UNL     1      34.216 -15.116 -23.170  0.00  0.00    +0.044 C 
ATOM     25  C   UNL     1      34.076 -17.891 -23.420  0.00  0.00    +0.004 C 
ATOM     26  C   UNL     1      33.676 -15.686 -24.323  0.00  0.00    -0.008 C 
ATOM     27  C   UNL     1      33.606 -17.073 -24.448  0.00  0.00    -0.003 C 
ATOM     28  C   UNL     1      33.164 -14.835 -25.439  0.00  0.00    +0.032 C 
BRANCH  22  31
ATOM     29  O   UNL     1      36.198 -17.937 -20.647  0.00  0.00    -0.270 OA
ATOM     30  N   UNL     1      34.309 -19.267 -20.835  0.00  0.00    -0.302 N 
ATOM     31  C   UNL     1      35.107 -18.174 -21.196  0.00  0.00    +0.246 C 
ATOM     32  H   UNL     1      33.456 -19.398 -21.307  0.00  0.00    +0.150 HD
BRANCH  30  33
ATOM     33  C   UNL     1      34.674 -20.205 -19.810  0.00  0.00    +0.072 C 
ATOM     34  C   UNL     1      34.754 -21.676 -20.097  0.00  0.00    +0.021 C 
ATOM     35  C   UNL     1      33.661 -21.140 -19.218  0.00  0.00    +0.021 C 
ENDBRANCH  30  33
ENDBRANCH  22  31
ENDBRANCH  20  24
ENDBRANCH   7  20
TORSDOF 5
ENDMDL
MODEL 6
REMARK VINA RESULT:     -11.2      8.578     12.540
REMARK  Name = 42647297
REMARK  5 active torsions:
REMARK  status: ('A' for Active; 'I' for Inactive)
REMARK    1  A    between atoms: N_3  and  C_14
REMARK    2  A    between atoms: C_7  and  N_20
REMARK    3  A    between atoms: N_20  and  C_24
REMARK    4  A    between atoms: C_22  and  C_31
REMARK    5  A    between atoms: N_30  and  C_33
REMARK                            x       y       z     vdW  Elec       q    Type
REMARK                         _______ _______ _______ _____ _____    ______ ____
ROOT
ATOM      1  O   UNL     1      29.716 -10.229 -21.583  0.00  0.00    -0.269 OA
ATOM      2  N   UNL     1      31.019  -8.473 -22.415  0.00  0.00    -0.240 N 
ATOM      3  N   UNL     1      32.717  -7.002 -23.418  0.00  0.00    -0.174 N 
ATOM      4  N   UNL     1      33.923  -7.085 -24.018  0.00  0.00    -0.171 NA
ATOM      5  C   UNL     1      32.222  -8.215 -23.046  0.00  0.00    +0.133 C 
ATOM      6  C   UNL     1      33.156  -9.141 -23.424  0.00  0.00    +0.064 C 
ATOM      7  C   UNL     1      32.921 -10.520 -23.168  0.00  0.00    +0.057 C 
ATOM      8  C   UNL     1      31.765 -10.848 -22.552  0.00  0.00    +0.073 C 
ATOM      9  C   UNL     1      30.737  -9.821 -22.138  0.00  0.00    +0.255 C 
ATOM     10  C   UNL     1      34.186  -8.399 -24.018  0.00  0.00    +0.122 C 
ATOM     11  C   UNL     1      30.096  -7.406 -22.056  0.00  0.00    +0.122 C 
ENDROOT
BRANCH   3  14
ATOM     12  F   UNL     1      31.263  -5.810 -25.463  0.00  0.00    -0.203 F 
ATOM     13  F   UNL     1      30.500  -1.982 -22.793  0.00  0.00    -0.204 F 
ATOM     14  C   UNL     1      32.157  -5.734 -23.263  0.00  0.00    +0.103 C 
ATOM     15  C   UNL     1      31.431  -5.158 -24.304  0.00  0.00    +0.158 C 
ATOM     16  C   UNL     1      32.324  -5.044 -22.063  0.00  0.00    +0.021 C 
ATOM     17  C   UNL     1      30.871  -3.889 -24.145  0.00  0.00    +0.061 C 
ATOM     18  C   UNL     1      31.765  -3.776 -21.904  0.00  0.00    +0.031 C 
ATOM     19  C   UNL     1      31.038  -3.199 -22.945  0.00  0.00    +0.142 C 
ENDBRANCH   3  14
BRANCH   7  20
ATOM     20  N   UNL     1      33.851 -11.452 -23.541  0.00  0.00    -0.313 N 
ATOM     21  H   UNL     1      34.735 -11.099 -23.791  0.00  0.00    +0.152 HD
BRANCH  20  24
ATOM     22  C   UNL     1      33.939 -15.009 -22.578  0.00  0.00    +0.055 C 
ATOM     23  C   UNL     1      34.079 -13.622 -22.523  0.00  0.00    +0.019 C 
ATOM     24  C   UNL     1      33.704 -12.839 -23.614  0.00  0.00    +0.044 C 
ATOM     25  C   UNL     1      33.423 -15.613 -23.725  0.00  0.00    +0.004 C 
ATOM     26  C   UNL     1      33.188 -13.442 -24.761  0.00  0.00    -0.008 C 
ATOM     27  C   UNL     1      33.047 -14.829 -24.817  0.00  0.00    -0.003 C 
ATOM     28  C   UNL     1      32.777 -12.628 -25.945  0.00  0.00    +0.032 C 
BRANCH  22  31
ATOM     29  O   UNL     1      34.236 -15.385 -20.281  0.00  0.00    -0.270 OA
ATOM     30  N   UNL     1      34.829 -17.105 -21.717  0.00  0.00    -0.302 N 
ATOM     31  C   UNL     1      34.331 -15.826 -21.441  0.00  0.00    +0.246 C 
ATOM     32  H   UNL     1      34.878 -17.395 -22.656  0.00  0.00    +0.150 HD
BRANCH  30  33
ATOM     33  C   UNL     1      35.273 -18.015 -20.697  0.00  0.00    +0.072 C 
ATOM     34  C   UNL     1      36.416 -18.957 -20.941  0.00  0.00    +0.021 C 
ATOM     35  C   UNL     1      35.019 -19.490 -20.809  0.00  0.00    +0.021 C 
ENDBRANCH  30  33
ENDBRANCH  22  31
ENDBRANCH  20  24
ENDBRANCH   7  20
TORSDOF 5
ENDMDL
MODEL 7
REMARK VINA RESULT:     -11.1      6.539     11.977
REMARK  Name = 42647297
REMARK  5 active torsions:
REMARK  status: ('A' for Active; 'I' for Inactive)
REMARK    1  A    between atoms: N_3  and  C_14
REMARK    2  A    between atoms: C_7  and  N_20
REMARK    3  A    between atoms: N_20  and  C_24
REMARK    4  A    between atoms: C_22  and  C_31
REMARK    5  A    between atoms: N_30  and  C_33
REMARK                            x       y       z     vdW  Elec       q    Type
REMARK                         _______ _______ _______ _____ _____    ______ ____
ROOT
ATOM      1  O   UNL     1      33.313 -15.518 -25.772  0.00  0.00    -0.269 OA
ATOM      2  N   UNL     1      33.797 -16.172 -23.579  0.00  0.00    -0.240 N 
ATOM      3  N   UNL     1      34.287 -16.355 -21.174  0.00  0.00    -0.174 N 
ATOM      4  N   UNL     1      34.440 -15.561 -20.094  0.00  0.00    -0.171 NA
ATOM      5  C   UNL     1      34.009 -15.659 -22.312  0.00  0.00    +0.133 C 
ATOM      6  C   UNL     1      33.981 -14.339 -21.955  0.00  0.00    +0.064 C 
ATOM      7  C   UNL     1      33.710 -13.351 -22.940  0.00  0.00    +0.057 C 
ATOM      8  C   UNL     1      33.493 -13.777 -24.203  0.00  0.00    +0.073 C 
ATOM      9  C   UNL     1      33.526 -15.237 -24.592  0.00  0.00    +0.255 C 
ATOM     10  C   UNL     1      34.252 -14.326 -20.580  0.00  0.00    +0.122 C 
ATOM     11  C   UNL     1      33.853 -17.602 -23.848  0.00  0.00    +0.122 C 
ENDROOT
BRANCH   3  14
ATOM     12  F   UNL     1      36.758 -17.598 -21.433  0.00  0.00    -0.203 F 
ATOM     13  F   UNL     1      34.832 -21.803 -20.446  0.00  0.00    -0.204 F 
ATOM     14  C   UNL     1      34.427 -17.731 -20.992  0.00  0.00    +0.103 C 
ATOM     15  C   UNL     1      35.679 -18.331 -21.126  0.00  0.00    +0.158 C 
ATOM     16  C   UNL     1      33.312 -18.505 -20.673  0.00  0.00    +0.021 C 
ATOM     17  C   UNL     1      35.815 -19.708 -20.942  0.00  0.00    +0.061 C 
ATOM     18  C   UNL     1      33.449 -19.881 -20.489  0.00  0.00    +0.031 C 
ATOM     19  C   UNL     1      34.701 -20.482 -20.623  0.00  0.00    +0.142 C 
ENDBRANCH   3  14
BRANCH   7  20
ATOM     20  N   UNL     1      33.681 -12.028 -22.591  0.00  0.00    -0.313 N 
ATOM     21  H   UNL     1      34.557 -11.601 -22.452  0.00  0.00    +0.152 HD
BRANCH  20  24
ATOM     22  C   UNL     1      31.405  -9.142 -22.880  0.00  0.00    +0.055 C 
ATOM     23  C   UNL     1      32.511  -9.974 -23.054  0.00  0.00    +0.019 C 
ATOM     24  C   UNL     1      32.566 -11.207 -22.406  0.00  0.00    +0.044 C 
ATOM     25  C   UNL     1      30.353  -9.544 -22.057  0.00  0.00    +0.004 C 
ATOM     26  C   UNL     1      31.513 -11.610 -21.584  0.00  0.00    -0.008 C 
ATOM     27  C   UNL     1      30.407 -10.779 -21.410  0.00  0.00    -0.003 C 
ATOM     28  C   UNL     1      31.543 -12.926 -20.877  0.00  0.00    +0.032 C 
BRANCH  22  31
ATOM     29  O   UNL     1      30.261  -7.383 -23.930  0.00  0.00    -0.270 OA
ATOM     30  N   UNL     1      32.565  -7.196 -23.774  0.00  0.00    -0.302 N 
ATOM     31  C   UNL     1      31.349  -7.855 -23.555  0.00  0.00    +0.246 C 
ATOM     32  H   UNL     1      33.392  -7.622 -23.451  0.00  0.00    +0.150 HD
BRANCH  30  33
ATOM     33  C   UNL     1      32.666  -5.930 -24.445  0.00  0.00    +0.072 C 
ATOM     34  C   UNL     1      33.893  -5.076 -24.311  0.00  0.00    +0.021 C 
ATOM     35  C   UNL     1      32.602  -4.639 -23.681  0.00  0.00    +0.021 C 
ENDBRANCH  30  33
ENDBRANCH  22  31
ENDBRANCH  20  24
ENDBRANCH   7  20
TORSDOF 5
ENDMDL
MODEL 8
REMARK VINA RESULT:     -11.1      3.522      9.186
REMARK  Name = 42647297
REMARK  5 active torsions:
REMARK  status: ('A' for Active; 'I' for Inactive)
REMARK    1  A    between atoms: N_3  and  C_14
REMARK    2  A    between atoms: C_7  and  N_20
REMARK    3  A    between atoms: N_20  and  C_24
REMARK    4  A    between atoms: C_22  and  C_31
REMARK    5  A    between atoms: N_30  and  C_33
REMARK                            x       y       z     vdW  Elec       q    Type
REMARK                         _______ _______ _______ _____ _____    ______ ____
ROOT
ATOM      1  O   UNL     1      32.279 -22.237 -19.525  0.00  0.00    -0.269 OA
ATOM      2  N   UNL     1      33.974 -22.076 -17.920  0.00  0.00    -0.240 N 
ATOM      3  N   UNL     1      35.960 -21.568 -16.560  0.00  0.00    -0.174 N 
ATOM      4  N   UNL     1      37.064 -20.794 -16.604  0.00  0.00    -0.171 NA
ATOM      5  C   UNL     1      35.168 -21.430 -17.659  0.00  0.00    +0.133 C 
ATOM      6  C   UNL     1      35.789 -20.516 -18.465  0.00  0.00    +0.064 C 
ATOM      7  C   UNL     1      35.196 -20.156 -19.706  0.00  0.00    +0.057 C 
ATOM      8  C   UNL     1      34.026 -20.748 -20.029  0.00  0.00    +0.073 C 
ATOM      9  C   UNL     1      33.344 -21.758 -19.134  0.00  0.00    +0.255 C 
ATOM     10  C   UNL     1      36.953 -20.152 -17.775  0.00  0.00    +0.122 C 
ATOM     11  C   UNL     1      33.400 -23.037 -16.987  0.00  0.00    +0.122 C 
ENDROOT
BRANCH   3  14
ATOM     12  F   UNL     1      37.924 -23.357 -15.744  0.00  0.00    -0.203 F 
ATOM     13  F   UNL     1      35.242 -24.764 -12.112  0.00  0.00    -0.204 F 
ATOM     14  C   UNL     1      35.780 -22.377 -15.437  0.00  0.00    +0.103 C 
ATOM     15  C   UNL     1      36.782 -23.266 -15.048  0.00  0.00    +0.158 C 
ATOM     16  C   UNL     1      34.597 -22.293 -14.703  0.00  0.00    +0.021 C 
ATOM     17  C   UNL     1      36.599 -24.072 -13.924  0.00  0.00    +0.061 C 
ATOM     18  C   UNL     1      34.415 -23.100 -13.580  0.00  0.00    +0.031 C 
ATOM     19  C   UNL     1      35.416 -23.989 -13.190  0.00  0.00    +0.142 C 
ENDBRANCH   3  14
BRANCH   7  20
ATOM     20  N   UNL     1      35.812 -19.243 -20.518  0.00  0.00    -0.313 N 
ATOM     21  H   UNL     1      36.794 -19.210 -20.458  0.00  0.00    +0.152 HD
BRANCH  20  24
ATOM     22  C   UNL     1      34.372 -16.144 -21.902  0.00  0.00    +0.055 C 
ATOM     23  C   UNL     1      34.958 -17.047 -21.014  0.00  0.00    +0.019 C 
ATOM     24  C   UNL     1      35.225 -18.353 -21.420  0.00  0.00    +0.044 C 
ATOM     25  C   UNL     1      34.053 -16.550 -23.198  0.00  0.00    +0.004 C 
ATOM     26  C   UNL     1      34.906 -18.758 -22.717  0.00  0.00    -0.008 C 
ATOM     27  C   UNL     1      34.320 -17.857 -23.605  0.00  0.00    -0.003 C 
ATOM     28  C   UNL     1      35.181 -20.152 -23.181  0.00  0.00    +0.032 C 
BRANCH  22  31
ATOM     29  O   UNL     1      34.110 -14.478 -20.271  0.00  0.00    -0.270 OA
ATOM     30  N   UNL     1      33.789 -13.852 -22.479  0.00  0.00    -0.302 N 
ATOM     31  C   UNL     1      34.093 -14.782 -21.477  0.00  0.00    +0.246 C 
ATOM     32  H   UNL     1      33.793 -14.156 -23.415  0.00  0.00    +0.150 HD
BRANCH  30  33
ATOM     33  C   UNL     1      33.473 -12.477 -22.208  0.00  0.00    +0.072 C 
ATOM     34  C   UNL     1      32.052 -11.995 -22.197  0.00  0.00    +0.021 C 
ATOM     35  C   UNL     1      32.981 -11.565 -23.294  0.00  0.00    +0.021 C 
ENDBRANCH  30  33
ENDBRANCH  22  31
ENDBRANCH  20  24
ENDBRANCH   7  20
TORSDOF 5
ENDMDL
MODEL 9
REMARK VINA RESULT:     -10.9      3.344      5.763
REMARK  Name = 42647297
REMARK  5 active torsions:
REMARK  status: ('A' for Active; 'I' for Inactive)
REMARK    1  A    between atoms: N_3  and  C_14
REMARK    2  A    between atoms: C_7  and  N_20
REMARK    3  A    between atoms: N_20  and  C_24
REMARK    4  A    between atoms: C_22  and  C_31
REMARK    5  A    between atoms: N_30  and  C_33
REMARK                            x       y       z     vdW  Elec       q    Type
REMARK                         _______ _______ _______ _____ _____    ______ ____
ROOT
ATOM      1  O   UNL     1      33.765 -17.628 -25.378  0.00  0.00    -0.269 OA
ATOM      2  N   UNL     1      33.656 -16.044 -23.660  0.00  0.00    -0.240 N 
ATOM      3  N   UNL     1      33.754 -14.750 -21.569  0.00  0.00    -0.174 N 
ATOM      4  N   UNL     1      34.157 -14.895 -20.289  0.00  0.00    -0.171 NA
ATOM      5  C   UNL     1      33.956 -15.867 -22.322  0.00  0.00    +0.133 C 
ATOM      6  C   UNL     1      34.520 -16.792 -21.487  0.00  0.00    +0.064 C 
ATOM      7  C   UNL     1      34.854 -18.080 -21.989  0.00  0.00    +0.057 C 
ATOM      8  C   UNL     1      34.589 -18.326 -23.290  0.00  0.00    +0.073 C 
ATOM      9  C   UNL     1      33.964 -17.300 -24.207  0.00  0.00    +0.255 C 
ATOM     10  C   UNL     1      34.625 -16.149 -20.246  0.00  0.00    +0.122 C 
ATOM     11  C   UNL     1      33.051 -14.986 -24.458  0.00  0.00    +0.122 C 
ENDROOT
BRANCH   3  14
ATOM     12  F   UNL     1      31.495 -13.740 -20.304  0.00  0.00    -0.203 F 
ATOM     13  F   UNL     1      31.590  -9.885 -23.043  0.00  0.00    -0.204 F 
ATOM     14  C   UNL     1      33.205 -13.522 -21.940  0.00  0.00    +0.103 C 
ATOM     15  C   UNL     1      32.071 -13.037 -21.289  0.00  0.00    +0.158 C 
ATOM     16  C   UNL     1      33.794 -12.779 -22.963  0.00  0.00    +0.021 C 
ATOM     17  C   UNL     1      31.526 -11.807 -21.662  0.00  0.00    +0.061 C 
ATOM     18  C   UNL     1      33.248 -11.551 -23.336  0.00  0.00    +0.031 C 
ATOM     19  C   UNL     1      32.114 -11.065 -22.685  0.00  0.00    +0.142 C 
ENDBRANCH   3  14
BRANCH   7  20
ATOM     20  N   UNL     1      35.418 -19.011 -21.160  0.00  0.00    -0.313 N 
ATOM     21  H   UNL     1      36.398 -19.093 -21.211  0.00  0.00    +0.152 HD
BRANCH  20  24
ATOM     22  C   UNL     1      34.897 -21.274 -18.297  0.00  0.00    +0.055 C 
ATOM     23  C   UNL     1      35.517 -20.424 -19.212  0.00  0.00    +0.019 C 
ATOM     24  C   UNL     1      34.780 -19.860 -20.253  0.00  0.00    +0.044 C 
ATOM     25  C   UNL     1      33.537 -21.561 -18.423  0.00  0.00    +0.004 C 
ATOM     26  C   UNL     1      33.421 -20.146 -20.379  0.00  0.00    -0.008 C 
ATOM     27  C   UNL     1      32.799 -20.996 -19.464  0.00  0.00    -0.003 C 
ATOM     28  C   UNL     1      32.605 -19.556 -21.483  0.00  0.00    +0.032 C 
BRANCH  22  31
ATOM     29  O   UNL     1      36.904 -21.746 -17.177  0.00  0.00    -0.270 OA
ATOM     30  N   UNL     1      34.953 -22.572 -16.237  0.00  0.00    -0.302 N 
ATOM     31  C   UNL     1      35.666 -21.863 -17.212  0.00  0.00    +0.246 C 
ATOM     32  H   UNL     1      33.974 -22.627 -16.322  0.00  0.00    +0.150 HD
BRANCH  30  33
ATOM     33  C   UNL     1      35.580 -23.223 -15.121  0.00  0.00    +0.072 C 
ATOM     34  C   UNL     1      35.174 -24.606 -14.700  0.00  0.00    +0.021 C 
ATOM     35  C   UNL     1      34.843 -23.429 -13.829  0.00  0.00    +0.021 C 
ENDBRANCH  30  33
ENDBRANCH  22  31
ENDBRANCH  20  24
ENDBRANCH   7  20
TORSDOF 5
ENDMDL
