MODEL 1
REMARK VINA RESULT:     -12.0      0.000      0.000
REMARK  Name = 10113978
REMARK  4 active torsions:
REMARK  status: ('A' for Active; 'I' for Inactive)
REMARK    1  A    between atoms: N_1  and  C_16
REMARK    2  A    between atoms: N_2  and  C_24
REMARK    3  A    between atoms: C_22  and  S_29
REMARK    4  A    between atoms: S_29  and  N_32
REMARK                            x       y       z     vdW  Elec       q    Type
REMARK                         _______ _______ _______ _____ _____    ______ ____
ROOT
ATOM      1  N   UNL     1      33.414 -13.976 -21.734  0.00  0.00    -0.260 N 
ATOM      2  N   UNL     1      34.656 -18.303 -23.177  0.00  0.00    -0.247 N 
ATOM      3  N   UNL     1      34.044 -16.162 -22.440  0.00  0.00    -0.322 NA
ATOM      4  N   UNL     1      33.862 -16.769 -24.765  0.00  0.00    -0.170 NA
ATOM      5  C   UNL     1      33.572 -14.940 -22.761  0.00  0.00    +0.201 C 
ATOM      6  C   UNL     1      33.507 -14.435 -20.343  0.00  0.00    +0.120 C 
ATOM      7  C   UNL     1      34.163 -17.014 -23.475  0.00  0.00    +0.150 C 
ATOM      8  C   UNL     1      33.227 -14.562 -24.042  0.00  0.00    +0.070 C 
ATOM      9  C   UNL     1      33.395 -15.528 -25.015  0.00  0.00    +0.116 C 
ATOM     10  H   UNL     1      34.807 -18.866 -23.972  0.00  0.00    +0.165 HD
ENDROOT
BRANCH   1  16
ATOM     11  N   UNL     1      32.547  -8.477 -23.275  0.00  0.00    -0.253 N 
ATOM     12  N   UNL     1      33.445  -9.433 -23.582  0.00  0.00    -0.170 NA
ATOM     13  C   UNL     1      31.891 -10.160 -22.093  0.00  0.00    +0.033 A 
ATOM     14  C   UNL     1      33.066 -10.502 -22.859  0.00  0.00    +0.103 A 
ATOM     15  C   UNL     1      31.589  -8.860 -22.382  0.00  0.00    +0.057 A 
ATOM     16  C   UNL     1      32.932 -12.649 -21.895  0.00  0.00    +0.055 C 
ATOM     17  C   UNL     1      33.625 -11.789 -22.774  0.00  0.00    +0.036 C 
ATOM     18  C   UNL     1      31.187 -10.981 -21.221  0.00  0.00    +0.004 C 
ATOM     19  C   UNL     1      31.769 -12.262 -21.155  0.00  0.00    +0.015 C 
ATOM     20  C   UNL     1      30.518  -7.956 -21.921  0.00  0.00    +0.052 C 
ATOM     21  C   UNL     1      32.674  -7.178 -23.895  0.00  0.00    +0.153 C 
ENDBRANCH   1  16
BRANCH   2  24
ATOM     22  C   UNL     1      34.356 -20.406 -20.142  0.00  0.00    +0.119 C 
ATOM     23  C   UNL     1      35.602 -20.198 -19.550  0.00  0.00    -0.003 C 
ATOM     24  C   UNL     1      34.965 -18.921 -21.994  0.00  0.00    +0.059 C 
ATOM     25  C   UNL     1      34.042 -19.777 -21.347  0.00  0.00    +0.035 C 
ATOM     26  C   UNL     1      36.534 -19.359 -20.164  0.00  0.00    -0.002 C 
ATOM     27  C   UNL     1      36.219 -18.730 -21.368  0.00  0.00    +0.015 C 
ATOM     28  C   UNL     1      35.971 -20.856 -18.261  0.00  0.00    +0.032 C 
BRANCH  22  29
ATOM     29  S   UNL     1      33.164 -21.451 -19.400  0.00  0.00    +0.057 S 
ATOM     30  O   UNL     1      33.245 -21.280 -17.957  0.00  0.00    -0.153 OA
ATOM     31  O   UNL     1      31.895 -21.258 -20.084  0.00  0.00    -0.153 OA
BRANCH  29  32
ATOM     32  N   UNL     1      33.784 -22.987 -19.811  0.00  0.00    -0.203 NA
ATOM     33  H   UNL     1      34.370 -22.907 -20.643  0.00  0.00    +0.144 HD
ATOM     34  H   UNL     1      33.012 -23.627 -20.000  0.00  0.00    +0.144 HD
ENDBRANCH  29  32
ENDBRANCH  22  29
ENDBRANCH   2  24
TORSDOF 4
ENDMDL
MODEL 2
REMARK VINA RESULT:     -11.4      6.295     11.565
REMARK  Name = 10113978
REMARK  4 active torsions:
REMARK  status: ('A' for Active; 'I' for Inactive)
REMARK    1  A    between atoms: N_1  and  C_16
REMARK    2  A    between atoms: N_2  and  C_24
REMARK    3  A    between atoms: C_22  and  S_29
REMARK    4  A    between atoms: S_29  and  N_32
REMARK                            x       y       z     vdW  Elec       q    Type
REMARK                         _______ _______ _______ _____ _____    ______ ____
ROOT
ATOM      1  N   UNL     1      32.971 -11.953 -23.253  0.00  0.00    -0.260 N 
ATOM      2  N   UNL     1      31.029  -7.957 -21.640  0.00  0.00    -0.247 N 
ATOM      3  N   UNL     1      31.999  -9.929 -22.459  0.00  0.00    -0.322 NA
ATOM      4  N   UNL     1      30.863  -9.899 -20.334  0.00  0.00    -0.170 NA
ATOM      5  C   UNL     1      32.251 -11.240 -22.263  0.00  0.00    +0.201 C 
ATOM      6  C   UNL     1      33.165 -11.310 -24.558  0.00  0.00    +0.120 C 
ATOM      7  C   UNL     1      31.311  -9.329 -21.470  0.00  0.00    +0.150 C 
ATOM      8  C   UNL     1      31.848 -11.940 -21.145  0.00  0.00    +0.070 C 
ATOM      9  C   UNL     1      31.150 -11.210 -20.203  0.00  0.00    +0.116 C 
ATOM     10  H   UNL     1      30.600  -7.538 -20.859  0.00  0.00    +0.165 HD
ENDROOT
BRANCH   1  16
ATOM     11  N   UNL     1      34.777 -17.230 -21.748  0.00  0.00    -0.253 N 
ATOM     12  N   UNL     1      34.700 -16.030 -21.142  0.00  0.00    -0.170 NA
ATOM     13  C   UNL     1      33.934 -15.964 -23.279  0.00  0.00    +0.033 A 
ATOM     14  C   UNL     1      34.176 -15.211 -22.072  0.00  0.00    +0.103 A 
ATOM     15  C   UNL     1      34.330 -17.249 -23.037  0.00  0.00    +0.057 A 
ATOM     16  C   UNL     1      33.321 -13.330 -23.208  0.00  0.00    +0.055 C 
ATOM     17  C   UNL     1      33.865 -13.841 -22.009  0.00  0.00    +0.036 C 
ATOM     18  C   UNL     1      33.401 -15.492 -24.472  0.00  0.00    +0.004 C 
ATOM     19  C   UNL     1      33.101 -14.119 -24.381  0.00  0.00    +0.015 C 
ATOM     20  C   UNL     1      34.333 -18.468 -23.868  0.00  0.00    +0.052 C 
ATOM     21  C   UNL     1      35.308 -18.351 -21.006  0.00  0.00    +0.153 C 
ENDBRANCH   1  16
BRANCH   2  24
ATOM     22  C   UNL     1      31.141  -4.842 -23.644  0.00  0.00    +0.119 C 
ATOM     23  C   UNL     1      31.672  -5.317 -24.843  0.00  0.00    -0.003 C 
ATOM     24  C   UNL     1      31.239  -7.096 -22.685  0.00  0.00    +0.059 C 
ATOM     25  C   UNL     1      30.929  -5.719 -22.580  0.00  0.00    +0.035 C 
ATOM     26  C   UNL     1      31.989  -6.669 -24.979  0.00  0.00    -0.002 C 
ATOM     27  C   UNL     1      31.776  -7.545 -23.915  0.00  0.00    +0.015 C 
ATOM     28  C   UNL     1      31.914  -4.405 -26.002  0.00  0.00    +0.032 C 
BRANCH  22  29
ATOM     29  S   UNL     1      30.733  -3.153 -23.440  0.00  0.00    +0.057 S 
ATOM     30  O   UNL     1      31.970  -2.389 -23.387  0.00  0.00    -0.153 OA
ATOM     31  O   UNL     1      29.707  -2.808 -24.411  0.00  0.00    -0.153 OA
BRANCH  29  32
ATOM     32  N   UNL     1      30.032  -3.178 -21.883  0.00  0.00    -0.203 NA
ATOM     33  H   UNL     1      30.324  -4.023 -21.392  0.00  0.00    +0.144 HD
ATOM     34  H   UNL     1      29.015  -3.168 -21.967  0.00  0.00    +0.144 HD
ENDBRANCH  29  32
ENDBRANCH  22  29
ENDBRANCH   2  24
TORSDOF 4
ENDMDL
MODEL 3
REMARK VINA RESULT:     -11.4      5.466     10.888
REMARK  Name = 10113978
REMARK  4 active torsions:
REMARK  status: ('A' for Active; 'I' for Inactive)
REMARK    1  A    between atoms: N_1  and  C_16
REMARK    2  A    between atoms: N_2  and  C_24
REMARK    3  A    between atoms: C_22  and  S_29
REMARK    4  A    between atoms: S_29  and  N_32
REMARK                            x       y       z     vdW  Elec       q    Type
REMARK                         _______ _______ _______ _____ _____    ______ ____
ROOT
ATOM      1  N   UNL     1      33.107 -12.760 -23.182  0.00  0.00    -0.260 N 
ATOM      2  N   UNL     1      31.064  -8.778 -21.661  0.00  0.00    -0.247 N 
ATOM      3  N   UNL     1      32.083 -10.744 -22.435  0.00  0.00    -0.322 NA
ATOM      4  N   UNL     1      30.984 -10.681 -20.291  0.00  0.00    -0.170 NA
ATOM      5  C   UNL     1      32.382 -12.039 -22.202  0.00  0.00    +0.201 C 
ATOM      6  C   UNL     1      33.257 -12.153 -24.510  0.00  0.00    +0.120 C 
ATOM      7  C   UNL     1      31.393 -10.134 -21.453  0.00  0.00    +0.150 C 
ATOM      8  C   UNL     1      32.021 -12.715 -21.055  0.00  0.00    +0.070 C 
ATOM      9  C   UNL     1      31.315 -11.978 -20.125  0.00  0.00    +0.116 C 
ATOM     10  H   UNL     1      30.635  -8.348 -20.886  0.00  0.00    +0.165 HD
ENDROOT
BRANCH   1  16
ATOM     11  N   UNL     1      35.040 -17.944 -21.520  0.00  0.00    -0.253 N 
ATOM     12  N   UNL     1      34.900 -16.737 -20.939  0.00  0.00    -0.170 NA
ATOM     13  C   UNL     1      34.208 -16.734 -23.102  0.00  0.00    +0.033 A 
ATOM     14  C   UNL     1      34.381 -15.953 -21.901  0.00  0.00    +0.103 A 
ATOM     15  C   UNL     1      34.640 -18.000 -22.824  0.00  0.00    +0.057 A 
ATOM     16  C   UNL     1      33.503 -14.123 -23.100  0.00  0.00    +0.055 C 
ATOM     17  C   UNL     1      34.022 -14.594 -21.874  0.00  0.00    +0.036 C 
ATOM     18  C   UNL     1      33.702 -16.301 -24.322  0.00  0.00    +0.004 C 
ATOM     19  C   UNL     1      33.351 -14.938 -24.266  0.00  0.00    +0.015 C 
ATOM     20  C   UNL     1      34.714 -19.232 -23.632  0.00  0.00    +0.052 C 
ATOM     21  C   UNL     1      35.583 -19.033 -20.740  0.00  0.00    +0.153 C 
ENDBRANCH   1  16
BRANCH   2  24
ATOM     22  C   UNL     1      32.647  -6.504 -24.121  0.00  0.00    +0.119 C 
ATOM     23  C   UNL     1      31.566  -6.223 -24.957  0.00  0.00    -0.003 C 
ATOM     24  C   UNL     1      31.228  -7.944 -22.737  0.00  0.00    +0.059 C 
ATOM     25  C   UNL     1      32.480  -7.353 -23.028  0.00  0.00    +0.035 C 
ATOM     26  C   UNL     1      30.318  -6.791 -24.698  0.00  0.00    -0.002 C 
ATOM     27  C   UNL     1      30.152  -7.639 -23.603  0.00  0.00    +0.015 C 
ATOM     28  C   UNL     1      31.710  -5.319 -26.138  0.00  0.00    +0.032 C 
BRANCH  22  29
ATOM     29  S   UNL     1      34.225  -5.809 -24.418  0.00  0.00    +0.057 S 
ATOM     30  O   UNL     1      34.812  -6.487 -25.564  0.00  0.00    -0.153 OA
ATOM     31  O   UNL     1      34.097  -4.360 -24.419  0.00  0.00    -0.153 OA
BRANCH  29  32
ATOM     32  N   UNL     1      35.057  -6.288 -23.006  0.00  0.00    -0.203 NA
ATOM     33  H   UNL     1      34.546  -5.965 -22.184  0.00  0.00    +0.144 HD
ATOM     34  H   UNL     1      35.992  -5.879 -23.006  0.00  0.00    +0.144 HD
ENDBRANCH  29  32
ENDBRANCH  22  29
ENDBRANCH   2  24
TORSDOF 4
ENDMDL
MODEL 4
REMARK VINA RESULT:     -11.1      4.303      7.470
REMARK  Name = 10113978
REMARK  4 active torsions:
REMARK  status: ('A' for Active; 'I' for Inactive)
REMARK    1  A    between atoms: N_1  and  C_16
REMARK    2  A    between atoms: N_2  and  C_24
REMARK    3  A    between atoms: C_22  and  S_29
REMARK    4  A    between atoms: S_29  and  N_32
REMARK                            x       y       z     vdW  Elec       q    Type
REMARK                         _______ _______ _______ _____ _____    ______ ____
ROOT
ATOM      1  N   UNL     1      35.046 -19.886 -19.894  0.00  0.00    -0.260 N 
ATOM      2  N   UNL     1      34.016 -23.065 -16.551  0.00  0.00    -0.247 N 
ATOM      3  N   UNL     1      34.549 -21.489 -18.205  0.00  0.00    -0.322 NA
ATOM      4  N   UNL     1      32.264 -22.149 -17.815  0.00  0.00    -0.170 NA
ATOM      5  C   UNL     1      34.106 -20.665 -19.176  0.00  0.00    +0.201 C 
ATOM      6  C   UNL     1      36.414 -19.805 -19.368  0.00  0.00    +0.120 C 
ATOM      7  C   UNL     1      33.589 -22.191 -17.574  0.00  0.00    +0.150 C 
ATOM      8  C   UNL     1      32.777 -20.529 -19.520  0.00  0.00    +0.070 C 
ATOM      9  C   UNL     1      31.891 -21.304 -18.799  0.00  0.00    +0.116 C 
ATOM     10  H   UNL     1      33.295 -23.620 -16.174  0.00  0.00    +0.165 HD
ENDROOT
BRANCH   1  16
ATOM     11  N   UNL     1      34.123 -15.209 -23.156  0.00  0.00    -0.253 N 
ATOM     12  N   UNL     1      34.471 -15.436 -21.875  0.00  0.00    -0.170 NA
ATOM     13  C   UNL     1      34.173 -17.363 -23.039  0.00  0.00    +0.033 A 
ATOM     14  C   UNL     1      34.512 -16.776 -21.765  0.00  0.00    +0.103 A 
ATOM     15  C   UNL     1      33.930 -16.334 -23.904  0.00  0.00    +0.057 A 
ATOM     16  C   UNL     1      34.754 -18.972 -20.943  0.00  0.00    +0.055 C 
ATOM     17  C   UNL     1      34.818 -17.590 -20.660  0.00  0.00    +0.036 C 
ATOM     18  C   UNL     1      34.102 -18.716 -23.349  0.00  0.00    +0.004 C 
ATOM     19  C   UNL     1      34.413 -19.507 -22.225  0.00  0.00    +0.015 C 
ATOM     20  C   UNL     1      33.546 -16.294 -25.327  0.00  0.00    +0.052 C 
ATOM     21  C   UNL     1      33.989 -13.843 -23.609  0.00  0.00    +0.153 C 
ENDBRANCH   1  16
BRANCH   2  24
ATOM     22  C   UNL     1      36.776 -24.722 -14.717  0.00  0.00    +0.119 C 
ATOM     23  C   UNL     1      37.775 -23.752 -14.808  0.00  0.00    -0.003 C 
ATOM     24  C   UNL     1      35.242 -23.289 -15.983  0.00  0.00    +0.059 C 
ATOM     25  C   UNL     1      35.529 -24.494 -15.298  0.00  0.00    +0.035 C 
ATOM     26  C   UNL     1      37.525 -22.553 -15.477  0.00  0.00    -0.002 C 
ATOM     27  C   UNL     1      36.276 -22.326 -16.056  0.00  0.00    +0.015 C 
ATOM     28  C   UNL     1      39.123 -23.964 -14.200  0.00  0.00    +0.032 C 
BRANCH  22  29
ATOM     29  S   UNL     1      37.057 -26.236 -13.886  0.00  0.00    +0.057 S 
ATOM     30  O   UNL     1      38.325 -26.781 -14.349  0.00  0.00    -0.153 OA
ATOM     31  O   UNL     1      36.832 -26.027 -12.464  0.00  0.00    -0.153 OA
BRANCH  29  32
ATOM     32  N   UNL     1      35.784 -27.186 -14.512  0.00  0.00    -0.203 NA
ATOM     33  H   UNL     1      36.080 -28.162 -14.560  0.00  0.00    +0.144 HD
ATOM     34  H   UNL     1      35.542 -26.858 -15.448  0.00  0.00    +0.144 HD
ENDBRANCH  29  32
ENDBRANCH  22  29
ENDBRANCH   2  24
TORSDOF 4
ENDMDL
MODEL 5
REMARK VINA RESULT:     -11.1      6.440     11.679
REMARK  Name = 10113978
REMARK  4 active torsions:
REMARK  status: ('A' for Active; 'I' for Inactive)
REMARK    1  A    between atoms: N_1  and  C_16
REMARK    2  A    between atoms: N_2  and  C_24
REMARK    3  A    between atoms: C_22  and  S_29
REMARK    4  A    between atoms: S_29  and  N_32
REMARK                            x       y       z     vdW  Elec       q    Type
REMARK                         _______ _______ _______ _____ _____    ______ ____
ROOT
ATOM      1  N   UNL     1      32.899 -11.683 -23.095  0.00  0.00    -0.260 N 
ATOM      2  N   UNL     1      30.879  -7.653 -21.674  0.00  0.00    -0.247 N 
ATOM      3  N   UNL     1      31.888  -9.643 -22.398  0.00  0.00    -0.322 NA
ATOM      4  N   UNL     1      30.693  -9.551 -20.307  0.00  0.00    -0.170 NA
ATOM      5  C   UNL     1      32.146 -10.944 -22.150  0.00  0.00    +0.201 C 
ATOM      6  C   UNL     1      33.124 -11.082 -24.415  0.00  0.00    +0.120 C 
ATOM      7  C   UNL     1      31.168  -9.016 -21.449  0.00  0.00    +0.150 C 
ATOM      8  C   UNL     1      31.718 -11.609 -21.020  0.00  0.00    +0.070 C 
ATOM      9  C   UNL     1      30.987 -10.855 -20.124  0.00  0.00    +0.116 C 
ATOM     10  H   UNL     1      30.424  -7.212 -20.920  0.00  0.00    +0.165 HD
ENDROOT
BRANCH   1  16
ATOM     11  N   UNL     1      33.869 -17.305 -24.002  0.00  0.00    -0.253 N 
ATOM     12  N   UNL     1      33.351 -16.289 -24.719  0.00  0.00    -0.170 NA
ATOM     13  C   UNL     1      34.001 -15.632 -22.645  0.00  0.00    +0.033 A 
ATOM     14  C   UNL     1      33.418 -15.224 -23.900  0.00  0.00    +0.103 A 
ATOM     15  C   UNL     1      34.276 -16.967 -22.744  0.00  0.00    +0.057 A 
ATOM     16  C   UNL     1      33.260 -13.054 -22.993  0.00  0.00    +0.055 C 
ATOM     17  C   UNL     1      33.025 -13.890 -24.106  0.00  0.00    +0.036 C 
ATOM     18  C   UNL     1      34.245 -14.836 -21.533  0.00  0.00    +0.004 C 
ATOM     19  C   UNL     1      33.842 -13.507 -21.767  0.00  0.00    +0.015 C 
ATOM     20  C   UNL     1      34.869 -17.938 -21.806  0.00  0.00    +0.052 C 
ATOM     21  C   UNL     1      33.943 -18.616 -24.606  0.00  0.00    +0.153 C 
ENDBRANCH   1  16
BRANCH   2  24
ATOM     22  C   UNL     1      31.060  -4.598 -23.763  0.00  0.00    +0.119 C 
ATOM     23  C   UNL     1      31.588  -5.117 -24.946  0.00  0.00    -0.003 C 
ATOM     24  C   UNL     1      31.110  -6.826 -22.741  0.00  0.00    +0.059 C 
ATOM     25  C   UNL     1      30.826  -5.441 -22.677  0.00  0.00    +0.035 C 
ATOM     26  C   UNL     1      31.880  -6.478 -25.042  0.00  0.00    -0.002 C 
ATOM     27  C   UNL     1      31.644  -7.320 -23.955  0.00  0.00    +0.015 C 
ATOM     28  C   UNL     1      31.852  -4.243 -26.128  0.00  0.00    +0.032 C 
BRANCH  22  29
ATOM     29  S   UNL     1      30.682  -2.897 -23.609  0.00  0.00    +0.057 S 
ATOM     30  O   UNL     1      31.931  -2.149 -23.648  0.00  0.00    -0.153 OA
ATOM     31  O   UNL     1      29.615  -2.576 -24.544  0.00  0.00    -0.153 OA
BRANCH  29  32
ATOM     32  N   UNL     1      30.058  -2.849 -22.021  0.00  0.00    -0.203 NA
ATOM     33  H   UNL     1      29.359  -2.109 -21.952  0.00  0.00    +0.144 HD
ATOM     34  H   UNL     1      30.815  -2.665 -21.362  0.00  0.00    +0.144 HD
ENDBRANCH  29  32
ENDBRANCH  22  29
ENDBRANCH   2  24
TORSDOF 4
ENDMDL
MODEL 6
REMARK VINA RESULT:     -10.5      5.587      8.959
REMARK  Name = 10113978
REMARK  4 active torsions:
REMARK  status: ('A' for Active; 'I' for Inactive)
REMARK    1  A    between atoms: N_1  and  C_16
REMARK    2  A    between atoms: N_2  and  C_24
REMARK    3  A    between atoms: C_22  and  S_29
REMARK    4  A    between atoms: S_29  and  N_32
REMARK                            x       y       z     vdW  Elec       q    Type
REMARK                         _______ _______ _______ _____ _____    ______ ____
ROOT
ATOM      1  N   UNL     1      35.141 -21.105 -18.796  0.00  0.00    -0.260 N 
ATOM      2  N   UNL     1      33.630 -24.017 -15.393  0.00  0.00    -0.247 N 
ATOM      3  N   UNL     1      34.401 -22.577 -17.076  0.00  0.00    -0.322 NA
ATOM      4  N   UNL     1      32.042 -22.843 -16.660  0.00  0.00    -0.170 NA
ATOM      5  C   UNL     1      34.091 -21.706 -18.058  0.00  0.00    +0.201 C 
ATOM      6  C   UNL     1      36.509 -21.243 -18.279  0.00  0.00    +0.120 C 
ATOM      7  C   UNL     1      33.344 -23.101 -16.427  0.00  0.00    +0.150 C 
ATOM      8  C   UNL     1      32.800 -21.357 -18.396  0.00  0.00    +0.070 C 
ATOM      9  C   UNL     1      31.805 -21.964 -17.656  0.00  0.00    +0.116 C 
ATOM     10  H   UNL     1      32.830 -24.439 -15.002  0.00  0.00    +0.165 HD
ENDROOT
BRANCH   1  16
ATOM     11  N   UNL     1      33.487 -18.165 -23.485  0.00  0.00    -0.253 N 
ATOM     12  N   UNL     1      33.085 -19.290 -22.862  0.00  0.00    -0.170 NA
ATOM     13  C   UNL     1      34.844 -18.308 -21.813  0.00  0.00    +0.033 A 
ATOM     14  C   UNL     1      33.913 -19.412 -21.809  0.00  0.00    +0.103 A 
ATOM     15  C   UNL     1      34.543 -17.533 -22.896  0.00  0.00    +0.057 A 
ATOM     16  C   UNL     1      34.995 -20.171 -19.857  0.00  0.00    +0.055 C 
ATOM     17  C   UNL     1      33.971 -20.393 -20.804  0.00  0.00    +0.036 C 
ATOM     18  C   UNL     1      35.860 -18.063 -20.898  0.00  0.00    +0.004 C 
ATOM     19  C   UNL     1      35.895 -19.060 -19.904  0.00  0.00    +0.015 C 
ATOM     20  C   UNL     1      35.127 -16.287 -23.427  0.00  0.00    +0.052 C 
ATOM     21  C   UNL     1      32.788 -17.743 -24.677  0.00  0.00    +0.153 C 
ENDBRANCH   1  16
BRANCH   2  24
ATOM     22  C   UNL     1      36.522 -24.240 -13.088  0.00  0.00    +0.119 C 
ATOM     23  C   UNL     1      37.239 -25.290 -13.663  0.00  0.00    -0.003 C 
ATOM     24  C   UNL     1      34.807 -24.432 -14.829  0.00  0.00    +0.059 C 
ATOM     25  C   UNL     1      35.323 -23.819 -13.662  0.00  0.00    +0.035 C 
ATOM     26  C   UNL     1      36.758 -25.916 -14.813  0.00  0.00    -0.002 C 
ATOM     27  C   UNL     1      35.559 -25.493 -15.387  0.00  0.00    +0.015 C 
ATOM     28  C   UNL     1      38.526 -25.767 -13.073  0.00  0.00    +0.032 C 
BRANCH  22  29
ATOM     29  S   UNL     1      37.096 -23.433 -11.645  0.00  0.00    +0.057 S 
ATOM     30  O   UNL     1      36.836 -24.300 -10.505  0.00  0.00    -0.153 OA
ATOM     31  O   UNL     1      38.445 -22.949 -11.897  0.00  0.00    -0.153 OA
BRANCH  29  32
ATOM     32  N   UNL     1      36.035 -22.098 -11.580  0.00  0.00    -0.203 NA
ATOM     33  H   UNL     1      35.663 -21.913 -12.512  0.00  0.00    +0.144 HD
ATOM     34  H   UNL     1      36.540 -21.277 -11.246  0.00  0.00    +0.144 HD
ENDBRANCH  29  32
ENDBRANCH  22  29
ENDBRANCH   2  24
TORSDOF 4
ENDMDL
MODEL 7
REMARK VINA RESULT:     -10.4      1.154      1.695
REMARK  Name = 10113978
REMARK  4 active torsions:
REMARK  status: ('A' for Active; 'I' for Inactive)
REMARK    1  A    between atoms: N_1  and  C_16
REMARK    2  A    between atoms: N_2  and  C_24
REMARK    3  A    between atoms: C_22  and  S_29
REMARK    4  A    between atoms: S_29  and  N_32
REMARK                            x       y       z     vdW  Elec       q    Type
REMARK                         _______ _______ _______ _____ _____    ______ ____
ROOT
ATOM      1  N   UNL     1      33.563 -14.346 -21.752  0.00  0.00    -0.260 N 
ATOM      2  N   UNL     1      34.673 -18.793 -22.910  0.00  0.00    -0.247 N 
ATOM      3  N   UNL     1      34.127 -16.591 -22.314  0.00  0.00    -0.322 NA
ATOM      4  N   UNL     1      33.906 -17.347 -24.592  0.00  0.00    -0.170 NA
ATOM      5  C   UNL     1      33.684 -15.380 -22.713  0.00  0.00    +0.201 C 
ATOM      6  C   UNL     1      33.657 -14.713 -20.334  0.00  0.00    +0.120 C 
ATOM      7  C   UNL     1      34.213 -17.514 -23.290  0.00  0.00    +0.150 C 
ATOM      8  C   UNL     1      33.338 -15.080 -24.014  0.00  0.00    +0.070 C 
ATOM      9  C   UNL     1      33.470 -16.113 -24.920  0.00  0.00    +0.116 C 
ATOM     10  H   UNL     1      34.801 -19.411 -23.666  0.00  0.00    +0.165 HD
ENDROOT
BRANCH   1  16
ATOM     11  N   UNL     1      31.000  -9.172 -21.571  0.00  0.00    -0.253 N 
ATOM     12  N   UNL     1      30.977 -10.285 -20.813  0.00  0.00    -0.170 NA
ATOM     13  C   UNL     1      32.361 -10.493 -22.601  0.00  0.00    +0.033 A 
ATOM     14  C   UNL     1      31.819 -11.135 -21.428  0.00  0.00    +0.103 A 
ATOM     15  C   UNL     1      31.817  -9.242 -22.662  0.00  0.00    +0.057 A 
ATOM     16  C   UNL     1      33.115 -13.020 -21.998  0.00  0.00    +0.055 C 
ATOM     17  C   UNL     1      32.195 -12.448 -21.093  0.00  0.00    +0.036 C 
ATOM     18  C   UNL     1      33.267 -11.027 -23.510  0.00  0.00    +0.004 C 
ATOM     19  C   UNL     1      33.625 -12.341 -23.149  0.00  0.00    +0.015 C 
ATOM     20  C   UNL     1      31.979  -8.126 -23.614  0.00  0.00    +0.052 C 
ATOM     21  C   UNL     1      30.187  -8.045 -21.177  0.00  0.00    +0.153 C 
ENDBRANCH   1  16
BRANCH   2  24
ATOM     22  C   UNL     1      34.417 -20.816 -19.817  0.00  0.00    +0.119 C 
ATOM     23  C   UNL     1      35.602 -20.465 -19.171  0.00  0.00    -0.003 C 
ATOM     24  C   UNL     1      34.977 -19.338 -21.690  0.00  0.00    +0.059 C 
ATOM     25  C   UNL     1      34.109 -20.261 -21.059  0.00  0.00    +0.035 C 
ATOM     26  C   UNL     1      36.479 -19.558 -19.767  0.00  0.00    -0.002 C 
ATOM     27  C   UNL     1      36.170 -19.003 -21.009  0.00  0.00    +0.015 C 
ATOM     28  C   UNL     1      35.963 -21.041 -17.841  0.00  0.00    +0.032 C 
BRANCH  22  29
ATOM     29  S   UNL     1      33.295 -21.951 -19.098  0.00  0.00    +0.057 S 
ATOM     30  O   UNL     1      31.947 -21.431 -19.275  0.00  0.00    -0.153 OA
ATOM     31  O   UNL     1      33.627 -23.286 -19.571  0.00  0.00    -0.153 OA
BRANCH  29  32
ATOM     32  N   UNL     1      33.725 -21.827 -17.451  0.00  0.00    -0.203 NA
ATOM     33  H   UNL     1      34.668 -22.193 -17.316  0.00  0.00    +0.144 HD
ATOM     34  H   UNL     1      33.067 -22.365 -16.886  0.00  0.00    +0.144 HD
ENDBRANCH  29  32
ENDBRANCH  22  29
ENDBRANCH   2  24
TORSDOF 4
ENDMDL
MODEL 8
REMARK VINA RESULT:     -10.4      5.517     10.937
REMARK  Name = 10113978
REMARK  4 active torsions:
REMARK  status: ('A' for Active; 'I' for Inactive)
REMARK    1  A    between atoms: N_1  and  C_16
REMARK    2  A    between atoms: N_2  and  C_24
REMARK    3  A    between atoms: C_22  and  S_29
REMARK    4  A    between atoms: S_29  and  N_32
REMARK                            x       y       z     vdW  Elec       q    Type
REMARK                         _______ _______ _______ _____ _____    ______ ____
ROOT
ATOM      1  N   UNL     1      33.051 -12.618 -23.204  0.00  0.00    -0.260 N 
ATOM      2  N   UNL     1      31.015  -8.589 -21.799  0.00  0.00    -0.247 N 
ATOM      3  N   UNL     1      32.031 -10.579 -22.515  0.00  0.00    -0.322 NA
ATOM      4  N   UNL     1      30.898 -10.463 -20.391  0.00  0.00    -0.170 NA
ATOM      5  C   UNL     1      32.316 -11.871 -22.251  0.00  0.00    +0.201 C 
ATOM      6  C   UNL     1      33.227 -12.040 -24.542  0.00  0.00    +0.120 C 
ATOM      7  C   UNL     1      31.331  -9.944 -21.557  0.00  0.00    +0.150 C 
ATOM      8  C   UNL     1      31.932 -12.520 -21.096  0.00  0.00    +0.070 C 
ATOM      9  C   UNL     1      31.218 -11.759 -20.192  0.00  0.00    +0.116 C 
ATOM     10  H   UNL     1      30.577  -8.140 -21.040  0.00  0.00    +0.165 HD
ENDROOT
BRANCH   1  16
ATOM     11  N   UNL     1      34.073 -18.243 -24.031  0.00  0.00    -0.253 N 
ATOM     12  N   UNL     1      33.518 -17.249 -24.751  0.00  0.00    -0.170 NA
ATOM     13  C   UNL     1      34.224 -16.541 -22.712  0.00  0.00    +0.033 A 
ATOM     14  C   UNL     1      33.595 -16.167 -23.956  0.00  0.00    +0.103 A 
ATOM     15  C   UNL     1      34.515 -17.873 -22.794  0.00  0.00    +0.057 A 
ATOM     16  C   UNL     1      33.434 -13.981 -23.087  0.00  0.00    +0.055 C 
ATOM     17  C   UNL     1      33.176 -14.843 -24.175  0.00  0.00    +0.036 C 
ATOM     18  C   UNL     1      34.492 -15.720 -21.624  0.00  0.00    +0.004 C 
ATOM     19  C   UNL     1      34.062 -14.401 -21.872  0.00  0.00    +0.015 C 
ATOM     20  C   UNL     1      35.152 -18.818 -21.857  0.00  0.00    +0.052 C 
ATOM     21  C   UNL     1      34.147 -19.564 -24.612  0.00  0.00    +0.153 C 
ENDBRANCH   1  16
BRANCH   2  24
ATOM     22  C   UNL     1      32.654  -6.380 -24.281  0.00  0.00    +0.119 C 
ATOM     23  C   UNL     1      31.588  -6.108 -25.139  0.00  0.00    -0.003 C 
ATOM     24  C   UNL     1      31.202  -7.780 -22.889  0.00  0.00    +0.059 C 
ATOM     25  C   UNL     1      32.464  -7.205 -23.173  0.00  0.00    +0.035 C 
ATOM     26  C   UNL     1      30.331  -6.660 -24.887  0.00  0.00    -0.002 C 
ATOM     27  C   UNL     1      30.142  -7.484 -23.778  0.00  0.00    +0.015 C 
ATOM     28  C   UNL     1      31.758  -5.230 -26.336  0.00  0.00    +0.032 C 
BRANCH  22  29
ATOM     29  S   UNL     1      34.243  -5.705 -24.568  0.00  0.00    +0.057 S 
ATOM     30  O   UNL     1      34.826  -6.386 -25.714  0.00  0.00    -0.153 OA
ATOM     31  O   UNL     1      34.133  -4.254 -24.563  0.00  0.00    -0.153 OA
BRANCH  29  32
ATOM     32  N   UNL     1      35.062  -6.199 -23.154  0.00  0.00    -0.203 NA
ATOM     33  H   UNL     1      35.106  -7.218 -23.125  0.00  0.00    +0.144 HD
ATOM     34  H   UNL     1      34.561  -5.858 -22.333  0.00  0.00    +0.144 HD
ENDBRANCH  29  32
ENDBRANCH  22  29
ENDBRANCH   2  24
TORSDOF 4
ENDMDL
MODEL 9
REMARK VINA RESULT:     -10.2      5.774     11.242
REMARK  Name = 10113978
REMARK  4 active torsions:
REMARK  status: ('A' for Active; 'I' for Inactive)
REMARK    1  A    between atoms: N_1  and  C_16
REMARK    2  A    between atoms: N_2  and  C_24
REMARK    3  A    between atoms: C_22  and  S_29
REMARK    4  A    between atoms: S_29  and  N_32
REMARK                            x       y       z     vdW  Elec       q    Type
REMARK                         _______ _______ _______ _____ _____    ______ ____
ROOT
ATOM      1  N   UNL     1      32.822 -11.246 -22.952  0.00  0.00    -0.260 N 
ATOM      2  N   UNL     1      30.994  -7.224 -21.271  0.00  0.00    -0.247 N 
ATOM      3  N   UNL     1      31.906  -9.210 -22.124  0.00  0.00    -0.322 NA
ATOM      4  N   UNL     1      30.895  -9.152 -19.937  0.00  0.00    -0.170 NA
ATOM      5  C   UNL     1      32.164 -10.519 -21.929  0.00  0.00    +0.201 C 
ATOM      6  C   UNL     1      32.943 -10.616 -24.272  0.00  0.00    +0.120 C 
ATOM      7  C   UNL     1      31.279  -8.596 -21.103  0.00  0.00    +0.150 C 
ATOM      8  C   UNL     1      31.823 -11.206 -20.783  0.00  0.00    +0.070 C 
ATOM      9  C   UNL     1      31.184 -10.464 -19.810  0.00  0.00    +0.116 C 
ATOM     10  H   UNL     1      30.612  -6.796 -20.470  0.00  0.00    +0.165 HD
ENDROOT
BRANCH   1  16
ATOM     11  N   UNL     1      33.678 -16.844 -24.092  0.00  0.00    -0.253 N 
ATOM     12  N   UNL     1      33.144 -15.798 -24.752  0.00  0.00    -0.170 NA
ATOM     13  C   UNL     1      33.890 -15.221 -22.685  0.00  0.00    +0.033 A 
ATOM     14  C   UNL     1      33.259 -14.763 -23.900  0.00  0.00    +0.103 A 
ATOM     15  C   UNL     1      34.143 -16.554 -22.842  0.00  0.00    +0.057 A 
ATOM     16  C   UNL     1      33.169 -12.624 -22.913  0.00  0.00    +0.055 C 
ATOM     17  C   UNL     1      32.875 -13.418 -24.043  0.00  0.00    +0.036 C 
ATOM     18  C   UNL     1      34.191 -14.467 -21.558  0.00  0.00    +0.004 C 
ATOM     19  C   UNL     1      33.796 -13.126 -21.729  0.00  0.00    +0.015 C 
ATOM     20  C   UNL     1      34.762 -17.565 -21.965  0.00  0.00    +0.052 C 
ATOM     21  C   UNL     1      33.710 -18.134 -24.744  0.00  0.00    +0.153 C 
ENDBRANCH   1  16
BRANCH   2  24
ATOM     22  C   UNL     1      32.435  -5.581 -24.262  0.00  0.00    +0.119 C 
ATOM     23  C   UNL     1      31.461  -4.620 -24.532  0.00  0.00    -0.003 C 
ATOM     24  C   UNL     1      31.146  -6.375 -22.335  0.00  0.00    +0.059 C 
ATOM     25  C   UNL     1      32.279  -6.447 -23.180  0.00  0.00    +0.035 C 
ATOM     26  C   UNL     1      30.332  -4.523 -23.718  0.00  0.00    -0.002 C 
ATOM     27  C   UNL     1      30.177  -5.388 -22.635  0.00  0.00    +0.015 C 
ATOM     28  C   UNL     1      31.596  -3.678 -25.684  0.00  0.00    +0.032 C 
BRANCH  22  29
ATOM     29  S   UNL     1      33.863  -5.730 -25.263  0.00  0.00    +0.057 S 
ATOM     30  O   UNL     1      33.436  -6.027 -26.623  0.00  0.00    -0.153 OA
ATOM     31  O   UNL     1      34.726  -4.588 -25.005  0.00  0.00    -0.153 OA
BRANCH  29  32
ATOM     32  N   UNL     1      34.581  -7.126 -24.592  0.00  0.00    -0.203 NA
ATOM     33  H   UNL     1      34.205  -7.286 -23.657  0.00  0.00    +0.144 HD
ATOM     34  H   UNL     1      35.592  -6.995 -24.533  0.00  0.00    +0.144 HD
ENDBRANCH  29  32
ENDBRANCH  22  29
ENDBRANCH   2  24
TORSDOF 4
ENDMDL
