MODEL 1
REMARK VINA RESULT:     -10.3      0.000      0.000
REMARK  Name = 24905153
REMARK  4 active torsions:
REMARK  status: ('A' for Active; 'I' for Inactive)
REMARK    1  A    between atoms: N_1  and  C_20
REMARK    2  A    between atoms: C_7  and  C_10
REMARK    3  A    between atoms: C_13  and  O_16
REMARK    4  A    between atoms: C_15  and  O_18
REMARK                            x       y       z     vdW  Elec       q    Type
REMARK                         _______ _______ _______ _____ _____    ______ ____
ROOT
ATOM      1  N   UNL     1      33.093 -22.329 -17.849  0.00  0.00    -0.200 N 
ATOM      2  N   UNL     1      34.268 -22.727 -17.327  0.00  0.00    -0.181 NA
ATOM      3  N   UNL     1      30.757 -22.161 -17.237  0.00  0.00    -0.232 NA
ATOM      4  N   UNL     1      30.361 -22.951 -14.964  0.00  0.00    -0.234 NA
ATOM      5  C   UNL     1      32.040 -22.471 -16.995  0.00  0.00    +0.137 C 
ATOM      6  C   UNL     1      32.563 -23.001 -15.829  0.00  0.00    +0.150 C 
ATOM      7  C   UNL     1      33.939 -23.135 -16.096  0.00  0.00    +0.090 C 
ATOM      8  C   UNL     1      31.672 -23.241 -14.789  0.00  0.00    +0.112 C 
ATOM      9  C   UNL     1      29.989 -22.436 -16.160  0.00  0.00    +0.252 C 
ATOM     10  N   UNL     1      32.108 -23.775 -13.562  0.00  0.00    -0.346 N 
ATOM     11  H   UNL     1      31.461 -23.938 -12.838  0.00  0.00    +0.143 HD
ATOM     12  H   UNL     1      33.060 -23.987 -13.428  0.00  0.00    +0.143 HD
ENDROOT
BRANCH   7  13
ATOM     13  C   UNL     1      34.959 -23.641 -15.213  0.00  0.00    +0.019 C 
ATOM     14  C   UNL     1      35.592 -22.783 -14.314  0.00  0.00    +0.041 C 
ATOM     15  C   UNL     1      35.315 -24.989 -15.258  0.00  0.00    +0.005 C 
ATOM     16  C   UNL     1      36.579 -23.271 -13.460  0.00  0.00    +0.172 C 
ATOM     17  C   UNL     1      36.303 -25.478 -14.403  0.00  0.00    +0.040 C 
ATOM     18  C   UNL     1      36.935 -24.620 -13.504  0.00  0.00    +0.172 C 
BRANCH  16  19
ATOM     19  O   UNL     1      37.190 -22.423 -12.586  0.00  0.00    -0.468 OA
ATOM     20  C   UNL     1      36.664 -22.366 -11.262  0.00  0.00    +0.253 C 
ENDBRANCH  16  19
BRANCH  18  21
ATOM     21  O   UNL     1      37.899 -25.108 -12.675  0.00  0.00    -0.468 OA
ATOM     22  C   UNL     1      39.187 -25.340 -13.245  0.00  0.00    +0.253 C 
ENDBRANCH  18  21
ENDBRANCH   7  13
BRANCH   1  23
ATOM     23  C   UNL     1      32.983 -21.801 -19.198  0.00  0.00    +0.098 C 
ATOM     24  C   UNL     1      32.206 -20.469 -19.252  0.00  0.00    +0.022 C 
ATOM     25  C   UNL     1      34.231 -21.002 -19.626  0.00  0.00    +0.022 C 
ATOM     26  C   UNL     1      33.265 -19.981 -20.262  0.00  0.00    +0.004 C 
ENDBRANCH   1  23
TORSDOF 4
ENDMDL
MODEL 2
REMARK VINA RESULT:     -10.3      6.384      9.530
REMARK  Name = 24905153
REMARK  4 active torsions:
REMARK  status: ('A' for Active; 'I' for Inactive)
REMARK    1  A    between atoms: N_1  and  C_20
REMARK    2  A    between atoms: C_7  and  C_10
REMARK    3  A    between atoms: C_13  and  O_16
REMARK    4  A    between atoms: C_15  and  O_18
REMARK                            x       y       z     vdW  Elec       q    Type
REMARK                         _______ _______ _______ _____ _____    ______ ____
ROOT
ATOM      1  N   UNL     1      33.709 -14.297 -21.723  0.00  0.00    -0.200 N 
ATOM      2  N   UNL     1      34.122 -15.286 -20.910  0.00  0.00    -0.181 NA
ATOM      3  N   UNL     1      33.171 -13.918 -24.053  0.00  0.00    -0.232 NA
ATOM      4  N   UNL     1      33.453 -15.942 -25.384  0.00  0.00    -0.234 NA
ATOM      5  C   UNL     1      33.566 -14.682 -23.023  0.00  0.00    +0.137 C 
ATOM      6  C   UNL     1      33.910 -16.022 -23.063  0.00  0.00    +0.150 C 
ATOM      7  C   UNL     1      34.243 -16.335 -21.731  0.00  0.00    +0.090 C 
ATOM      8  C   UNL     1      33.844 -16.654 -24.300  0.00  0.00    +0.112 C 
ATOM      9  C   UNL     1      33.146 -14.637 -25.196  0.00  0.00    +0.252 C 
ATOM     10  N   UNL     1      34.171 -18.015 -24.443  0.00  0.00    -0.346 N 
ATOM     11  H   UNL     1      34.118 -18.444 -25.328  0.00  0.00    +0.143 HD
ATOM     12  H   UNL     1      34.455 -18.538 -23.658  0.00  0.00    +0.143 HD
ENDROOT
BRANCH   7  13
ATOM     13  C   UNL     1      34.674 -17.606 -21.210  0.00  0.00    +0.019 C 
ATOM     14  C   UNL     1      33.742 -18.619 -20.983  0.00  0.00    +0.041 C 
ATOM     15  C   UNL     1      36.023 -17.826 -20.932  0.00  0.00    +0.005 C 
ATOM     16  C   UNL     1      34.158 -19.850 -20.478  0.00  0.00    +0.172 C 
ATOM     17  C   UNL     1      36.440 -19.058 -20.426  0.00  0.00    +0.040 C 
ATOM     18  C   UNL     1      35.507 -20.070 -20.199  0.00  0.00    +0.172 C 
BRANCH  16  19
ATOM     19  O   UNL     1      33.238 -20.832 -20.260  0.00  0.00    -0.468 OA
ATOM     20  C   UNL     1      32.294 -20.615 -19.213  0.00  0.00    +0.253 C 
ENDBRANCH  16  19
BRANCH  18  21
ATOM     21  O   UNL     1      35.926 -21.269 -19.705  0.00  0.00    -0.468 OA
ATOM     22  C   UNL     1      36.007 -21.390 -18.285  0.00  0.00    +0.253 C 
ENDBRANCH  18  21
ENDBRANCH   7  13
BRANCH   1  23
ATOM     23  C   UNL     1      33.447 -12.952 -21.238  0.00  0.00    +0.098 C 
ATOM     24  C   UNL     1      32.497 -12.163 -22.163  0.00  0.00    +0.022 C 
ATOM     25  C   UNL     1      32.325 -12.912 -20.180  0.00  0.00    +0.022 C 
ATOM     26  C   UNL     1      31.811 -11.640 -20.885  0.00  0.00    +0.004 C 
ENDBRANCH   1  23
TORSDOF 4
ENDMDL
MODEL 3
REMARK VINA RESULT:     -10.0      0.924      1.767
REMARK  Name = 24905153
REMARK  4 active torsions:
REMARK  status: ('A' for Active; 'I' for Inactive)
REMARK    1  A    between atoms: N_1  and  C_20
REMARK    2  A    between atoms: C_7  and  C_10
REMARK    3  A    between atoms: C_13  and  O_16
REMARK    4  A    between atoms: C_15  and  O_18
REMARK                            x       y       z     vdW  Elec       q    Type
REMARK                         _______ _______ _______ _____ _____    ______ ____
ROOT
ATOM      1  N   UNL     1      33.196 -22.123 -17.986  0.00  0.00    -0.200 N 
ATOM      2  N   UNL     1      34.420 -22.367 -17.484  0.00  0.00    -0.181 NA
ATOM      3  N   UNL     1      30.871 -22.192 -17.313  0.00  0.00    -0.232 NA
ATOM      4  N   UNL     1      30.623 -22.933 -15.003  0.00  0.00    -0.234 NA
ATOM      5  C   UNL     1      32.187 -22.348 -17.098  0.00  0.00    +0.137 C 
ATOM      6  C   UNL     1      32.795 -22.771 -15.929  0.00  0.00    +0.150 C 
ATOM      7  C   UNL     1      34.170 -22.761 -16.231  0.00  0.00    +0.090 C 
ATOM      8  C   UNL     1      31.963 -23.069 -14.855  0.00  0.00    +0.112 C 
ATOM      9  C   UNL     1      30.167 -22.510 -16.205  0.00  0.00    +0.252 C 
ATOM     10  N   UNL     1      32.486 -23.503 -13.624  0.00  0.00    -0.346 N 
ATOM     11  H   UNL     1      31.880 -23.709 -12.876  0.00  0.00    +0.143 HD
ATOM     12  H   UNL     1      33.459 -23.603 -13.510  0.00  0.00    +0.143 HD
ENDROOT
BRANCH   7  13
ATOM     13  C   UNL     1      35.262 -23.117 -15.361  0.00  0.00    +0.019 C 
ATOM     14  C   UNL     1      35.349 -24.409 -14.843  0.00  0.00    +0.041 C 
ATOM     15  C   UNL     1      36.232 -22.169 -15.035  0.00  0.00    +0.005 C 
ATOM     16  C   UNL     1      36.405 -24.754 -14.001  0.00  0.00    +0.172 C 
ATOM     17  C   UNL     1      37.289 -22.514 -14.192  0.00  0.00    +0.040 C 
ATOM     18  C   UNL     1      37.375 -23.807 -13.674  0.00  0.00    +0.172 C 
BRANCH  16  19
ATOM     19  O   UNL     1      36.478 -26.020 -13.501  0.00  0.00    -0.468 OA
ATOM     20  C   UNL     1      36.798 -27.062 -14.420  0.00  0.00    +0.253 C 
ENDBRANCH  16  19
BRANCH  18  21
ATOM     21  O   UNL     1      38.411 -24.132 -12.851  0.00  0.00    -0.468 OA
ATOM     22  C   UNL     1      39.569 -24.699 -13.461  0.00  0.00    +0.253 C 
ENDBRANCH  18  21
ENDBRANCH   7  13
BRANCH   1  23
ATOM     23  C   UNL     1      32.993 -21.663 -19.349  0.00  0.00    +0.098 C 
ATOM     24  C   UNL     1      32.191 -20.347 -19.419  0.00  0.00    +0.022 C 
ATOM     25  C   UNL     1      34.199 -20.867 -19.892  0.00  0.00    +0.022 C 
ATOM     26  C   UNL     1      33.177 -19.893 -20.514  0.00  0.00    +0.004 C 
ENDBRANCH   1  23
TORSDOF 4
ENDMDL
MODEL 4
REMARK VINA RESULT:      -9.8      1.182      3.468
REMARK  Name = 24905153
REMARK  4 active torsions:
REMARK  status: ('A' for Active; 'I' for Inactive)
REMARK    1  A    between atoms: N_1  and  C_20
REMARK    2  A    between atoms: C_7  and  C_10
REMARK    3  A    between atoms: C_13  and  O_16
REMARK    4  A    between atoms: C_15  and  O_18
REMARK                            x       y       z     vdW  Elec       q    Type
REMARK                         _______ _______ _______ _____ _____    ______ ____
ROOT
ATOM      1  N   UNL     1      31.631 -22.915 -16.186  0.00  0.00    -0.200 N 
ATOM      2  N   UNL     1      32.453 -23.481 -15.283  0.00  0.00    -0.181 NA
ATOM      3  N   UNL     1      31.736 -21.619 -18.228  0.00  0.00    -0.232 NA
ATOM      4  N   UNL     1      34.038 -21.178 -18.899  0.00  0.00    -0.234 NA
ATOM      5  C   UNL     1      32.287 -22.271 -17.193  0.00  0.00    +0.137 C 
ATOM      6  C   UNL     1      33.637 -22.428 -16.931  0.00  0.00    +0.150 C 
ATOM      7  C   UNL     1      33.673 -23.182 -15.742  0.00  0.00    +0.090 C 
ATOM      8  C   UNL     1      34.526 -21.852 -17.830  0.00  0.00    +0.112 C 
ATOM      9  C   UNL     1      32.693 -21.104 -19.030  0.00  0.00    +0.252 C 
ATOM     10  N   UNL     1      35.918 -21.959 -17.652  0.00  0.00    -0.346 N 
ATOM     11  H   UNL     1      36.531 -21.543 -18.301  0.00  0.00    +0.143 HD
ATOM     12  H   UNL     1      36.278 -22.448 -16.878  0.00  0.00    +0.143 HD
ENDROOT
BRANCH   7  13
ATOM     13  C   UNL     1      34.838 -23.630 -15.023  0.00  0.00    +0.019 C 
ATOM     14  C   UNL     1      35.465 -22.780 -14.112  0.00  0.00    +0.041 C 
ATOM     15  C   UNL     1      35.340 -24.914 -15.238  0.00  0.00    +0.005 C 
ATOM     16  C   UNL     1      36.593 -23.213 -13.416  0.00  0.00    +0.172 C 
ATOM     17  C   UNL     1      36.469 -25.347 -14.542  0.00  0.00    +0.040 C 
ATOM     18  C   UNL     1      37.096 -24.497 -13.631  0.00  0.00    +0.172 C 
BRANCH  16  19
ATOM     19  O   UNL     1      37.197 -22.373 -12.528  0.00  0.00    -0.468 OA
ATOM     20  C   UNL     1      36.688 -22.363 -11.196  0.00  0.00    +0.253 C 
ENDBRANCH  16  19
BRANCH  18  21
ATOM     21  O   UNL     1      38.198 -24.930 -12.957  0.00  0.00    -0.468 OA
ATOM     22  C   UNL     1      39.421 -24.991 -13.689  0.00  0.00    +0.253 C 
ENDBRANCH  18  21
ENDBRANCH   7  13
BRANCH   1  23
ATOM     23  C   UNL     1      30.185 -22.994 -16.076  0.00  0.00    +0.098 C 
ATOM     24  C   UNL     1      29.703 -24.374 -15.580  0.00  0.00    +0.022 C 
ATOM     25  C   UNL     1      29.659 -22.418 -14.744  0.00  0.00    +0.022 C 
ATOM     26  C   UNL     1      28.689 -23.617 -14.697  0.00  0.00    +0.004 C 
ENDBRANCH   1  23
TORSDOF 4
ENDMDL
MODEL 5
REMARK VINA RESULT:      -9.4      3.052      6.654
REMARK  Name = 24905153
REMARK  4 active torsions:
REMARK  status: ('A' for Active; 'I' for Inactive)
REMARK    1  A    between atoms: N_1  and  C_20
REMARK    2  A    between atoms: C_7  and  C_10
REMARK    3  A    between atoms: C_13  and  O_16
REMARK    4  A    between atoms: C_15  and  O_18
REMARK                            x       y       z     vdW  Elec       q    Type
REMARK                         _______ _______ _______ _____ _____    ______ ____
ROOT
ATOM      1  N   UNL     1      37.428 -23.910 -13.860  0.00  0.00    -0.200 N 
ATOM      2  N   UNL     1      36.941 -23.573 -15.069  0.00  0.00    -0.181 NA
ATOM      3  N   UNL     1      36.697 -24.114 -11.561  0.00  0.00    -0.232 NA
ATOM      4  N   UNL     1      34.341 -23.536 -11.309  0.00  0.00    -0.234 NA
ATOM      5  C   UNL     1      36.504 -23.839 -12.860  0.00  0.00    +0.137 C 
ATOM      6  C   UNL     1      35.326 -23.425 -13.458  0.00  0.00    +0.150 C 
ATOM      7  C   UNL     1      35.660 -23.279 -14.818  0.00  0.00    +0.090 C 
ATOM      8  C   UNL     1      34.217 -23.275 -12.632  0.00  0.00    +0.112 C 
ATOM      9  C   UNL     1      35.556 -23.934 -10.862  0.00  0.00    +0.252 C 
ATOM     10  N   UNL     1      32.975 -22.862 -13.145  0.00  0.00    -0.346 N 
ATOM     11  H   UNL     1      32.202 -22.761 -12.544  0.00  0.00    +0.143 HD
ATOM     12  H   UNL     1      32.878 -22.671 -14.107  0.00  0.00    +0.143 HD
ENDROOT
BRANCH   7  13
ATOM     13  C   UNL     1      34.796 -22.866 -15.894  0.00  0.00    +0.019 C 
ATOM     14  C   UNL     1      33.457 -23.257 -15.903  0.00  0.00    +0.041 C 
ATOM     15  C   UNL     1      35.298 -22.074 -16.928  0.00  0.00    +0.005 C 
ATOM     16  C   UNL     1      32.620 -22.859 -16.944  0.00  0.00    +0.172 C 
ATOM     17  C   UNL     1      34.460 -21.676 -17.970  0.00  0.00    +0.040 C 
ATOM     18  C   UNL     1      33.121 -22.068 -17.978  0.00  0.00    +0.172 C 
BRANCH  16  19
ATOM     19  O   UNL     1      31.315 -23.249 -16.942  0.00  0.00    -0.468 OA
ATOM     20  C   UNL     1      30.533 -22.892 -15.803  0.00  0.00    +0.253 C 
ENDBRANCH  16  19
BRANCH  18  21
ATOM     21  O   UNL     1      32.314 -21.673 -19.002  0.00  0.00    -0.468 OA
ATOM     22  C   UNL     1      32.708 -20.508 -19.725  0.00  0.00    +0.253 C 
ENDBRANCH  18  21
ENDBRANCH   7  13
BRANCH   1  23
ATOM     23  C   UNL     1      38.811 -24.309 -13.665  0.00  0.00    +0.098 C 
ATOM     24  C   UNL     1      38.962 -25.824 -13.419  0.00  0.00    +0.022 C 
ATOM     25  C   UNL     1      39.559 -24.529 -14.997  0.00  0.00    +0.022 C 
ATOM     26  C   UNL     1      40.194 -25.774 -14.346  0.00  0.00    +0.004 C 
ENDBRANCH   1  23
TORSDOF 4
ENDMDL
MODEL 6
REMARK VINA RESULT:      -9.1      3.282      5.430
REMARK  Name = 24905153
REMARK  4 active torsions:
REMARK  status: ('A' for Active; 'I' for Inactive)
REMARK    1  A    between atoms: N_1  and  C_20
REMARK    2  A    between atoms: C_7  and  C_10
REMARK    3  A    between atoms: C_13  and  O_16
REMARK    4  A    between atoms: C_15  and  O_18
REMARK                            x       y       z     vdW  Elec       q    Type
REMARK                         _______ _______ _______ _____ _____    ______ ____
ROOT
ATOM      1  N   UNL     1      34.489 -21.895 -18.074  0.00  0.00    -0.200 N 
ATOM      2  N   UNL     1      33.283 -22.317 -17.652  0.00  0.00    -0.181 NA
ATOM      3  N   UNL     1      36.719 -21.507 -17.215  0.00  0.00    -0.232 NA
ATOM      4  N   UNL     1      36.874 -22.033 -14.839  0.00  0.00    -0.234 NA
ATOM      5  C   UNL     1      35.435 -21.878 -17.093  0.00  0.00    +0.137 C 
ATOM      6  C   UNL     1      34.802 -22.320 -15.944  0.00  0.00    +0.150 C 
ATOM      7  C   UNL     1      33.479 -22.574 -16.354  0.00  0.00    +0.090 C 
ATOM      8  C   UNL     1      35.569 -22.392 -14.787  0.00  0.00    +0.112 C 
ATOM      9  C   UNL     1      37.362 -21.618 -16.032  0.00  0.00    +0.252 C 
ATOM     10  N   UNL     1      35.018 -22.832 -13.570  0.00  0.00    -0.346 N 
ATOM     11  H   UNL     1      35.578 -22.875 -12.762  0.00  0.00    +0.143 HD
ATOM     12  H   UNL     1      34.069 -23.095 -13.527  0.00  0.00    +0.143 HD
ENDROOT
BRANCH   7  13
ATOM     13  C   UNL     1      32.388 -23.057 -15.547  0.00  0.00    +0.019 C 
ATOM     14  C   UNL     1      31.128 -22.467 -15.652  0.00  0.00    +0.041 C 
ATOM     15  C   UNL     1      32.590 -24.114 -14.660  0.00  0.00    +0.005 C 
ATOM     16  C   UNL     1      30.072 -22.933 -14.871  0.00  0.00    +0.172 C 
ATOM     17  C   UNL     1      31.533 -24.581 -13.878  0.00  0.00    +0.040 C 
ATOM     18  C   UNL     1      30.274 -23.991 -13.984  0.00  0.00    +0.172 C 
BRANCH  16  19
ATOM     19  O   UNL     1      28.846 -22.348 -14.982  0.00  0.00    -0.468 OA
ATOM     20  C   UNL     1      28.162 -22.506 -16.224  0.00  0.00    +0.253 C 
ENDBRANCH  16  19
BRANCH  18  21
ATOM     21  O   UNL     1      29.249 -24.454 -13.214  0.00  0.00    -0.468 OA
ATOM     22  C   UNL     1      28.391 -25.433 -13.800  0.00  0.00    +0.253 C 
ENDBRANCH  18  21
ENDBRANCH   7  13
BRANCH   1  23
ATOM     23  C   UNL     1      34.736 -21.502 -19.450  0.00  0.00    +0.098 C 
ATOM     24  C   UNL     1      33.670 -20.524 -19.988  0.00  0.00    +0.022 C 
ATOM     25  C   UNL     1      35.746 -20.341 -19.563  0.00  0.00    +0.022 C 
ATOM     26  C   UNL     1      34.827 -19.748 -20.650  0.00  0.00    +0.004 C 
ENDBRANCH   1  23
TORSDOF 4
ENDMDL
MODEL 7
REMARK VINA RESULT:      -9.0     10.884     14.244
REMARK  Name = 24905153
REMARK  4 active torsions:
REMARK  status: ('A' for Active; 'I' for Inactive)
REMARK    1  A    between atoms: N_1  and  C_20
REMARK    2  A    between atoms: C_7  and  C_10
REMARK    3  A    between atoms: C_13  and  O_16
REMARK    4  A    between atoms: C_15  and  O_18
REMARK                            x       y       z     vdW  Elec       q    Type
REMARK                         _______ _______ _______ _____ _____    ______ ____
ROOT
ATOM      1  N   UNL     1      32.543  -8.861 -23.039  0.00  0.00    -0.200 N 
ATOM      2  N   UNL     1      33.003  -9.871 -23.800  0.00  0.00    -0.181 NA
ATOM      3  N   UNL     1      31.371  -8.500 -20.952  0.00  0.00    -0.232 NA
ATOM      4  N   UNL     1      30.834 -10.606 -19.844  0.00  0.00    -0.234 NA
ATOM      5  C   UNL     1      31.925  -9.275 -21.897  0.00  0.00    +0.137 C 
ATOM      6  C   UNL     1      31.984 -10.658 -21.912  0.00  0.00    +0.150 C 
ATOM      7  C   UNL     1      32.660 -10.963 -23.108  0.00  0.00    +0.090 C 
ATOM      8  C   UNL     1      31.411 -11.326 -20.835  0.00  0.00    +0.112 C 
ATOM      9  C   UNL     1      30.849  -9.257 -19.962  0.00  0.00    +0.252 C 
ATOM     10  N   UNL     1      31.423 -12.731 -20.757  0.00  0.00    -0.346 N 
ATOM     11  H   UNL     1      31.012 -13.185 -19.986  0.00  0.00    +0.143 HD
ATOM     12  H   UNL     1      31.842 -13.260 -21.474  0.00  0.00    +0.143 HD
ENDROOT
BRANCH   7  13
ATOM     13  C   UNL     1      32.993 -12.268 -23.619  0.00  0.00    +0.019 C 
ATOM     14  C   UNL     1      33.710 -13.165 -22.827  0.00  0.00    +0.041 C 
ATOM     15  C   UNL     1      32.600 -12.636 -24.906  0.00  0.00    +0.005 C 
ATOM     16  C   UNL     1      34.034 -14.429 -23.321  0.00  0.00    +0.172 C 
ATOM     17  C   UNL     1      32.924 -13.900 -25.400  0.00  0.00    +0.040 C 
ATOM     18  C   UNL     1      33.641 -14.796 -24.608  0.00  0.00    +0.172 C 
BRANCH  16  19
ATOM     19  O   UNL     1      34.735 -15.295 -22.537  0.00  0.00    -0.468 OA
ATOM     20  C   UNL     1      34.236 -15.530 -21.222  0.00  0.00    +0.253 C 
ENDBRANCH  16  19
BRANCH  18  21
ATOM     21  O   UNL     1      33.952 -16.027 -25.101  0.00  0.00    -0.468 OA
ATOM     22  C   UNL     1      33.093 -17.107 -24.736  0.00  0.00    +0.253 C 
ENDBRANCH  18  21
ENDBRANCH   7  13
BRANCH   1  23
ATOM     23  C   UNL     1      32.703  -7.468 -23.420  0.00  0.00    +0.098 C 
ATOM     24  C   UNL     1      33.233  -6.594 -22.264  0.00  0.00    +0.022 C 
ATOM     25  C   UNL     1      34.044  -7.199 -24.135  0.00  0.00    +0.022 C 
ATOM     26  C   UNL     1      34.139  -5.903 -23.303  0.00  0.00    +0.004 C 
ENDBRANCH   1  23
TORSDOF 4
ENDMDL
MODEL 8
REMARK VINA RESULT:      -8.6      2.666      5.893
REMARK  Name = 24905153
REMARK  4 active torsions:
REMARK  status: ('A' for Active; 'I' for Inactive)
REMARK    1  A    between atoms: N_1  and  C_20
REMARK    2  A    between atoms: C_7  and  C_10
REMARK    3  A    between atoms: C_13  and  O_16
REMARK    4  A    between atoms: C_15  and  O_18
REMARK                            x       y       z     vdW  Elec       q    Type
REMARK                         _______ _______ _______ _____ _____    ______ ____
ROOT
ATOM      1  N   UNL     1      34.043 -23.952 -13.425  0.00  0.00    -0.200 N 
ATOM      2  N   UNL     1      34.691 -23.457 -14.496  0.00  0.00    -0.181 NA
ATOM      3  N   UNL     1      31.785 -24.350 -12.647  0.00  0.00    -0.232 NA
ATOM      4  N   UNL     1      30.128 -23.648 -14.293  0.00  0.00    -0.234 NA
ATOM      5  C   UNL     1      32.686 -23.926 -13.547  0.00  0.00    +0.137 C 
ATOM      6  C   UNL     1      32.426 -23.374 -14.790  0.00  0.00    +0.150 C 
ATOM      7  C   UNL     1      33.700 -23.107 -15.324  0.00  0.00    +0.090 C 
ATOM      8  C   UNL     1      31.091 -23.240 -15.154  0.00  0.00    +0.112 C 
ATOM      9  C   UNL     1      30.529 -24.170 -13.110  0.00  0.00    +0.252 C 
ATOM     10  N   UNL     1      30.724 -22.693 -16.398  0.00  0.00    -0.346 N 
ATOM     11  H   UNL     1      29.773 -22.606 -16.637  0.00  0.00    +0.143 HD
ATOM     12  H   UNL     1      31.419 -22.396 -17.029  0.00  0.00    +0.143 HD
ENDROOT
BRANCH   7  13
ATOM     13  C   UNL     1      34.011 -22.526 -16.605  0.00  0.00    +0.019 C 
ATOM     14  C   UNL     1      35.156 -21.744 -16.757  0.00  0.00    +0.041 C 
ATOM     15  C   UNL     1      33.166 -22.743 -17.694  0.00  0.00    +0.005 C 
ATOM     16  C   UNL     1      35.457 -21.180 -17.996  0.00  0.00    +0.172 C 
ATOM     17  C   UNL     1      33.467 -22.179 -18.934  0.00  0.00    +0.040 C 
ATOM     18  C   UNL     1      34.612 -21.398 -19.085  0.00  0.00    +0.172 C 
BRANCH  16  19
ATOM     19  O   UNL     1      36.578 -20.418 -18.132  0.00  0.00    -0.468 OA
ATOM     20  C   UNL     1      37.238 -20.015 -16.934  0.00  0.00    +0.253 C 
ENDBRANCH  16  19
BRANCH  18  21
ATOM     21  O   UNL     1      34.895 -20.852 -20.301  0.00  0.00    -0.468 OA
ATOM     22  C   UNL     1      34.221 -19.641 -20.640  0.00  0.00    +0.253 C 
ENDBRANCH  18  21
ENDBRANCH   7  13
BRANCH   1  23
ATOM     23  C   UNL     1      34.746 -24.459 -12.259  0.00  0.00    +0.098 C 
ATOM     24  C   UNL     1      36.206 -24.851 -12.571  0.00  0.00    +0.022 C 
ATOM     25  C   UNL     1      35.319 -23.332 -11.375  0.00  0.00    +0.022 C 
ATOM     26  C   UNL     1      36.588 -24.197 -11.227  0.00  0.00    +0.004 C 
ENDBRANCH   1  23
TORSDOF 4
ENDMDL
MODEL 9
REMARK VINA RESULT:      -8.6     12.882     16.011
REMARK  Name = 24905153
REMARK  4 active torsions:
REMARK  status: ('A' for Active; 'I' for Inactive)
REMARK    1  A    between atoms: N_1  and  C_20
REMARK    2  A    between atoms: C_7  and  C_10
REMARK    3  A    between atoms: C_13  and  O_16
REMARK    4  A    between atoms: C_15  and  O_18
REMARK                            x       y       z     vdW  Elec       q    Type
REMARK                         _______ _______ _______ _____ _____    ______ ____
ROOT
ATOM      1  N   UNL     1      31.388  -6.917 -23.342  0.00  0.00    -0.200 N 
ATOM      2  N   UNL     1      31.520  -8.248 -23.488  0.00  0.00    -0.181 NA
ATOM      3  N   UNL     1      31.443  -5.230 -21.607  0.00  0.00    -0.232 NA
ATOM      4  N   UNL     1      31.869  -6.206 -19.413  0.00  0.00    -0.234 NA
ATOM      5  C   UNL     1      31.523  -6.492 -22.054  0.00  0.00    +0.137 C 
ATOM      6  C   UNL     1      31.762  -7.629 -21.301  0.00  0.00    +0.150 C 
ATOM      7  C   UNL     1      31.748  -8.677 -22.241  0.00  0.00    +0.090 C 
ATOM      8  C   UNL     1      31.938  -7.455 -19.933  0.00  0.00    +0.112 C 
ATOM      9  C   UNL     1      31.629  -5.185 -20.270  0.00  0.00    +0.252 C 
ATOM     10  N   UNL     1      32.188  -8.548 -19.083  0.00  0.00    -0.346 N 
ATOM     11  H   UNL     1      32.310  -8.404 -18.117  0.00  0.00    +0.143 HD
ATOM     12  H   UNL     1      32.240  -9.459 -19.456  0.00  0.00    +0.143 HD
ENDROOT
BRANCH   7  13
ATOM     13  C   UNL     1      31.945 -10.082 -21.992  0.00  0.00    +0.019 C 
ATOM     14  C   UNL     1      32.694 -10.850 -22.885  0.00  0.00    +0.041 C 
ATOM     15  C   UNL     1      31.388 -10.676 -20.860  0.00  0.00    +0.005 C 
ATOM     16  C   UNL     1      32.886 -12.210 -22.645  0.00  0.00    +0.172 C 
ATOM     17  C   UNL     1      31.579 -12.037 -20.620  0.00  0.00    +0.040 C 
ATOM     18  C   UNL     1      32.328 -12.804 -21.513  0.00  0.00    +0.172 C 
BRANCH  16  19
ATOM     19  O   UNL     1      33.619 -12.949 -23.524  0.00  0.00    -0.468 OA
ATOM     20  C   UNL     1      32.929 -13.494 -24.647  0.00  0.00    +0.253 C 
ENDBRANCH  16  19
BRANCH  18  21
ATOM     21  O   UNL     1      32.507 -14.132 -21.269  0.00  0.00    -0.468 OA
ATOM     22  C   UNL     1      33.736 -14.517 -20.654  0.00  0.00    +0.253 C 
ENDBRANCH  18  21
ENDBRANCH   7  13
BRANCH   1  23
ATOM     23  C   UNL     1      31.125  -6.036 -24.467  0.00  0.00    +0.098 C 
ATOM     24  C   UNL     1      32.372  -5.236 -24.897  0.00  0.00    +0.022 C 
ATOM     25  C   UNL     1      31.218  -6.763 -25.825  0.00  0.00    +0.022 C 
ATOM     26  C   UNL     1      31.954  -5.516 -26.356  0.00  0.00    +0.004 C 
ENDBRANCH   1  23
TORSDOF 4
ENDMDL
