MODEL 1
REMARK VINA RESULT:     -13.4      0.000      0.000
REMARK  Name = 24808489
REMARK  4 active torsions:
REMARK  status: ('A' for Active; 'I' for Inactive)
REMARK    1  A    between atoms: N_1  and  C_10
REMARK    2  A    between atoms: N_1  and  C_21
REMARK    3  A    between atoms: C_18  and  C_24
REMARK    4  A    between atoms: C_24  and  N_25
REMARK                            x       y       z     vdW  Elec       q    Type
REMARK                         _______ _______ _______ _____ _____    ______ ____
ROOT
ATOM      1  N   UNL     1      34.166 -21.950 -18.533  0.00  0.00    -0.311 N 
ATOM      2  H   UNL     1      34.888 -22.604 -18.397  0.00  0.00    +0.152 HD
ENDROOT
BRANCH   1  10
ATOM      3 BR   UNL     1      27.568 -22.464 -16.491  0.00  0.00    -0.049 Br
ATOM      4  O   UNL     1      35.351 -22.692 -16.414  0.00  0.00    -0.270 OA
ATOM      5  O   UNL     1      33.038 -23.891 -12.636  0.00  0.00    -0.270 OA
ATOM      6  N   UNL     1      34.157 -23.283 -14.548  0.00  0.00    -0.248 N 
ATOM      7  C   UNL     1      32.956 -22.586 -16.537  0.00  0.00    +0.068 C 
ATOM      8  C   UNL     1      31.684 -22.796 -15.813  0.00  0.00    +0.010 C 
ATOM      9  C   UNL     1      31.719 -23.242 -14.481  0.00  0.00    +0.054 C 
ATOM     10  C   UNL     1      33.045 -22.162 -17.811  0.00  0.00    +0.066 C 
ATOM     11  C   UNL     1      34.266 -22.847 -15.861  0.00  0.00    +0.253 C 
ATOM     12  C   UNL     1      30.424 -22.569 -16.393  0.00  0.00    +0.007 C 
ATOM     13  C   UNL     1      33.007 -23.503 -13.800  0.00  0.00    +0.252 C 
ATOM     14  C   UNL     1      30.532 -23.453 -13.758  0.00  0.00    +0.005 C 
ATOM     15  C   UNL     1      29.243 -22.780 -15.673  0.00  0.00    +0.035 C 
ATOM     16  C   UNL     1      29.298 -23.222 -14.357  0.00  0.00    +0.007 C 
ATOM     17  H   UNL     1      35.008 -23.461 -14.086  0.00  0.00    +0.158 HD
ENDBRANCH   1  10
BRANCH   1  21
ATOM     18  C   UNL     1      34.989 -18.879 -21.275  0.00  0.00    -0.043 C 
ATOM     19  C   UNL     1      36.025 -19.449 -20.533  0.00  0.00    -0.005 C 
ATOM     20  C   UNL     1      33.681 -19.330 -21.105  0.00  0.00    -0.005 C 
ATOM     21  C   UNL     1      34.442 -20.919 -19.452  0.00  0.00    +0.048 C 
ATOM     22  C   UNL     1      35.751 -20.468 -19.622  0.00  0.00    +0.014 C 
ATOM     23  C   UNL     1      33.407 -20.350 -20.194  0.00  0.00    +0.014 C 
BRANCH  18  24
ATOM     24  C   UNL     1      35.282 -17.789 -22.248  0.00  0.00    -0.050 C 
BRANCH  24  25
ATOM     25  N   UNL     1      34.366 -16.666 -22.116  0.00  0.00    +0.390 N 
ATOM     26  C   UNL     1      34.480 -16.001 -20.818  0.00  0.00    -0.077 C 
ATOM     27  C   UNL     1      34.621 -15.618 -23.104  0.00  0.00    -0.077 C 
ATOM     28  C   UNL     1      33.757 -14.682 -21.045  0.00  0.00    -0.025 C 
ATOM     29  C   UNL     1      33.847 -14.431 -22.548  0.00  0.00    -0.025 C 
ATOM     30  H   UNL     1      33.444 -17.084 -22.242  0.00  0.00    -0.079 HD
ENDBRANCH  24  25
ENDBRANCH  18  24
ENDBRANCH   1  21
TORSDOF 4
ENDMDL
MODEL 2
REMARK VINA RESULT:     -12.7      2.560      3.314
REMARK  Name = 24808489
REMARK  4 active torsions:
REMARK  status: ('A' for Active; 'I' for Inactive)
REMARK    1  A    between atoms: N_1  and  C_10
REMARK    2  A    between atoms: N_1  and  C_21
REMARK    3  A    between atoms: C_18  and  C_24
REMARK    4  A    between atoms: C_24  and  N_25
REMARK                            x       y       z     vdW  Elec       q    Type
REMARK                         _______ _______ _______ _____ _____    ______ ____
ROOT
ATOM      1  N   UNL     1      33.165 -22.066 -18.366  0.00  0.00    -0.311 N 
ATOM      2  H   UNL     1      32.288 -22.453 -18.584  0.00  0.00    +0.152 HD
ENDROOT
BRANCH   1  10
ATOM      3 BR   UNL     1      37.647 -24.156 -13.517  0.00  0.00    -0.049 Br
ATOM      4  O   UNL     1      30.995 -22.189 -17.055  0.00  0.00    -0.270 OA
ATOM      5  O   UNL     1      30.886 -23.542 -12.671  0.00  0.00    -0.270 OA
ATOM      6  N   UNL     1      30.985 -22.870 -14.865  0.00  0.00    -0.248 N 
ATOM      7  C   UNL     1      33.097 -22.776 -16.055  0.00  0.00    +0.068 C 
ATOM      8  C   UNL     1      33.780 -23.245 -14.829  0.00  0.00    +0.010 C 
ATOM      9  C   UNL     1      33.019 -23.506 -13.677  0.00  0.00    +0.054 C 
ATOM     10  C   UNL     1      33.721 -22.497 -17.213  0.00  0.00    +0.066 C 
ATOM     11  C   UNL     1      31.614 -22.578 -16.067  0.00  0.00    +0.253 C 
ATOM     12  C   UNL     1      35.169 -23.450 -14.754  0.00  0.00    +0.007 C 
ATOM     13  C   UNL     1      31.551 -23.315 -13.677  0.00  0.00    +0.252 C 
ATOM     14  C   UNL     1      33.630 -23.952 -12.494  0.00  0.00    +0.005 C 
ATOM     15  C   UNL     1      35.776 -23.895 -13.576  0.00  0.00    +0.035 C 
ATOM     16  C   UNL     1      35.007 -24.146 -12.447  0.00  0.00    +0.007 C 
ATOM     17  H   UNL     1      30.008 -22.745 -14.853  0.00  0.00    +0.158 HD
ENDBRANCH   1  10
BRANCH   1  21
ATOM     18  C   UNL     1      34.676 -19.304 -21.143  0.00  0.00    -0.043 C 
ATOM     19  C   UNL     1      35.551 -20.033 -20.337  0.00  0.00    -0.005 C 
ATOM     20  C   UNL     1      33.300 -19.493 -21.027  0.00  0.00    -0.005 C 
ATOM     21  C   UNL     1      33.672 -21.139 -19.297  0.00  0.00    +0.048 C 
ATOM     22  C   UNL     1      35.049 -20.950 -19.414  0.00  0.00    +0.014 C 
ATOM     23  C   UNL     1      32.797 -20.411 -20.104  0.00  0.00    +0.014 C 
BRANCH  18  24
ATOM     24  C   UNL     1      35.214 -18.323 -22.129  0.00  0.00    -0.050 C 
BRANCH  24  25
ATOM     25  N   UNL     1      34.369 -17.146 -22.258  0.00  0.00    +0.390 N 
ATOM     26  C   UNL     1      34.650 -16.141 -21.232  0.00  0.00    -0.077 C 
ATOM     27  C   UNL     1      34.565 -16.454 -23.531  0.00  0.00    -0.077 C 
ATOM     28  C   UNL     1      33.968 -14.896 -21.778  0.00  0.00    -0.025 C 
ATOM     29  C   UNL     1      33.909 -15.102 -23.288  0.00  0.00    -0.025 C 
ATOM     30  H   UNL     1      33.420 -17.512 -22.172  0.00  0.00    -0.079 HD
ENDBRANCH  24  25
ENDBRANCH  18  24
ENDBRANCH   1  21
TORSDOF 4
ENDMDL
MODEL 3
REMARK VINA RESULT:     -12.7      1.176      1.712
REMARK  Name = 24808489
REMARK  4 active torsions:
REMARK  status: ('A' for Active; 'I' for Inactive)
REMARK    1  A    between atoms: N_1  and  C_10
REMARK    2  A    between atoms: N_1  and  C_21
REMARK    3  A    between atoms: C_18  and  C_24
REMARK    4  A    between atoms: C_24  and  N_25
REMARK                            x       y       z     vdW  Elec       q    Type
REMARK                         _______ _______ _______ _____ _____    ______ ____
ROOT
ATOM      1  N   UNL     1      34.875 -21.463 -19.409  0.00  0.00    -0.311 N 
ATOM      2  H   UNL     1      35.600 -22.112 -19.550  0.00  0.00    +0.152 HD
ENDROOT
BRANCH   1  10
ATOM      3 BR   UNL     1      28.927 -22.970 -16.197  0.00  0.00    -0.049 Br
ATOM      4  O   UNL     1      36.517 -21.828 -17.508  0.00  0.00    -0.270 OA
ATOM      5  O   UNL     1      35.137 -23.132 -13.330  0.00  0.00    -0.270 OA
ATOM      6  N   UNL     1      35.785 -22.480 -15.435  0.00  0.00    -0.248 N 
ATOM      7  C   UNL     1      34.158 -22.152 -17.204  0.00  0.00    +0.068 C 
ATOM      8  C   UNL     1      33.087 -22.527 -16.255  0.00  0.00    +0.010 C 
ATOM      9  C   UNL     1      33.428 -22.861 -14.933  0.00  0.00    +0.054 C 
ATOM     10  C   UNL     1      33.950 -21.814 -18.489  0.00  0.00    +0.066 C 
ATOM     11  C   UNL     1      35.588 -22.130 -16.763  0.00  0.00    +0.253 C 
ATOM     12  C   UNL     1      31.727 -22.568 -16.608  0.00  0.00    +0.007 C 
ATOM     13  C   UNL     1      34.838 -22.842 -14.484  0.00  0.00    +0.252 C 
ATOM     14  C   UNL     1      32.441 -23.223 -14.002  0.00  0.00    +0.005 C 
ATOM     15  C   UNL     1      30.745 -22.928 -15.680  0.00  0.00    +0.035 C 
ATOM     16  C   UNL     1      31.101 -23.255 -14.378  0.00  0.00    +0.007 C 
ATOM     17  H   UNL     1      36.720 -22.472 -15.126  0.00  0.00    +0.158 HD
ENDBRANCH   1  10
BRANCH   1  21
ATOM     18  C   UNL     1      35.070 -17.977 -21.741  0.00  0.00    -0.043 C 
ATOM     19  C   UNL     1      33.890 -18.721 -21.694  0.00  0.00    -0.005 C 
ATOM     20  C   UNL     1      36.184 -18.392 -21.013  0.00  0.00    -0.005 C 
ATOM     21  C   UNL     1      34.941 -20.294 -20.192  0.00  0.00    +0.048 C 
ATOM     22  C   UNL     1      33.826 -19.879 -20.920  0.00  0.00    +0.014 C 
ATOM     23  C   UNL     1      36.120 -19.550 -20.238  0.00  0.00    +0.014 C 
BRANCH  18  24
ATOM     24  C   UNL     1      35.138 -16.740 -22.570  0.00  0.00    -0.050 C 
BRANCH  24  25
ATOM     25  N   UNL     1      34.108 -15.776 -22.214  0.00  0.00    +0.390 N 
ATOM     26  C   UNL     1      34.211 -15.336 -20.823  0.00  0.00    -0.077 C 
ATOM     27  C   UNL     1      34.193 -14.550 -23.007  0.00  0.00    -0.077 C 
ATOM     28  C   UNL     1      33.332 -14.094 -20.791  0.00  0.00    -0.025 C 
ATOM     29  C   UNL     1      33.318 -13.579 -22.227  0.00  0.00    -0.025 C 
ATOM     30  H   UNL     1      33.234 -16.274 -22.385  0.00  0.00    -0.079 HD
ENDBRANCH  24  25
ENDBRANCH  18  24
ENDBRANCH   1  21
TORSDOF 4
ENDMDL
MODEL 4
REMARK VINA RESULT:     -12.4      3.303      4.502
REMARK  Name = 24808489
REMARK  4 active torsions:
REMARK  status: ('A' for Active; 'I' for Inactive)
REMARK    1  A    between atoms: N_1  and  C_10
REMARK    2  A    between atoms: N_1  and  C_21
REMARK    3  A    between atoms: C_18  and  C_24
REMARK    4  A    between atoms: C_24  and  N_25
REMARK                            x       y       z     vdW  Elec       q    Type
REMARK                         _______ _______ _______ _____ _____    ______ ____
ROOT
ATOM      1  N   UNL     1      34.118 -22.142 -17.152  0.00  0.00    -0.311 N 
ATOM      2  H   UNL     1      33.191 -22.213 -16.829  0.00  0.00    +0.152 HD
ENDROOT
BRANCH   1  10
ATOM      3 BR   UNL     1      39.980 -24.989 -14.807  0.00  0.00    -0.049 Br
ATOM      4  O   UNL     1      32.645 -22.390 -15.099  0.00  0.00    -0.270 OA
ATOM      5  O   UNL     1      34.182 -24.331 -11.235  0.00  0.00    -0.270 OA
ATOM      6  N   UNL     1      33.453 -23.366 -13.188  0.00  0.00    -0.248 N 
ATOM      7  C   UNL     1      34.919 -23.161 -15.110  0.00  0.00    +0.068 C 
ATOM      8  C   UNL     1      35.993 -23.812 -14.328  0.00  0.00    +0.010 C 
ATOM      9  C   UNL     1      35.735 -24.209 -13.006  0.00  0.00    +0.054 C 
ATOM     10  C   UNL     1      35.051 -22.741 -16.380  0.00  0.00    +0.066 C 
ATOM     11  C   UNL     1      33.573 -22.927 -14.498  0.00  0.00    +0.253 C 
ATOM     12  C   UNL     1      37.277 -24.059 -14.846  0.00  0.00    +0.007 C 
ATOM     13  C   UNL     1      34.408 -23.984 -12.390  0.00  0.00    +0.252 C 
ATOM     14  C   UNL     1      36.729 -24.829 -12.231  0.00  0.00    +0.005 C 
ATOM     15  C   UNL     1      38.266 -24.676 -14.073  0.00  0.00    +0.035 C 
ATOM     16  C   UNL     1      37.992 -25.062 -12.767  0.00  0.00    +0.007 C 
ATOM     17  H   UNL     1      32.574 -23.220 -12.767  0.00  0.00    +0.158 HD
ENDBRANCH   1  10
BRANCH   1  21
ATOM     18  C   UNL     1      34.636 -20.018 -20.736  0.00  0.00    -0.043 C 
ATOM     19  C   UNL     1      33.352 -20.324 -20.286  0.00  0.00    -0.005 C 
ATOM     20  C   UNL     1      35.748 -20.417 -19.995  0.00  0.00    -0.005 C 
ATOM     21  C   UNL     1      34.292 -21.430 -18.355  0.00  0.00    +0.048 C 
ATOM     22  C   UNL     1      33.180 -21.030 -19.095  0.00  0.00    +0.014 C 
ATOM     23  C   UNL     1      35.577 -21.123 -18.805  0.00  0.00    +0.014 C 
BRANCH  18  24
ATOM     24  C   UNL     1      34.819 -19.263 -22.009  0.00  0.00    -0.050 C 
BRANCH  24  25
ATOM     25  N   UNL     1      34.247 -17.927 -21.949  0.00  0.00    +0.390 N 
ATOM     26  C   UNL     1      34.883 -17.091 -20.931  0.00  0.00    -0.077 C 
ATOM     27  C   UNL     1      34.414 -17.192 -23.203  0.00  0.00    -0.077 C 
ATOM     28  C   UNL     1      34.425 -15.689 -21.305  0.00  0.00    -0.025 C 
ATOM     29  C   UNL     1      34.114 -15.756 -22.797  0.00  0.00    -0.025 C 
ATOM     30  H   UNL     1      33.262 -18.089 -21.738  0.00  0.00    -0.079 HD
ENDBRANCH  24  25
ENDBRANCH  18  24
ENDBRANCH   1  21
TORSDOF 4
ENDMDL
MODEL 5
REMARK VINA RESULT:     -12.4      7.635     13.051
REMARK  Name = 24808489
REMARK  4 active torsions:
REMARK  status: ('A' for Active; 'I' for Inactive)
REMARK    1  A    between atoms: N_1  and  C_10
REMARK    2  A    between atoms: N_1  and  C_21
REMARK    3  A    between atoms: C_18  and  C_24
REMARK    4  A    between atoms: C_24  and  N_25
REMARK                            x       y       z     vdW  Elec       q    Type
REMARK                         _______ _______ _______ _____ _____    ______ ____
ROOT
ATOM      1  N   UNL     1      31.451 -11.507 -21.868  0.00  0.00    -0.311 N 
ATOM      2  H   UNL     1      30.673 -11.690 -21.294  0.00  0.00    +0.152 HD
ENDROOT
BRANCH   1  10
ATOM      3 BR   UNL     1      31.928  -5.869 -25.862  0.00  0.00    -0.049 Br
ATOM      4  O   UNL     1      31.569 -10.439 -19.568  0.00  0.00    -0.270 OA
ATOM      5  O   UNL     1      31.995  -5.902 -19.021  0.00  0.00    -0.270 OA
ATOM      6  N   UNL     1      31.782  -8.167 -19.339  0.00  0.00    -0.248 N 
ATOM      7  C   UNL     1      31.673  -9.117 -21.568  0.00  0.00    +0.068 C 
ATOM      8  C   UNL     1      31.792  -7.753 -22.128  0.00  0.00    +0.010 C 
ATOM      9  C   UNL     1      31.902  -6.659 -21.253  0.00  0.00    +0.054 C 
ATOM     10  C   UNL     1      31.563 -10.235 -22.308  0.00  0.00    +0.066 C 
ATOM     11  C   UNL     1      31.667  -9.330 -20.087  0.00  0.00    +0.253 C 
ATOM     12  C   UNL     1      31.804  -7.487 -23.509  0.00  0.00    +0.007 C 
ATOM     13  C   UNL     1      31.898  -6.857 -19.786  0.00  0.00    +0.252 C 
ATOM     14  C   UNL     1      32.017  -5.348 -21.745  0.00  0.00    +0.005 C 
ATOM     15  C   UNL     1      31.918  -6.182 -23.997  0.00  0.00    +0.035 C 
ATOM     16  C   UNL     1      32.025  -5.114 -23.116  0.00  0.00    +0.007 C 
ATOM     17  H   UNL     1      31.778  -8.287 -18.361  0.00  0.00    +0.158 HD
ENDBRANCH   1  10
BRANCH   1  21
ATOM     18  C   UNL     1      33.971 -14.780 -22.614  0.00  0.00    -0.043 C 
ATOM     19  C   UNL     1      33.352 -14.119 -23.676  0.00  0.00    -0.005 C 
ATOM     20  C   UNL     1      33.752 -14.353 -21.305  0.00  0.00    -0.005 C 
ATOM     21  C   UNL     1      32.296 -12.605 -22.118  0.00  0.00    +0.048 C 
ATOM     22  C   UNL     1      32.514 -13.032 -23.427  0.00  0.00    +0.014 C 
ATOM     23  C   UNL     1      32.915 -13.266 -21.056  0.00  0.00    +0.014 C 
BRANCH  18  24
ATOM     24  C   UNL     1      34.866 -15.942 -22.880  0.00  0.00    -0.050 C 
BRANCH  24  25
ATOM     25  N   UNL     1      34.511 -17.109 -22.085  0.00  0.00    +0.390 N 
ATOM     26  C   UNL     1      34.040 -18.223 -22.908  0.00  0.00    -0.077 C 
ATOM     27  C   UNL     1      35.650 -17.643 -21.338  0.00  0.00    -0.077 C 
ATOM     28  C   UNL     1      34.109 -19.406 -21.953  0.00  0.00    -0.025 C 
ATOM     29  C   UNL     1      35.165 -19.023 -20.920  0.00  0.00    -0.025 C 
ATOM     30  H   UNL     1      33.779 -16.769 -21.461  0.00  0.00    -0.079 HD
ENDBRANCH  24  25
ENDBRANCH  18  24
ENDBRANCH   1  21
TORSDOF 4
ENDMDL
MODEL 6
REMARK VINA RESULT:     -12.4      3.995      9.708
REMARK  Name = 24808489
REMARK  4 active torsions:
REMARK  status: ('A' for Active; 'I' for Inactive)
REMARK    1  A    between atoms: N_1  and  C_10
REMARK    2  A    between atoms: N_1  and  C_21
REMARK    3  A    between atoms: C_18  and  C_24
REMARK    4  A    between atoms: C_24  and  N_25
REMARK                            x       y       z     vdW  Elec       q    Type
REMARK                         _______ _______ _______ _____ _____    ______ ____
ROOT
ATOM      1  N   UNL     1      35.286 -17.946 -21.052  0.00  0.00    -0.311 N 
ATOM      2  H   UNL     1      36.186 -18.011 -21.445  0.00  0.00    +0.152 HD
ENDROOT
BRANCH   1  10
ATOM      3 BR   UNL     1      32.327 -11.795 -19.878  0.00  0.00    -0.049 Br
ATOM      4  O   UNL     1      35.081 -18.067 -23.580  0.00  0.00    -0.270 OA
ATOM      5  O   UNL     1      33.130 -14.704 -26.018  0.00  0.00    -0.270 OA
ATOM      6  N   UNL     1      34.099 -16.364 -24.760  0.00  0.00    -0.248 N 
ATOM      7  C   UNL     1      34.262 -16.178 -22.347  0.00  0.00    +0.068 C 
ATOM      8  C   UNL     1      33.593 -14.861 -22.429  0.00  0.00    +0.010 C 
ATOM      9  C   UNL     1      33.209 -14.363 -23.685  0.00  0.00    +0.054 C 
ATOM     10  C   UNL     1      34.671 -16.752 -21.202  0.00  0.00    +0.066 C 
ATOM     11  C   UNL     1      34.528 -16.970 -23.588  0.00  0.00    +0.253 C 
ATOM     12  C   UNL     1      33.315 -14.069 -21.300  0.00  0.00    +0.007 C 
ATOM     13  C   UNL     1      33.466 -15.137 -24.920  0.00  0.00    +0.252 C 
ATOM     14  C   UNL     1      32.572 -13.117 -23.805  0.00  0.00    +0.005 C 
ATOM     15  C   UNL     1      32.681 -12.829 -21.421  0.00  0.00    +0.035 C 
ATOM     16  C   UNL     1      32.310 -12.353 -22.672  0.00  0.00    +0.007 C 
ATOM     17  H   UNL     1      34.267 -16.870 -25.588  0.00  0.00    +0.158 HD
ENDBRANCH   1  10
BRANCH   1  21
ATOM     18  C   UNL     1      33.878 -21.408 -19.141  0.00  0.00    -0.043 C 
ATOM     19  C   UNL     1      35.241 -21.108 -19.127  0.00  0.00    -0.005 C 
ATOM     20  C   UNL     1      32.984 -20.557 -19.790  0.00  0.00    -0.005 C 
ATOM     21  C   UNL     1      34.814 -19.107 -20.412  0.00  0.00    +0.048 C 
ATOM     22  C   UNL     1      35.708 -19.958 -19.763  0.00  0.00    +0.014 C 
ATOM     23  C   UNL     1      33.451 -19.407 -20.425  0.00  0.00    +0.014 C 
BRANCH  18  24
ATOM     24  C   UNL     1      33.379 -22.638 -18.462  0.00  0.00    -0.050 C 
BRANCH  24  25
ATOM     25  N   UNL     1      33.017 -22.397 -17.073  0.00  0.00    +0.390 N 
ATOM     26  C   UNL     1      31.622 -22.736 -16.793  0.00  0.00    -0.077 C 
ATOM     27  C   UNL     1      33.799 -23.211 -16.143  0.00  0.00    -0.077 C 
ATOM     28  C   UNL     1      31.581 -22.785 -15.273  0.00  0.00    -0.025 C 
ATOM     29  C   UNL     1      33.013 -23.095 -14.845  0.00  0.00    -0.025 C 
ATOM     30  H   UNL     1      33.194 -21.401 -16.941  0.00  0.00    -0.079 HD
ENDBRANCH  24  25
ENDBRANCH  18  24
ENDBRANCH   1  21
TORSDOF 4
ENDMDL
MODEL 7
REMARK VINA RESULT:     -12.1      3.019      4.153
REMARK  Name = 24808489
REMARK  4 active torsions:
REMARK  status: ('A' for Active; 'I' for Inactive)
REMARK    1  A    between atoms: N_1  and  C_10
REMARK    2  A    between atoms: N_1  and  C_21
REMARK    3  A    between atoms: C_18  and  C_24
REMARK    4  A    between atoms: C_24  and  N_25
REMARK                            x       y       z     vdW  Elec       q    Type
REMARK                         _______ _______ _______ _____ _____    ______ ____
ROOT
ATOM      1  N   UNL     1      34.447 -20.530 -21.056  0.00  0.00    -0.311 N 
ATOM      2  H   UNL     1      34.130 -21.211 -21.691  0.00  0.00    +0.152 HD
ENDROOT
BRANCH   1  10
ATOM      3 BR   UNL     1      38.050 -22.502 -15.480  0.00  0.00    -0.049 Br
ATOM      4  O   UNL     1      32.085 -21.008 -20.257  0.00  0.00    -0.270 OA
ATOM      5  O   UNL     1      31.239 -22.730 -16.087  0.00  0.00    -0.270 OA
ATOM      6  N   UNL     1      31.706 -21.869 -18.165  0.00  0.00    -0.248 N 
ATOM      7  C   UNL     1      33.990 -21.436 -18.860  0.00  0.00    +0.068 C 
ATOM      8  C   UNL     1      34.456 -21.927 -17.545  0.00  0.00    +0.010 C 
ATOM      9  C   UNL     1      33.512 -22.368 -16.603  0.00  0.00    +0.054 C 
ATOM     10  C   UNL     1      34.801 -20.992 -19.836  0.00  0.00    +0.066 C 
ATOM     11  C   UNL     1      32.529 -21.407 -19.182  0.00  0.00    +0.253 C 
ATOM     12  C   UNL     1      35.814 -21.979 -17.182  0.00  0.00    +0.007 C 
ATOM     13  C   UNL     1      32.065 -22.345 -16.910  0.00  0.00    +0.252 C 
ATOM     14  C   UNL     1      33.915 -22.841 -15.343  0.00  0.00    +0.005 C 
ATOM     15  C   UNL     1      36.214 -22.450 -15.928  0.00  0.00    +0.035 C 
ATOM     16  C   UNL     1      35.266 -22.881 -15.009  0.00  0.00    +0.007 C 
ATOM     17  H   UNL     1      30.741 -21.856 -18.358  0.00  0.00    +0.158 HD
ENDBRANCH   1  10
BRANCH   1  21
ATOM     18  C   UNL     1      34.518 -16.589 -22.498  0.00  0.00    -0.043 C 
ATOM     19  C   UNL     1      34.945 -16.864 -21.199  0.00  0.00    -0.005 C 
ATOM     20  C   UNL     1      34.067 -17.623 -23.318  0.00  0.00    -0.005 C 
ATOM     21  C   UNL     1      34.470 -19.208 -21.540  0.00  0.00    +0.048 C 
ATOM     22  C   UNL     1      34.921 -18.174 -20.720  0.00  0.00    +0.014 C 
ATOM     23  C   UNL     1      34.042 -18.932 -22.839  0.00  0.00    +0.014 C 
BRANCH  18  24
ATOM     24  C   UNL     1      34.543 -15.188 -23.010  0.00  0.00    -0.050 C 
BRANCH  24  25
ATOM     25  N   UNL     1      33.405 -14.408 -22.549  0.00  0.00    +0.390 N 
ATOM     26  C   UNL     1      33.649 -13.776 -21.253  0.00  0.00    -0.077 C 
ATOM     27  C   UNL     1      33.080 -13.306 -23.454  0.00  0.00    -0.077 C 
ATOM     28  C   UNL     1      32.538 -12.739 -21.164  0.00  0.00    -0.025 C 
ATOM     29  C   UNL     1      32.162 -12.433 -22.610  0.00  0.00    -0.025 C 
ATOM     30  H   UNL     1      32.645 -15.087 -22.497  0.00  0.00    -0.079 HD
ENDBRANCH  24  25
ENDBRANCH  18  24
ENDBRANCH   1  21
TORSDOF 4
ENDMDL
MODEL 8
REMARK VINA RESULT:     -10.5      8.740     14.040
REMARK  Name = 24808489
REMARK  4 active torsions:
REMARK  status: ('A' for Active; 'I' for Inactive)
REMARK    1  A    between atoms: N_1  and  C_10
REMARK    2  A    between atoms: N_1  and  C_21
REMARK    3  A    between atoms: C_18  and  C_24
REMARK    4  A    between atoms: C_24  and  N_25
REMARK                            x       y       z     vdW  Elec       q    Type
REMARK                         _______ _______ _______ _____ _____    ______ ____
ROOT
ATOM      1  N   UNL     1      31.101 -10.445 -22.356  0.00  0.00    -0.311 N 
ATOM      2  H   UNL     1      30.144 -10.512 -22.139  0.00  0.00    +0.152 HD
ENDROOT
BRANCH   1  10
ATOM      3 BR   UNL     1      33.218  -5.574 -26.801  0.00  0.00    -0.049 Br
ATOM      4  O   UNL     1      30.923  -9.068 -20.231  0.00  0.00    -0.270 OA
ATOM      5  O   UNL     1      31.922  -4.589 -20.156  0.00  0.00    -0.270 OA
ATOM      6  N   UNL     1      31.432  -6.831 -20.237  0.00  0.00    -0.248 N 
ATOM      7  C   UNL     1      31.623  -8.084 -22.306  0.00  0.00    +0.068 C 
ATOM      8  C   UNL     1      32.058  -6.844 -22.987  0.00  0.00    +0.010 C 
ATOM      9  C   UNL     1      32.159  -5.654 -22.247  0.00  0.00    +0.054 C 
ATOM     10  C   UNL     1      31.492  -9.277 -22.911  0.00  0.00    +0.066 C 
ATOM     11  C   UNL     1      31.291  -8.070 -20.847  0.00  0.00    +0.253 C 
ATOM     12  C   UNL     1      32.383  -6.793 -24.354  0.00  0.00    +0.007 C 
ATOM     13  C   UNL     1      31.834  -5.628 -20.803  0.00  0.00    +0.252 C 
ATOM     14  C   UNL     1      32.568  -4.457 -22.856  0.00  0.00    +0.005 C 
ATOM     15  C   UNL     1      32.791  -5.600 -24.959  0.00  0.00    +0.035 C 
ATOM     16  C   UNL     1      32.883  -4.433 -24.212  0.00  0.00    +0.007 C 
ATOM     17  H   UNL     1      31.217  -6.802 -19.277  0.00  0.00    +0.158 HD
ENDBRANCH   1  10
BRANCH   1  21
ATOM     18  C   UNL     1      33.414 -13.823 -21.428  0.00  0.00    -0.043 C 
ATOM     19  C   UNL     1      32.293 -13.512 -20.659  0.00  0.00    -0.005 C 
ATOM     20  C   UNL     1      33.767 -13.011 -22.506  0.00  0.00    -0.005 C 
ATOM     21  C   UNL     1      31.878 -11.578 -22.044  0.00  0.00    +0.048 C 
ATOM     22  C   UNL     1      31.525 -12.390 -20.967  0.00  0.00    +0.014 C 
ATOM     23  C   UNL     1      32.999 -11.889 -22.814  0.00  0.00    +0.014 C 
BRANCH  18  24
ATOM     24  C   UNL     1      34.235 -15.023 -21.098  0.00  0.00    -0.050 C 
BRANCH  24  25
ATOM     25  N   UNL     1      34.588 -15.797 -22.279  0.00  0.00    +0.390 N 
ATOM     26  C   UNL     1      34.734 -17.223 -21.989  0.00  0.00    -0.077 C 
ATOM     27  C   UNL     1      33.564 -15.724 -23.321  0.00  0.00    -0.077 C 
ATOM     28  C   UNL     1      34.706 -17.857 -23.372  0.00  0.00    -0.025 C 
ATOM     29  C   UNL     1      33.939 -16.870 -24.248  0.00  0.00    -0.025 C 
ATOM     30  H   UNL     1      35.468 -15.386 -22.590  0.00  0.00    -0.079 HD
ENDBRANCH  24  25
ENDBRANCH  18  24
ENDBRANCH   1  21
TORSDOF 4
ENDMDL
