MODEL 1
REMARK VINA RESULT:     -12.7      0.000      0.000
REMARK  Name = 77993
REMARK  6 active torsions:
REMARK  status: ('A' for Active; 'I' for Inactive)
REMARK    1  A    between atoms: C_2  and  C_11
REMARK    2  A    between atoms: C_7  and  C_19
REMARK    3  A    between atoms: C_11  and  C_13
REMARK    4  A    between atoms: C_19  and  C_20
REMARK    5  A    between atoms: C_20  and  S_21
REMARK    6  A    between atoms: S_21  and  C_24
REMARK                            x       y       z     vdW  Elec       q    Type
REMARK                         _______ _______ _______ _____ _____    ______ ____
ROOT
ATOM      1  N   UNL     1      33.212 -23.226 -15.751  0.00  0.00    -0.312 N 
ATOM      2  C   UNL     1      35.307 -22.680 -15.357  0.00  0.00    -0.008 C 
ATOM      3  C   UNL     1      34.978 -22.190 -16.639  0.00  0.00    +0.010 C 
ATOM      4  C   UNL     1      34.220 -23.310 -14.827  0.00  0.00    +0.058 C 
ATOM      5  C   UNL     1      33.647 -22.547 -16.867  0.00  0.00    +0.048 C 
ATOM      6  C   UNL     1      35.669 -21.477 -17.638  0.00  0.00    -0.003 C 
ATOM      7  C   UNL     1      35.006 -21.148 -18.825  0.00  0.00    -0.020 C 
ATOM      8  C   UNL     1      32.971 -22.226 -18.048  0.00  0.00    +0.014 C 
ATOM      9  C   UNL     1      33.677 -21.518 -19.026  0.00  0.00    -0.003 C 
ATOM     10  H   UNL     1      32.308 -23.597 -15.634  0.00  0.00    +0.152 HD
ENDROOT
BRANCH   2  11
ATOM     11  C   UNL     1      36.634 -22.537 -14.678  0.00  0.00    +0.007 C 
BRANCH  11  13
ATOM     12  N   UNL     1      37.755 -24.189 -13.171  0.00  0.00    +0.387 N 
ATOM     13  C   UNL     1      37.369 -23.865 -14.551  0.00  0.00    -0.054 C 
ATOM     14  C   UNL     1      38.716 -23.841 -15.278  0.00  0.00    -0.023 C 
ATOM     15  C   UNL     1      39.633 -24.739 -14.457  0.00  0.00    -0.025 C 
ATOM     16  C   UNL     1      38.779 -25.230 -13.299  0.00  0.00    -0.077 C 
ATOM     17  C   UNL     1      36.637 -24.639 -12.350  0.00  0.00    -0.101 C 
ATOM     18  H   UNL     1      38.099 -23.359 -12.688  0.00  0.00    -0.080 HD
ENDBRANCH  11  13
ENDBRANCH   2  11
BRANCH   7  19
ATOM     19  C   UNL     1      35.733 -20.394 -19.889  0.00  0.00    +0.052 C 
BRANCH  19  20
ATOM     20  C   UNL     1      34.817 -19.613 -20.836  0.00  0.00    +0.161 C 
BRANCH  20  21
ATOM     21  S   UNL     1      35.533 -18.089 -21.367  0.00  0.00    +0.009 S 
ATOM     22  O   UNL     1      36.883 -18.347 -21.839  0.00  0.00    -0.169 OA
ATOM     23  O   UNL     1      35.297 -17.102 -20.327  0.00  0.00    -0.169 OA
BRANCH  21  24
ATOM     24  C   UNL     1      34.571 -17.633 -22.777  0.00  0.00    +0.106 C 
ATOM     25  C   UNL     1      34.525 -16.305 -23.165  0.00  0.00    +0.018 C 
ATOM     26  C   UNL     1      33.880 -18.614 -23.470  0.00  0.00    +0.018 C 
ATOM     27  C   UNL     1      33.766 -15.946 -24.278  0.00  0.00    +0.001 C 
ATOM     28  C   UNL     1      33.121 -18.254 -24.584  0.00  0.00    +0.001 C 
ATOM     29  C   UNL     1      33.064 -16.921 -24.987  0.00  0.00    +0.000 C 
ENDBRANCH  21  24
ENDBRANCH  20  21
ENDBRANCH  19  20
ENDBRANCH   7  19
TORSDOF 6
ENDMDL
MODEL 2
REMARK VINA RESULT:     -12.7      1.324      1.861
REMARK  Name = 77993
REMARK  6 active torsions:
REMARK  status: ('A' for Active; 'I' for Inactive)
REMARK    1  A    between atoms: C_2  and  C_11
REMARK    2  A    between atoms: C_7  and  C_19
REMARK    3  A    between atoms: C_11  and  C_13
REMARK    4  A    between atoms: C_19  and  C_20
REMARK    5  A    between atoms: C_20  and  S_21
REMARK    6  A    between atoms: S_21  and  C_24
REMARK                            x       y       z     vdW  Elec       q    Type
REMARK                         _______ _______ _______ _____ _____    ______ ____
ROOT
ATOM      1  N   UNL     1      33.170 -23.157 -16.091  0.00  0.00    -0.312 N 
ATOM      2  C   UNL     1      35.284 -22.603 -15.839  0.00  0.00    -0.008 C 
ATOM      3  C   UNL     1      34.852 -22.062 -17.068  0.00  0.00    +0.010 C 
ATOM      4  C   UNL     1      34.248 -23.269 -15.254  0.00  0.00    +0.058 C 
ATOM      5  C   UNL     1      33.509 -22.425 -17.207  0.00  0.00    +0.048 C 
ATOM      6  C   UNL     1      35.456 -21.297 -18.085  0.00  0.00    -0.003 C 
ATOM      7  C   UNL     1      34.698 -20.925 -19.201  0.00  0.00    -0.020 C 
ATOM      8  C   UNL     1      32.740 -22.060 -18.317  0.00  0.00    +0.014 C 
ATOM      9  C   UNL     1      33.361 -21.303 -19.314  0.00  0.00    -0.003 C 
ATOM     10  H   UNL     1      32.281 -23.543 -15.921  0.00  0.00    +0.152 HD
ENDROOT
BRANCH   2  11
ATOM     11  C   UNL     1      36.659 -22.474 -15.260  0.00  0.00    +0.007 C 
BRANCH  11  13
ATOM     12  N   UNL     1      37.284 -23.139 -12.931  0.00  0.00    +0.387 N 
ATOM     13  C   UNL     1      36.993 -23.603 -14.294  0.00  0.00    -0.054 C 
ATOM     14  C   UNL     1      38.286 -24.323 -14.687  0.00  0.00    -0.023 C 
ATOM     15  C   UNL     1      38.922 -24.755 -13.370  0.00  0.00    -0.025 C 
ATOM     16  C   UNL     1      37.974 -24.262 -12.289  0.00  0.00    -0.077 C 
ATOM     17  C   UNL     1      36.092 -22.750 -12.187  0.00  0.00    -0.101 C 
ATOM     18  H   UNL     1      37.851 -22.292 -12.952  0.00  0.00    -0.080 HD
ENDBRANCH  11  13
ENDBRANCH   2  11
BRANCH   7  19
ATOM     19  C   UNL     1      35.333 -20.116 -20.284  0.00  0.00    +0.052 C 
BRANCH  19  20
ATOM     20  C   UNL     1      34.441 -18.998 -20.831  0.00  0.00    +0.161 C 
BRANCH  20  21
ATOM     21  S   UNL     1      35.105 -18.255 -22.288  0.00  0.00    +0.009 S 
ATOM     22  O   UNL     1      34.440 -18.823 -23.447  0.00  0.00    -0.169 OA
ATOM     23  O   UNL     1      36.554 -18.291 -22.184  0.00  0.00    -0.169 OA
BRANCH  21  24
ATOM     24  C   UNL     1      34.595 -16.566 -22.176  0.00  0.00    +0.106 C 
ATOM     25  C   UNL     1      34.325 -16.021 -20.932  0.00  0.00    +0.018 C 
ATOM     26  C   UNL     1      34.475 -15.818 -23.335  0.00  0.00    +0.018 C 
ATOM     27  C   UNL     1      33.923 -14.689 -20.844  0.00  0.00    +0.001 C 
ATOM     28  C   UNL     1      34.072 -14.485 -23.247  0.00  0.00    +0.001 C 
ATOM     29  C   UNL     1      33.796 -13.921 -22.002  0.00  0.00    +0.000 C 
ENDBRANCH  21  24
ENDBRANCH  20  21
ENDBRANCH  19  20
ENDBRANCH   7  19
TORSDOF 6
ENDMDL
MODEL 3
REMARK VINA RESULT:     -12.0      4.375     10.370
REMARK  Name = 77993
REMARK  6 active torsions:
REMARK  status: ('A' for Active; 'I' for Inactive)
REMARK    1  A    between atoms: C_2  and  C_11
REMARK    2  A    between atoms: C_7  and  C_19
REMARK    3  A    between atoms: C_11  and  C_13
REMARK    4  A    between atoms: C_19  and  C_20
REMARK    5  A    between atoms: C_20  and  S_21
REMARK    6  A    between atoms: S_21  and  C_24
REMARK                            x       y       z     vdW  Elec       q    Type
REMARK                         _______ _______ _______ _____ _____    ______ ____
ROOT
ATOM      1  N   UNL     1      33.702 -16.576 -24.742  0.00  0.00    -0.312 N 
ATOM      2  C   UNL     1      33.987 -15.348 -22.940  0.00  0.00    -0.008 C 
ATOM      3  C   UNL     1      34.235 -16.689 -22.578  0.00  0.00    +0.010 C 
ATOM      4  C   UNL     1      33.663 -15.294 -24.263  0.00  0.00    +0.058 C 
ATOM      5  C   UNL     1      34.048 -17.450 -23.735  0.00  0.00    +0.048 C 
ATOM      6  C   UNL     1      34.599 -17.347 -21.387  0.00  0.00    -0.003 C 
ATOM      7  C   UNL     1      34.764 -18.736 -21.396  0.00  0.00    -0.020 C 
ATOM      8  C   UNL     1      34.209 -18.838 -23.760  0.00  0.00    +0.014 C 
ATOM      9  C   UNL     1      34.570 -19.469 -22.566  0.00  0.00    -0.003 C 
ATOM     10  H   UNL     1      33.511 -16.837 -25.672  0.00  0.00    +0.152 HD
ENDROOT
BRANCH   2  11
ATOM     11  C   UNL     1      34.065 -14.165 -22.024  0.00  0.00    +0.007 C 
BRANCH  11  13
ATOM     12  N   UNL     1      32.947 -11.965 -22.434  0.00  0.00    +0.387 N 
ATOM     13  C   UNL     1      32.772 -13.359 -22.004  0.00  0.00    -0.054 C 
ATOM     14  C   UNL     1      32.221 -13.205 -20.584  0.00  0.00    -0.023 C 
ATOM     15  C   UNL     1      31.549 -11.837 -20.560  0.00  0.00    -0.025 C 
ATOM     16  C   UNL     1      31.750 -11.269 -21.956  0.00  0.00    -0.077 C 
ATOM     17  C   UNL     1      33.106 -11.822 -23.877  0.00  0.00    -0.101 C 
ATOM     18  H   UNL     1      33.807 -11.574 -22.050  0.00  0.00    -0.080 HD
ENDBRANCH  11  13
ENDBRANCH   2  11
BRANCH   7  19
ATOM     19  C   UNL     1      35.149 -19.440 -20.137  0.00  0.00    +0.052 C 
BRANCH  19  20
ATOM     20  C   UNL     1      35.124 -20.967 -20.243  0.00  0.00    +0.161 C 
BRANCH  20  21
ATOM     21  S   UNL     1      33.981 -21.705 -19.118  0.00  0.00    +0.009 S 
ATOM     22  O   UNL     1      33.684 -23.053 -19.571  0.00  0.00    -0.169 OA
ATOM     23  O   UNL     1      32.906 -20.755 -18.891  0.00  0.00    -0.169 OA
BRANCH  21  24
ATOM     24  C   UNL     1      34.899 -21.856 -17.615  0.00  0.00    +0.106 C 
ATOM     25  C   UNL     1      34.303 -22.445 -16.513  0.00  0.00    +0.018 C 
ATOM     26  C   UNL     1      36.200 -21.382 -17.567  0.00  0.00    +0.018 C 
ATOM     27  C   UNL     1      35.028 -22.564 -15.328  0.00  0.00    +0.001 C 
ATOM     28  C   UNL     1      36.925 -21.502 -16.381  0.00  0.00    +0.001 C 
ATOM     29  C   UNL     1      36.339 -22.092 -15.262  0.00  0.00    +0.000 C 
ENDBRANCH  21  24
ENDBRANCH  20  21
ENDBRANCH  19  20
ENDBRANCH   7  19
TORSDOF 6
ENDMDL
MODEL 4
REMARK VINA RESULT:     -11.9      2.487      4.546
REMARK  Name = 77993
REMARK  6 active torsions:
REMARK  status: ('A' for Active; 'I' for Inactive)
REMARK    1  A    between atoms: C_2  and  C_11
REMARK    2  A    between atoms: C_7  and  C_19
REMARK    3  A    between atoms: C_11  and  C_13
REMARK    4  A    between atoms: C_19  and  C_20
REMARK    5  A    between atoms: C_20  and  S_21
REMARK    6  A    between atoms: S_21  and  C_24
REMARK                            x       y       z     vdW  Elec       q    Type
REMARK                         _______ _______ _______ _____ _____    ______ ____
ROOT
ATOM      1  N   UNL     1      35.602 -22.465 -15.654  0.00  0.00    -0.312 N 
ATOM      2  C   UNL     1      33.599 -22.943 -16.430  0.00  0.00    -0.008 C 
ATOM      3  C   UNL     1      34.252 -22.161 -17.405  0.00  0.00    +0.010 C 
ATOM      4  C   UNL     1      34.434 -23.121 -15.367  0.00  0.00    +0.058 C 
ATOM      5  C   UNL     1      35.519 -21.869 -16.893  0.00  0.00    +0.048 C 
ATOM      6  C   UNL     1      33.905 -21.664 -18.677  0.00  0.00    -0.003 C 
ATOM      7  C   UNL     1      34.834 -20.896 -19.387  0.00  0.00    -0.020 C 
ATOM      8  C   UNL     1      36.458 -21.103 -17.591  0.00  0.00    +0.014 C 
ATOM      9  C   UNL     1      36.091 -20.620 -18.850  0.00  0.00    -0.003 C 
ATOM     10  H   UNL     1      36.386 -22.425 -15.061  0.00  0.00    +0.152 HD
ENDROOT
BRANCH   2  11
ATOM     11  C   UNL     1      32.211 -23.496 -16.535  0.00  0.00    +0.007 C 
BRANCH  11  13
ATOM     12  N   UNL     1      30.680 -23.925 -14.603  0.00  0.00    +0.387 N 
ATOM     13  C   UNL     1      31.272 -22.911 -15.488  0.00  0.00    -0.054 C 
ATOM     14  C   UNL     1      30.039 -22.266 -16.127  0.00  0.00    -0.023 C 
ATOM     15  C   UNL     1      28.905 -22.494 -15.136  0.00  0.00    -0.025 C 
ATOM     16  C   UNL     1      29.532 -23.260 -13.982  0.00  0.00    -0.077 C 
ATOM     17  C   UNL     1      31.612 -24.428 -13.600  0.00  0.00    -0.101 C 
ATOM     18  H   UNL     1      30.414 -24.755 -15.132  0.00  0.00    -0.080 HD
ENDBRANCH  11  13
ENDBRANCH   2  11
BRANCH   7  19
ATOM     19  C   UNL     1      34.473 -20.365 -20.735  0.00  0.00    +0.052 C 
BRANCH  19  20
ATOM     20  C   UNL     1      34.306 -18.843 -20.781  0.00  0.00    +0.161 C 
BRANCH  20  21
ATOM     21  S   UNL     1      35.009 -18.130 -22.235  0.00  0.00    +0.009 S 
ATOM     22  O   UNL     1      34.357 -18.703 -23.399  0.00  0.00    -0.169 OA
ATOM     23  O   UNL     1      36.455 -18.188 -22.102  0.00  0.00    -0.169 OA
BRANCH  21  24
ATOM     24  C   UNL     1      34.524 -16.432 -22.155  0.00  0.00    +0.106 C 
ATOM     25  C   UNL     1      34.414 -15.703 -23.327  0.00  0.00    +0.018 C 
ATOM     26  C   UNL     1      34.262 -15.861 -20.920  0.00  0.00    +0.018 C 
ATOM     27  C   UNL     1      34.031 -14.364 -23.263  0.00  0.00    +0.001 C 
ATOM     28  C   UNL     1      33.879 -14.521 -20.857  0.00  0.00    +0.001 C 
ATOM     29  C   UNL     1      33.763 -13.773 -22.027  0.00  0.00    +0.000 C 
ENDBRANCH  21  24
ENDBRANCH  20  21
ENDBRANCH  19  20
ENDBRANCH   7  19
TORSDOF 6
ENDMDL
MODEL 5
REMARK VINA RESULT:     -11.8      5.385     11.467
REMARK  Name = 77993
REMARK  6 active torsions:
REMARK  status: ('A' for Active; 'I' for Inactive)
REMARK    1  A    between atoms: C_2  and  C_11
REMARK    2  A    between atoms: C_7  and  C_19
REMARK    3  A    between atoms: C_11  and  C_13
REMARK    4  A    between atoms: C_19  and  C_20
REMARK    5  A    between atoms: C_20  and  S_21
REMARK    6  A    between atoms: S_21  and  C_24
REMARK                            x       y       z     vdW  Elec       q    Type
REMARK                         _______ _______ _______ _____ _____    ______ ____
ROOT
ATOM      1  N   UNL     1      32.584 -13.681 -25.864  0.00  0.00    -0.312 N 
ATOM      2  C   UNL     1      33.056 -12.366 -24.165  0.00  0.00    -0.008 C 
ATOM      3  C   UNL     1      33.453 -13.672 -23.808  0.00  0.00    +0.010 C 
ATOM      4  C   UNL     1      32.528 -12.387 -25.421  0.00  0.00    +0.058 C 
ATOM      5  C   UNL     1      33.145 -14.489 -24.900  0.00  0.00    +0.048 C 
ATOM      6  C   UNL     1      34.045 -14.256 -22.671  0.00  0.00    -0.003 C 
ATOM      7  C   UNL     1      34.306 -15.630 -22.667  0.00  0.00    -0.020 C 
ATOM      8  C   UNL     1      33.400 -15.863 -24.909  0.00  0.00    +0.014 C 
ATOM      9  C   UNL     1      33.987 -16.421 -23.769  0.00  0.00    -0.003 C 
ATOM     10  H   UNL     1      32.270 -13.991 -26.744  0.00  0.00    +0.152 HD
ENDROOT
BRANCH   2  11
ATOM     11  C   UNL     1      33.190 -11.145 -23.308  0.00  0.00    +0.007 C 
BRANCH  11  13
ATOM     12  N   UNL     1      31.814  -9.413 -22.139  0.00  0.00    +0.387 N 
ATOM     13  C   UNL     1      31.907 -10.820 -22.554  0.00  0.00    -0.054 C 
ATOM     14  C   UNL     1      31.827 -11.568 -21.220  0.00  0.00    -0.023 C 
ATOM     15  C   UNL     1      31.082 -10.631 -20.277  0.00  0.00    -0.025 C 
ATOM     16  C   UNL     1      30.776  -9.393 -21.105  0.00  0.00    -0.077 C 
ATOM     17  C   UNL     1      31.490  -8.509 -23.237  0.00  0.00    -0.101 C 
ATOM     18  H   UNL     1      32.714  -9.077 -21.798  0.00  0.00    -0.080 HD
ENDBRANCH  11  13
ENDBRANCH   2  11
BRANCH   7  19
ATOM     19  C   UNL     1      34.932 -16.256 -21.464  0.00  0.00    +0.052 C 
BRANCH  19  20
ATOM     20  C   UNL     1      34.218 -17.520 -20.975  0.00  0.00    +0.161 C 
BRANCH  20  21
ATOM     21  S   UNL     1      35.231 -18.960 -21.099  0.00  0.00    +0.009 S 
ATOM     22  O   UNL     1      36.522 -18.676 -20.498  0.00  0.00    -0.169 OA
ATOM     23  O   UNL     1      35.150 -19.443 -22.467  0.00  0.00    -0.169 OA
BRANCH  21  24
ATOM     24  C   UNL     1      34.425 -20.139 -20.058  0.00  0.00    +0.106 C 
ATOM     25  C   UNL     1      35.191 -20.985 -19.274  0.00  0.00    +0.018 C 
ATOM     26  C   UNL     1      33.041 -20.196 -20.045  0.00  0.00    +0.018 C 
ATOM     27  C   UNL     1      34.555 -21.915 -18.452  0.00  0.00    +0.001 C 
ATOM     28  C   UNL     1      32.406 -21.126 -19.222  0.00  0.00    +0.001 C 
ATOM     29  C   UNL     1      33.162 -21.985 -18.427  0.00  0.00    +0.000 C 
ENDBRANCH  21  24
ENDBRANCH  20  21
ENDBRANCH  19  20
ENDBRANCH   7  19
TORSDOF 6
ENDMDL
MODEL 6
REMARK VINA RESULT:     -11.7      3.873      9.884
REMARK  Name = 77993
REMARK  6 active torsions:
REMARK  status: ('A' for Active; 'I' for Inactive)
REMARK    1  A    between atoms: C_2  and  C_11
REMARK    2  A    between atoms: C_7  and  C_19
REMARK    3  A    between atoms: C_11  and  C_13
REMARK    4  A    between atoms: C_19  and  C_20
REMARK    5  A    between atoms: C_20  and  S_21
REMARK    6  A    between atoms: S_21  and  C_24
REMARK                            x       y       z     vdW  Elec       q    Type
REMARK                         _______ _______ _______ _____ _____    ______ ____
ROOT
ATOM      1  N   UNL     1      32.151 -20.947 -19.827  0.00  0.00    -0.312 N 
ATOM      2  C   UNL     1      33.960 -19.901 -20.515  0.00  0.00    -0.008 C 
ATOM      3  C   UNL     1      34.318 -20.659 -19.380  0.00  0.00    +0.010 C 
ATOM      4  C   UNL     1      32.635 -20.087 -20.776  0.00  0.00    +0.058 C 
ATOM      5  C   UNL     1      33.157 -21.313 -18.961  0.00  0.00    +0.048 C 
ATOM      6  C   UNL     1      35.510 -20.862 -18.656  0.00  0.00    -0.003 C 
ATOM      7  C   UNL     1      35.496 -21.711 -17.544  0.00  0.00    -0.020 C 
ATOM      8  C   UNL     1      33.129 -22.164 -17.851  0.00  0.00    +0.014 C 
ATOM      9  C   UNL     1      34.323 -22.350 -17.148  0.00  0.00    -0.003 C 
ATOM     10  H   UNL     1      31.220 -21.260 -19.772  0.00  0.00    +0.152 HD
ENDROOT
BRANCH   2  11
ATOM     11  C   UNL     1      34.880 -19.029 -21.312  0.00  0.00    +0.007 C 
BRANCH  11  13
ATOM     12  N   UNL     1      34.389 -17.686 -23.365  0.00  0.00    +0.387 N 
ATOM     13  C   UNL     1      34.163 -17.830 -21.920  0.00  0.00    -0.054 C 
ATOM     14  C   UNL     1      34.698 -16.507 -21.365  0.00  0.00    -0.023 C 
ATOM     15  C   UNL     1      34.586 -15.513 -22.514  0.00  0.00    -0.025 C 
ATOM     16  C   UNL     1      34.002 -16.306 -23.672  0.00  0.00    -0.077 C 
ATOM     17  C   UNL     1      33.633 -18.643 -24.165  0.00  0.00    -0.101 C 
ATOM     18  H   UNL     1      35.362 -17.881 -23.600  0.00  0.00    -0.080 HD
ENDBRANCH  11  13
ENDBRANCH   2  11
BRANCH   7  19
ATOM     19  C   UNL     1      36.755 -21.930 -16.771  0.00  0.00    +0.052 C 
BRANCH  19  20
ATOM     20  C   UNL     1      36.544 -22.064 -15.260  0.00  0.00    +0.161 C 
BRANCH  20  21
ATOM     21  S   UNL     1      37.011 -23.653 -14.650  0.00  0.00    +0.009 S 
ATOM     22  O   UNL     1      38.460 -23.754 -14.671  0.00  0.00    -0.169 OA
ATOM     23  O   UNL     1      36.198 -24.647 -15.330  0.00  0.00    -0.169 OA
BRANCH  21  24
ATOM     24  C   UNL     1      36.521 -23.620 -12.952  0.00  0.00    +0.106 C 
ATOM     25  C   UNL     1      35.807 -24.686 -12.432  0.00  0.00    +0.018 C 
ATOM     26  C   UNL     1      36.860 -22.527 -12.172  0.00  0.00    +0.018 C 
ATOM     27  C   UNL     1      35.421 -24.660 -11.093  0.00  0.00    +0.001 C 
ATOM     28  C   UNL     1      36.473 -22.501 -10.832  0.00  0.00    +0.001 C 
ATOM     29  C   UNL     1      35.754 -23.566 -10.293  0.00  0.00    +0.000 C 
ENDBRANCH  21  24
ENDBRANCH  20  21
ENDBRANCH  19  20
ENDBRANCH   7  19
TORSDOF 6
ENDMDL
MODEL 7
REMARK VINA RESULT:     -11.5      6.359     12.259
REMARK  Name = 77993
REMARK  6 active torsions:
REMARK  status: ('A' for Active; 'I' for Inactive)
REMARK    1  A    between atoms: C_2  and  C_11
REMARK    2  A    between atoms: C_7  and  C_19
REMARK    3  A    between atoms: C_11  and  C_13
REMARK    4  A    between atoms: C_19  and  C_20
REMARK    5  A    between atoms: C_20  and  S_21
REMARK    6  A    between atoms: S_21  and  C_24
REMARK                            x       y       z     vdW  Elec       q    Type
REMARK                         _______ _______ _______ _____ _____    ______ ____
ROOT
ATOM      1  N   UNL     1      31.096 -11.336 -20.248  0.00  0.00    -0.312 N 
ATOM      2  C   UNL     1      32.085 -10.850 -22.152  0.00  0.00    -0.008 C 
ATOM      3  C   UNL     1      32.502 -12.146 -21.781  0.00  0.00    +0.010 C 
ATOM      4  C   UNL     1      31.228 -10.369 -21.208  0.00  0.00    +0.058 C 
ATOM      5  C   UNL     1      31.863 -12.434 -20.571  0.00  0.00    +0.048 C 
ATOM      6  C   UNL     1      33.358 -13.115 -22.342  0.00  0.00    -0.003 C 
ATOM      7  C   UNL     1      33.542 -14.330 -21.676  0.00  0.00    -0.020 C 
ATOM      8  C   UNL     1      32.039 -13.644 -19.895  0.00  0.00    +0.014 C 
ATOM      9  C   UNL     1      32.893 -14.590 -20.470  0.00  0.00    -0.003 C 
ATOM     10  H   UNL     1      30.535 -11.260 -19.443  0.00  0.00    +0.152 HD
ENDROOT
BRANCH   2  11
ATOM     11  C   UNL     1      32.510 -10.113 -23.385  0.00  0.00    +0.007 C 
BRANCH  11  13
ATOM     12  N   UNL     1      31.926  -7.723 -23.838  0.00  0.00    +0.387 N 
ATOM     13  C   UNL     1      32.809  -8.645 -23.110  0.00  0.00    -0.054 C 
ATOM     14  C   UNL     1      34.199  -8.245 -23.612  0.00  0.00    -0.023 C 
ATOM     15  C   UNL     1      34.065  -6.792 -24.054  0.00  0.00    -0.025 C 
ATOM     16  C   UNL     1      32.612  -6.428 -23.792  0.00  0.00    -0.077 C 
ATOM     17  C   UNL     1      30.587  -7.638 -23.269  0.00  0.00    -0.101 C 
ATOM     18  H   UNL     1      31.771  -8.050 -24.791  0.00  0.00    -0.080 HD
ENDBRANCH  11  13
ENDBRANCH   2  11
BRANCH   7  19
ATOM     19  C   UNL     1      34.449 -15.361 -22.264  0.00  0.00    +0.052 C 
BRANCH  19  20
ATOM     20  C   UNL     1      34.768 -16.523 -21.319  0.00  0.00    +0.161 C 
BRANCH  20  21
ATOM     21  S   UNL     1      34.994 -18.050 -22.177  0.00  0.00    +0.009 S 
ATOM     22  O   UNL     1      36.411 -18.234 -22.438  0.00  0.00    -0.169 OA
ATOM     23  O   UNL     1      34.037 -18.091 -23.269  0.00  0.00    -0.169 OA
BRANCH  21  24
ATOM     24  C   UNL     1      34.523 -19.277 -20.995  0.00  0.00    +0.106 C 
ATOM     25  C   UNL     1      33.179 -19.539 -20.791  0.00  0.00    +0.018 C 
ATOM     26  C   UNL     1      35.508 -19.954 -20.295  0.00  0.00    +0.018 C 
ATOM     27  C   UNL     1      32.808 -20.508 -19.859  0.00  0.00    +0.001 C 
ATOM     28  C   UNL     1      35.135 -20.923 -19.363  0.00  0.00    +0.001 C 
ATOM     29  C   UNL     1      33.787 -21.200 -19.145  0.00  0.00    +0.000 C 
ENDBRANCH  21  24
ENDBRANCH  20  21
ENDBRANCH  19  20
ENDBRANCH   7  19
TORSDOF 6
ENDMDL
MODEL 8
REMARK VINA RESULT:     -11.5      2.964      4.693
REMARK  Name = 77993
REMARK  6 active torsions:
REMARK  status: ('A' for Active; 'I' for Inactive)
REMARK    1  A    between atoms: C_2  and  C_11
REMARK    2  A    between atoms: C_7  and  C_19
REMARK    3  A    between atoms: C_11  and  C_13
REMARK    4  A    between atoms: C_19  and  C_20
REMARK    5  A    between atoms: C_20  and  S_21
REMARK    6  A    between atoms: S_21  and  C_24
REMARK                            x       y       z     vdW  Elec       q    Type
REMARK                         _______ _______ _______ _____ _____    ______ ____
ROOT
ATOM      1  N   UNL     1      34.552 -22.839 -16.836  0.00  0.00    -0.312 N 
ATOM      2  C   UNL     1      32.409 -22.389 -17.057  0.00  0.00    -0.008 C 
ATOM      3  C   UNL     1      33.093 -21.691 -18.075  0.00  0.00    +0.010 C 
ATOM      4  C   UNL     1      33.312 -23.085 -16.309  0.00  0.00    +0.058 C 
ATOM      5  C   UNL     1      34.448 -21.990 -17.916  0.00  0.00    +0.048 C 
ATOM      6  C   UNL     1      32.707 -20.830 -19.122  0.00  0.00    -0.003 C 
ATOM      7  C   UNL     1      33.688 -20.303 -19.969  0.00  0.00    -0.020 C 
ATOM      8  C   UNL     1      35.439 -21.471 -18.755  0.00  0.00    +0.014 C 
ATOM      9  C   UNL     1      35.033 -20.619 -19.786  0.00  0.00    -0.003 C 
ATOM     10  H   UNL     1      35.394 -23.214 -16.494  0.00  0.00    +0.152 HD
ENDROOT
BRANCH   2  11
ATOM     11  C   UNL     1      30.930 -22.375 -16.826  0.00  0.00    +0.007 C 
BRANCH  11  13
ATOM     12  N   UNL     1      29.063 -23.322 -15.457  0.00  0.00    +0.387 N 
ATOM     13  C   UNL     1      30.493 -23.398 -15.786  0.00  0.00    -0.054 C 
ATOM     14  C   UNL     1      31.162 -23.152 -14.431  0.00  0.00    -0.023 C 
ATOM     15  C   UNL     1      30.135 -23.582 -13.391  0.00  0.00    -0.025 C 
ATOM     16  C   UNL     1      28.928 -24.047 -14.190  0.00  0.00    -0.077 C 
ATOM     17  C   UNL     1      28.203 -23.889 -16.490  0.00  0.00    -0.101 C 
ATOM     18  H   UNL     1      28.760 -22.351 -15.386  0.00  0.00    -0.080 HD
ENDBRANCH  11  13
ENDBRANCH   2  11
BRANCH   7  19
ATOM     19  C   UNL     1      33.287 -19.390 -21.080  0.00  0.00    +0.052 C 
BRANCH  19  20
ATOM     20  C   UNL     1      34.387 -19.150 -22.118  0.00  0.00    +0.161 C 
BRANCH  20  21
ATOM     21  S   UNL     1      35.325 -17.692 -21.786  0.00  0.00    +0.009 S 
ATOM     22  O   UNL     1      36.657 -17.857 -22.342  0.00  0.00    -0.169 OA
ATOM     23  O   UNL     1      35.152 -17.363 -20.382  0.00  0.00    -0.169 OA
BRANCH  21  24
ATOM     24  C   UNL     1      34.519 -16.441 -22.740  0.00  0.00    +0.106 C 
ATOM     25  C   UNL     1      34.320 -15.188 -22.184  0.00  0.00    +0.018 C 
ATOM     26  C   UNL     1      34.101 -16.735 -24.027  0.00  0.00    +0.018 C 
ATOM     27  C   UNL     1      33.685 -14.201 -22.937  0.00  0.00    +0.001 C 
ATOM     28  C   UNL     1      33.466 -15.747 -24.780  0.00  0.00    +0.001 C 
ATOM     29  C   UNL     1      33.258 -14.481 -24.235  0.00  0.00    +0.000 C 
ENDBRANCH  21  24
ENDBRANCH  20  21
ENDBRANCH  19  20
ENDBRANCH   7  19
TORSDOF 6
ENDMDL
MODEL 9
REMARK VINA RESULT:     -11.2      4.519      9.871
REMARK  Name = 77993
REMARK  6 active torsions:
REMARK  status: ('A' for Active; 'I' for Inactive)
REMARK    1  A    between atoms: C_2  and  C_11
REMARK    2  A    between atoms: C_7  and  C_19
REMARK    3  A    between atoms: C_11  and  C_13
REMARK    4  A    between atoms: C_19  and  C_20
REMARK    5  A    between atoms: C_20  and  S_21
REMARK    6  A    between atoms: S_21  and  C_24
REMARK                            x       y       z     vdW  Elec       q    Type
REMARK                         _______ _______ _______ _____ _____    ______ ____
ROOT
ATOM      1  N   UNL     1      36.999 -18.369 -21.193  0.00  0.00    -0.312 N 
ATOM      2  C   UNL     1      35.083 -17.960 -22.196  0.00  0.00    -0.008 C 
ATOM      3  C   UNL     1      34.856 -18.989 -21.257  0.00  0.00    +0.010 C 
ATOM      4  C   UNL     1      36.394 -17.592 -22.145  0.00  0.00    +0.058 C 
ATOM      5  C   UNL     1      36.083 -19.232 -20.634  0.00  0.00    +0.048 C 
ATOM      6  C   UNL     1      33.735 -19.748 -20.866  0.00  0.00    -0.003 C 
ATOM      7  C   UNL     1      33.882 -20.718 -19.868  0.00  0.00    -0.020 C 
ATOM      8  C   UNL     1      36.244 -20.197 -19.636  0.00  0.00    +0.014 C 
ATOM      9  C   UNL     1      35.118 -20.938 -19.264  0.00  0.00    -0.003 C 
ATOM     10  H   UNL     1      37.949 -18.318 -20.943  0.00  0.00    +0.152 HD
ENDROOT
BRANCH   2  11
ATOM     11  C   UNL     1      34.056 -17.362 -23.106  0.00  0.00    +0.007 C 
BRANCH  11  13
ATOM     12  N   UNL     1      33.528 -15.001 -22.470  0.00  0.00    +0.387 N 
ATOM     13  C   UNL     1      34.297 -15.880 -23.361  0.00  0.00    -0.054 C 
ATOM     14  C   UNL     1      33.812 -15.456 -24.750  0.00  0.00    -0.023 C 
ATOM     15  C   UNL     1      33.330 -14.019 -24.587  0.00  0.00    -0.025 C 
ATOM     16  C   UNL     1      33.553 -13.688 -23.120  0.00  0.00    -0.077 C 
ATOM     17  C   UNL     1      34.068 -14.936 -21.117  0.00  0.00    -0.101 C 
ATOM     18  H   UNL     1      32.580 -15.356 -22.342  0.00  0.00    -0.080 HD
ENDBRANCH  11  13
ENDBRANCH   2  11
BRANCH   7  19
ATOM     19  C   UNL     1      32.699 -21.526 -19.449  0.00  0.00    +0.052 C 
BRANCH  19  20
ATOM     20  C   UNL     1      32.408 -21.474 -17.946  0.00  0.00    +0.161 C 
BRANCH  20  21
ATOM     21  S   UNL     1      33.077 -22.860 -17.080  0.00  0.00    +0.009 S 
ATOM     22  O   UNL     1      34.364 -22.485 -16.522  0.00  0.00    -0.169 OA
ATOM     23  O   UNL     1      32.964 -24.021 -17.945  0.00  0.00    -0.169 OA
BRANCH  21  24
ATOM     24  C   UNL     1      31.971 -23.087 -15.720  0.00  0.00    +0.106 C 
ATOM     25  C   UNL     1      30.642 -22.724 -15.860  0.00  0.00    +0.018 C 
ATOM     26  C   UNL     1      32.454 -23.624 -14.538  0.00  0.00    +0.018 C 
ATOM     27  C   UNL     1      29.770 -22.904 -14.787  0.00  0.00    +0.001 C 
ATOM     28  C   UNL     1      31.580 -23.803 -13.465  0.00  0.00    +0.001 C 
ATOM     29  C   UNL     1      30.239 -23.443 -13.589  0.00  0.00    +0.000 C 
ENDBRANCH  21  24
ENDBRANCH  20  21
ENDBRANCH  19  20
ENDBRANCH   7  19
TORSDOF 6
ENDMDL
