MODEL 1
REMARK VINA RESULT:     -10.6      0.000      0.000
REMARK  Name = 5342
REMARK  6 active torsions:
REMARK  status: ('A' for Active; 'I' for Inactive)
REMARK    1  A    between atoms: N_3  and  C_8
REMARK    2  A    between atoms: N_4  and  C_14
REMARK    3  A    between atoms: C_5  and  C_20
REMARK    4  A    between atoms: C_20  and  C_21
REMARK    5  A    between atoms: C_21  and  S_22
REMARK    6  A    between atoms: S_22  and  C_24
REMARK                            x       y       z     vdW  Elec       q    Type
REMARK                         _______ _______ _______ _____ _____    ______ ____
ROOT
ATOM      1  O   UNL     1      31.652 -22.845 -15.716  0.00  0.00    -0.272 OA
ATOM      2  O   UNL     1      34.069 -23.926 -11.811  0.00  0.00    -0.272 OA
ATOM      3  N   UNL     1      33.962 -23.176 -15.240  0.00  0.00    -0.179 N 
ATOM      4  N   UNL     1      34.671 -23.606 -14.092  0.00  0.00    -0.179 N 
ATOM      5  C   UNL     1      32.435 -23.346 -13.490  0.00  0.00    +0.158 C 
ATOM      6  C   UNL     1      32.585 -23.120 -14.976  0.00  0.00    +0.254 C 
ATOM      7  C   UNL     1      33.824 -23.636 -12.973  0.00  0.00    +0.254 C 
ENDROOT
BRANCH   3   8
ATOM      8  C   UNL     1      34.559 -22.499 -16.347  0.00  0.00    +0.073 C 
ATOM      9  C   UNL     1      33.866 -22.386 -17.556  0.00  0.00    +0.017 C 
ATOM     10  C   UNL     1      35.836 -21.948 -16.226  0.00  0.00    +0.017 C 
ATOM     11  C   UNL     1      34.449 -21.725 -18.636  0.00  0.00    +0.001 C 
ATOM     12  C   UNL     1      36.418 -21.287 -17.307  0.00  0.00    +0.001 C 
ATOM     13  C   UNL     1      35.724 -21.175 -18.512  0.00  0.00    +0.000 C 
ENDBRANCH   3   8
BRANCH   4  14
ATOM     14  C   UNL     1      35.906 -24.321 -14.133  0.00  0.00    +0.073 C 
ATOM     15  C   UNL     1      37.061 -23.759 -13.582  0.00  0.00    +0.017 C 
ATOM     16  C   UNL     1      35.966 -25.587 -14.721  0.00  0.00    +0.017 C 
ATOM     17  C   UNL     1      38.267 -24.457 -13.620  0.00  0.00    +0.001 C 
ATOM     18  C   UNL     1      37.173 -26.285 -14.759  0.00  0.00    +0.001 C 
ATOM     19  C   UNL     1      38.324 -25.720 -14.209  0.00  0.00    +0.000 C 
ENDBRANCH   4  14
BRANCH   5  20
ATOM     20  C   UNL     1      31.485 -24.495 -13.204  0.00  0.00    +0.033 C 
BRANCH  20  21
ATOM     21  C   UNL     1      30.033 -24.035 -13.229  0.00  0.00    +0.097 C 
BRANCH  21  22
ATOM     22  S   UNL     1      29.029 -25.126 -14.282  0.00  0.00    +0.065 S 
ATOM     23  O   UNL     1      29.971 -25.824 -15.213  0.00  0.00    -0.251 OA
BRANCH  22  24
ATOM     24  C   UNL     1      28.231 -23.825 -15.243  0.00  0.00    +0.056 C 
ATOM     25  C   UNL     1      28.051 -22.567 -14.680  0.00  0.00    +0.009 C 
ATOM     26  C   UNL     1      27.804 -24.092 -16.539  0.00  0.00    +0.009 C 
ATOM     27  C   UNL     1      27.433 -21.561 -15.423  0.00  0.00    +0.001 C 
ATOM     28  C   UNL     1      27.188 -23.084 -17.282  0.00  0.00    +0.001 C 
ATOM     29  C   UNL     1      27.003 -21.820 -16.724  0.00  0.00    +0.000 C 
ENDBRANCH  22  24
ENDBRANCH  21  22
ENDBRANCH  20  21
ENDBRANCH   5  20
TORSDOF 6
ENDMDL
MODEL 2
REMARK VINA RESULT:     -10.6      0.005      1.269
REMARK  Name = 5342
REMARK  6 active torsions:
REMARK  status: ('A' for Active; 'I' for Inactive)
REMARK    1  A    between atoms: N_3  and  C_8
REMARK    2  A    between atoms: N_4  and  C_14
REMARK    3  A    between atoms: C_5  and  C_20
REMARK    4  A    between atoms: C_20  and  C_21
REMARK    5  A    between atoms: C_21  and  S_22
REMARK    6  A    between atoms: S_22  and  C_24
REMARK                            x       y       z     vdW  Elec       q    Type
REMARK                         _______ _______ _______ _____ _____    ______ ____
ROOT
ATOM      1  O   UNL     1      31.650 -22.848 -15.716  0.00  0.00    -0.272 OA
ATOM      2  O   UNL     1      34.067 -23.926 -11.810  0.00  0.00    -0.272 OA
ATOM      3  N   UNL     1      33.960 -23.176 -15.239  0.00  0.00    -0.179 N 
ATOM      4  N   UNL     1      34.669 -23.606 -14.091  0.00  0.00    -0.179 N 
ATOM      5  C   UNL     1      32.433 -23.348 -13.489  0.00  0.00    +0.158 C 
ATOM      6  C   UNL     1      32.583 -23.122 -14.976  0.00  0.00    +0.254 C 
ATOM      7  C   UNL     1      33.822 -23.636 -12.972  0.00  0.00    +0.254 C 
ENDROOT
BRANCH   3   8
ATOM      8  C   UNL     1      34.557 -22.499 -16.346  0.00  0.00    +0.073 C 
ATOM      9  C   UNL     1      33.863 -22.384 -17.554  0.00  0.00    +0.017 C 
ATOM     10  C   UNL     1      35.834 -21.949 -16.225  0.00  0.00    +0.017 C 
ATOM     11  C   UNL     1      34.446 -21.723 -18.634  0.00  0.00    +0.001 C 
ATOM     12  C   UNL     1      36.416 -21.287 -17.306  0.00  0.00    +0.001 C 
ATOM     13  C   UNL     1      35.722 -21.174 -18.511  0.00  0.00    +0.000 C 
ENDBRANCH   3   8
BRANCH   4  14
ATOM     14  C   UNL     1      35.905 -24.319 -14.131  0.00  0.00    +0.073 C 
ATOM     15  C   UNL     1      35.968 -25.582 -14.724  0.00  0.00    +0.017 C 
ATOM     16  C   UNL     1      37.059 -23.756 -13.579  0.00  0.00    +0.017 C 
ATOM     17  C   UNL     1      37.176 -26.279 -14.764  0.00  0.00    +0.001 C 
ATOM     18  C   UNL     1      38.266 -24.452 -13.619  0.00  0.00    +0.001 C 
ATOM     19  C   UNL     1      38.325 -25.715 -14.212  0.00  0.00    +0.000 C 
ENDBRANCH   4  14
BRANCH   5  20
ATOM     20  C   UNL     1      31.484 -24.498 -13.204  0.00  0.00    +0.033 C 
BRANCH  20  21
ATOM     21  C   UNL     1      30.032 -24.039 -13.226  0.00  0.00    +0.097 C 
BRANCH  21  22
ATOM     22  S   UNL     1      29.028 -25.127 -14.284  0.00  0.00    +0.065 S 
ATOM     23  O   UNL     1      29.971 -25.822 -15.217  0.00  0.00    -0.251 OA
BRANCH  22  24
ATOM     24  C   UNL     1      28.231 -23.822 -15.242  0.00  0.00    +0.056 C 
ATOM     25  C   UNL     1      27.802 -24.086 -16.537  0.00  0.00    +0.009 C 
ATOM     26  C   UNL     1      28.053 -22.565 -14.676  0.00  0.00    +0.009 C 
ATOM     27  C   UNL     1      27.186 -23.077 -17.279  0.00  0.00    +0.001 C 
ATOM     28  C   UNL     1      27.436 -21.557 -15.417  0.00  0.00    +0.001 C 
ATOM     29  C   UNL     1      27.003 -21.813 -16.718  0.00  0.00    +0.000 C 
ENDBRANCH  22  24
ENDBRANCH  21  22
ENDBRANCH  20  21
ENDBRANCH   5  20
TORSDOF 6
ENDMDL
MODEL 3
REMARK VINA RESULT:     -10.3     14.559     17.705
REMARK  Name = 5342
REMARK  6 active torsions:
REMARK  status: ('A' for Active; 'I' for Inactive)
REMARK    1  A    between atoms: N_3  and  C_8
REMARK    2  A    between atoms: N_4  and  C_14
REMARK    3  A    between atoms: C_5  and  C_20
REMARK    4  A    between atoms: C_20  and  C_21
REMARK    5  A    between atoms: C_21  and  S_22
REMARK    6  A    between atoms: S_22  and  C_24
REMARK                            x       y       z     vdW  Elec       q    Type
REMARK                         _______ _______ _______ _____ _____    ______ ____
ROOT
ATOM      1  O   UNL     1      30.975  -9.378 -21.777  0.00  0.00    -0.272 OA
ATOM      2  O   UNL     1      35.001  -8.683 -24.138  0.00  0.00    -0.272 OA
ATOM      3  N   UNL     1      32.012  -7.467 -22.752  0.00  0.00    -0.179 N 
ATOM      4  N   UNL     1      33.165  -7.284 -23.553  0.00  0.00    -0.179 N 
ATOM      5  C   UNL     1      33.124  -9.510 -22.867  0.00  0.00    +0.158 C 
ATOM      6  C   UNL     1      31.861  -8.820 -22.409  0.00  0.00    +0.254 C 
ATOM      7  C   UNL     1      33.936  -8.457 -23.582  0.00  0.00    +0.254 C 
ENDROOT
BRANCH   3   8
ATOM      8  C   UNL     1      31.346  -6.418 -22.048  0.00  0.00    +0.073 C 
ATOM      9  C   UNL     1      31.765  -6.061 -20.763  0.00  0.00    +0.017 C 
ATOM     10  C   UNL     1      30.276  -5.746 -22.640  0.00  0.00    +0.017 C 
ATOM     11  C   UNL     1      31.115  -5.036 -20.076  0.00  0.00    +0.001 C 
ATOM     12  C   UNL     1      29.626  -4.721 -21.952  0.00  0.00    +0.001 C 
ATOM     13  C   UNL     1      30.046  -4.366 -20.670  0.00  0.00    +0.000 C 
ENDBRANCH   3   8
BRANCH   4  14
ATOM     14  C   UNL     1      33.309  -6.253 -24.529  0.00  0.00    +0.073 C 
ATOM     15  C   UNL     1      34.195  -5.195 -24.308  0.00  0.00    +0.017 C 
ATOM     16  C   UNL     1      32.566  -6.297 -25.712  0.00  0.00    +0.017 C 
ATOM     17  C   UNL     1      34.336  -4.188 -25.263  0.00  0.00    +0.001 C 
ATOM     18  C   UNL     1      32.707  -5.290 -26.666  0.00  0.00    +0.001 C 
ATOM     19  C   UNL     1      33.593  -4.235 -26.442  0.00  0.00    +0.000 C 
ENDBRANCH   4  14
BRANCH   5  20
ATOM     20  C   UNL     1      32.807 -10.682 -23.778  0.00  0.00    +0.033 C 
BRANCH  20  21
ATOM     21  C   UNL     1      33.513 -11.951 -23.318  0.00  0.00    +0.097 C 
BRANCH  21  22
ATOM     22  S   UNL     1      32.476 -12.879 -22.148  0.00  0.00    +0.065 S 
ATOM     23  O   UNL     1      32.684 -12.267 -20.798  0.00  0.00    -0.251 OA
BRANCH  22  24
ATOM     24  C   UNL     1      33.436 -14.406 -22.170  0.00  0.00    +0.056 C 
ATOM     25  C   UNL     1      33.828 -14.953 -23.386  0.00  0.00    +0.009 C 
ATOM     26  C   UNL     1      33.777 -15.021 -20.971  0.00  0.00    +0.009 C 
ATOM     27  C   UNL     1      34.570 -16.134 -23.403  0.00  0.00    +0.001 C 
ATOM     28  C   UNL     1      34.520 -16.201 -20.989  0.00  0.00    +0.001 C 
ATOM     29  C   UNL     1      34.917 -16.758 -22.205  0.00  0.00    +0.000 C 
ENDBRANCH  22  24
ENDBRANCH  21  22
ENDBRANCH  20  21
ENDBRANCH   5  20
TORSDOF 6
ENDMDL
MODEL 4
REMARK VINA RESULT:     -10.2      3.685      7.049
REMARK  Name = 5342
REMARK  6 active torsions:
REMARK  status: ('A' for Active; 'I' for Inactive)
REMARK    1  A    between atoms: N_3  and  C_8
REMARK    2  A    between atoms: N_4  and  C_14
REMARK    3  A    between atoms: C_5  and  C_20
REMARK    4  A    between atoms: C_20  and  C_21
REMARK    5  A    between atoms: C_21  and  S_22
REMARK    6  A    between atoms: S_22  and  C_24
REMARK                            x       y       z     vdW  Elec       q    Type
REMARK                         _______ _______ _______ _____ _____    ______ ____
ROOT
ATOM      1  O   UNL     1      30.204 -21.467 -17.269  0.00  0.00    -0.272 OA
ATOM      2  O   UNL     1      34.551 -22.804 -18.525  0.00  0.00    -0.272 OA
ATOM      3  N   UNL     1      31.942 -22.678 -16.178  0.00  0.00    -0.179 N 
ATOM      4  N   UNL     1      33.282 -22.982 -16.518  0.00  0.00    -0.179 N 
ATOM      5  C   UNL     1      32.295 -21.965 -18.367  0.00  0.00    +0.158 C 
ATOM      6  C   UNL     1      31.326 -21.949 -17.208  0.00  0.00    +0.254 C 
ATOM      7  C   UNL     1      33.534 -22.665 -17.863  0.00  0.00    +0.254 C 
ENDROOT
BRANCH   3   8
ATOM      8  C   UNL     1      31.196 -23.353 -15.164  0.00  0.00    +0.073 C 
ATOM      9  C   UNL     1      30.351 -24.413 -15.504  0.00  0.00    +0.017 C 
ATOM     10  C   UNL     1      31.309 -22.956 -13.831  0.00  0.00    +0.017 C 
ATOM     11  C   UNL     1      29.623 -25.071 -14.513  0.00  0.00    +0.001 C 
ATOM     12  C   UNL     1      30.581 -23.615 -12.840  0.00  0.00    +0.001 C 
ATOM     13  C   UNL     1      29.738 -24.673 -13.182  0.00  0.00    +0.000 C 
ENDBRANCH   3   8
BRANCH   4  14
ATOM     14  C   UNL     1      34.332 -23.154 -15.566  0.00  0.00    +0.073 C 
ATOM     15  C   UNL     1      34.523 -24.393 -14.948  0.00  0.00    +0.017 C 
ATOM     16  C   UNL     1      35.176 -22.086 -15.251  0.00  0.00    +0.017 C 
ATOM     17  C   UNL     1      35.549 -24.561 -14.019  0.00  0.00    +0.001 C 
ATOM     18  C   UNL     1      36.203 -22.255 -14.322  0.00  0.00    +0.001 C 
ATOM     19  C   UNL     1      36.389 -23.493 -13.706  0.00  0.00    +0.000 C 
ENDBRANCH   4  14
BRANCH   5  20
ATOM     20  C   UNL     1      32.606 -20.555 -18.838  0.00  0.00    +0.033 C 
BRANCH  20  21
ATOM     21  C   UNL     1      32.856 -20.514 -20.339  0.00  0.00    +0.097 C 
BRANCH  21  22
ATOM     22  S   UNL     1      34.630 -20.316 -20.692  0.00  0.00    +0.065 S 
ATOM     23  O   UNL     1      35.286 -19.896 -19.414  0.00  0.00    -0.251 OA
BRANCH  22  24
ATOM     24  C   UNL     1      34.486 -18.830 -21.704  0.00  0.00    +0.056 C 
ATOM     25  C   UNL     1      33.992 -18.927 -23.000  0.00  0.00    +0.009 C 
ATOM     26  C   UNL     1      34.870 -17.602 -21.180  0.00  0.00    +0.009 C 
ATOM     27  C   UNL     1      33.881 -17.778 -23.783  0.00  0.00    +0.001 C 
ATOM     28  C   UNL     1      34.758 -16.453 -21.963  0.00  0.00    +0.001 C 
ATOM     29  C   UNL     1      34.264 -16.541 -23.265  0.00  0.00    +0.000 C 
ENDBRANCH  22  24
ENDBRANCH  21  22
ENDBRANCH  20  21
ENDBRANCH   5  20
TORSDOF 6
ENDMDL
MODEL 5
REMARK VINA RESULT:      -9.9     16.000     18.960
REMARK  Name = 5342
REMARK  6 active torsions:
REMARK  status: ('A' for Active; 'I' for Inactive)
REMARK    1  A    between atoms: N_3  and  C_8
REMARK    2  A    between atoms: N_4  and  C_14
REMARK    3  A    between atoms: C_5  and  C_20
REMARK    4  A    between atoms: C_20  and  C_21
REMARK    5  A    between atoms: C_21  and  S_22
REMARK    6  A    between atoms: S_22  and  C_24
REMARK                            x       y       z     vdW  Elec       q    Type
REMARK                         _______ _______ _______ _____ _____    ______ ____
ROOT
ATOM      1  O   UNL     1      30.134  -6.943 -22.602  0.00  0.00    -0.272 OA
ATOM      2  O   UNL     1      34.604  -7.932 -23.745  0.00  0.00    -0.272 OA
ATOM      3  N   UNL     1      31.847  -5.757 -23.756  0.00  0.00    -0.179 N 
ATOM      4  N   UNL     1      33.150  -6.100 -24.191  0.00  0.00    -0.179 N 
ATOM      5  C   UNL     1      32.343  -7.867 -22.904  0.00  0.00    +0.158 C 
ATOM      6  C   UNL     1      31.255  -6.833 -23.078  0.00  0.00    +0.254 C 
ATOM      7  C   UNL     1      33.551  -7.323 -23.630  0.00  0.00    +0.254 C 
ENDROOT
BRANCH   3   8
ATOM      8  C   UNL     1      31.365  -4.418 -23.638  0.00  0.00    +0.073 C 
ATOM      9  C   UNL     1      31.470  -3.739 -22.421  0.00  0.00    +0.017 C 
ATOM     10  C   UNL     1      30.789  -3.781 -24.739  0.00  0.00    +0.017 C 
ATOM     11  C   UNL     1      30.999  -2.432 -22.306  0.00  0.00    +0.001 C 
ATOM     12  C   UNL     1      30.318  -2.473 -24.623  0.00  0.00    +0.001 C 
ATOM     13  C   UNL     1      30.424  -1.799 -23.408  0.00  0.00    +0.000 C 
ENDBRANCH   3   8
BRANCH   4  14
ATOM     14  C   UNL     1      33.782  -5.548 -25.346  0.00  0.00    +0.073 C 
ATOM     15  C   UNL     1      33.283  -5.827 -26.621  0.00  0.00    +0.017 C 
ATOM     16  C   UNL     1      34.902  -4.724 -25.207  0.00  0.00    +0.017 C 
ATOM     17  C   UNL     1      33.900  -5.287 -27.749  0.00  0.00    +0.001 C 
ATOM     18  C   UNL     1      35.519  -4.184 -26.335  0.00  0.00    +0.001 C 
ATOM     19  C   UNL     1      35.018  -4.466 -27.607  0.00  0.00    +0.000 C 
ENDBRANCH   4  14
BRANCH   5  20
ATOM     20  C   UNL     1      31.916  -9.211 -23.465  0.00  0.00    +0.033 C 
BRANCH  20  21
ATOM     21  C   UNL     1      32.698 -10.353 -22.830  0.00  0.00    +0.097 C 
BRANCH  21  22
ATOM     22  S   UNL     1      31.583 -11.484 -21.943  0.00  0.00    +0.065 S 
ATOM     23  O   UNL     1      31.571 -11.051 -20.510  0.00  0.00    -0.251 OA
BRANCH  22  24
ATOM     24  C   UNL     1      32.642 -12.942 -22.027  0.00  0.00    +0.056 C 
ATOM     25  C   UNL     1      33.044 -13.568 -20.853  0.00  0.00    +0.009 C 
ATOM     26  C   UNL     1      33.045 -13.427 -23.266  0.00  0.00    +0.009 C 
ATOM     27  C   UNL     1      33.863 -14.695 -20.918  0.00  0.00    +0.001 C 
ATOM     28  C   UNL     1      33.863 -14.556 -23.330  0.00  0.00    +0.001 C 
ATOM     29  C   UNL     1      34.272 -15.189 -22.156  0.00  0.00    +0.000 C 
ENDBRANCH  22  24
ENDBRANCH  21  22
ENDBRANCH  20  21
ENDBRANCH   5  20
TORSDOF 6
ENDMDL
MODEL 6
REMARK VINA RESULT:      -9.7     14.380     17.391
REMARK  Name = 5342
REMARK  6 active torsions:
REMARK  status: ('A' for Active; 'I' for Inactive)
REMARK    1  A    between atoms: N_3  and  C_8
REMARK    2  A    between atoms: N_4  and  C_14
REMARK    3  A    between atoms: C_5  and  C_20
REMARK    4  A    between atoms: C_20  and  C_21
REMARK    5  A    between atoms: C_21  and  S_22
REMARK    6  A    between atoms: S_22  and  C_24
REMARK                            x       y       z     vdW  Elec       q    Type
REMARK                         _______ _______ _______ _____ _____    ______ ____
ROOT
ATOM      1  O   UNL     1      34.275  -9.462 -24.064  0.00  0.00    -0.272 OA
ATOM      2  O   UNL     1      30.020  -9.376 -22.028  0.00  0.00    -0.272 OA
ATOM      3  N   UNL     1      32.754  -7.723 -23.486  0.00  0.00    -0.179 N 
ATOM      4  N   UNL     1      31.528  -7.693 -22.777  0.00  0.00    -0.179 N 
ATOM      5  C   UNL     1      32.132  -9.926 -23.056  0.00  0.00    +0.158 C 
ATOM      6  C   UNL     1      33.237  -9.037 -23.578  0.00  0.00    +0.254 C 
ATOM      7  C   UNL     1      31.046  -8.995 -22.571  0.00  0.00    +0.254 C 
ENDROOT
BRANCH   3   8
ATOM      8  C   UNL     1      33.216  -6.674 -24.337  0.00  0.00    +0.073 C 
ATOM      9  C   UNL     1      34.192  -5.782 -23.884  0.00  0.00    +0.017 C 
ATOM     10  C   UNL     1      32.696  -6.537 -25.626  0.00  0.00    +0.017 C 
ATOM     11  C   UNL     1      34.644  -4.758 -24.717  0.00  0.00    +0.001 C 
ATOM     12  C   UNL     1      33.149  -5.512 -26.457  0.00  0.00    +0.001 C 
ATOM     13  C   UNL     1      34.122  -4.624 -26.003  0.00  0.00    +0.000 C 
ENDBRANCH   3   8
BRANCH   4  14
ATOM     14  C   UNL     1      31.074  -6.581 -22.005  0.00  0.00    +0.073 C 
ATOM     15  C   UNL     1      31.575  -6.369 -20.718  0.00  0.00    +0.017 C 
ATOM     16  C   UNL     1      30.129  -5.698 -22.533  0.00  0.00    +0.017 C 
ATOM     17  C   UNL     1      31.133  -5.283 -19.964  0.00  0.00    +0.001 C 
ATOM     18  C   UNL     1      29.686  -4.612 -21.779  0.00  0.00    +0.001 C 
ATOM     19  C   UNL     1      30.189  -4.404 -20.494  0.00  0.00    +0.000 C 
ENDBRANCH   4  14
BRANCH   5  20
ATOM     20  C   UNL     1      32.634 -10.824 -21.940  0.00  0.00    +0.033 C 
BRANCH  20  21
ATOM     21  C   UNL     1      32.340 -12.289 -22.231  0.00  0.00    +0.097 C 
BRANCH  21  22
ATOM     22  S   UNL     1      33.443 -12.924 -23.531  0.00  0.00    +0.065 S 
ATOM     23  O   UNL     1      32.575 -13.344 -24.675  0.00  0.00    -0.251 OA
BRANCH  22  24
ATOM     24  C   UNL     1      33.934 -14.436 -22.680  0.00  0.00    +0.056 C 
ATOM     25  C   UNL     1      34.386 -15.524 -23.418  0.00  0.00    +0.009 C 
ATOM     26  C   UNL     1      33.857 -14.501 -21.294  0.00  0.00    +0.009 C 
ATOM     27  C   UNL     1      34.766 -16.694 -22.761  0.00  0.00    +0.001 C 
ATOM     28  C   UNL     1      34.237 -15.672 -20.636  0.00  0.00    +0.001 C 
ATOM     29  C   UNL     1      34.692 -16.768 -21.370  0.00  0.00    +0.000 C 
ENDBRANCH  22  24
ENDBRANCH  21  22
ENDBRANCH  20  21
ENDBRANCH   5  20
TORSDOF 6
ENDMDL
MODEL 7
REMARK VINA RESULT:      -9.7      2.259      7.102
REMARK  Name = 5342
REMARK  6 active torsions:
REMARK  status: ('A' for Active; 'I' for Inactive)
REMARK    1  A    between atoms: N_3  and  C_8
REMARK    2  A    between atoms: N_4  and  C_14
REMARK    3  A    between atoms: C_5  and  C_20
REMARK    4  A    between atoms: C_20  and  C_21
REMARK    5  A    between atoms: C_21  and  S_22
REMARK    6  A    between atoms: S_22  and  C_24
REMARK                            x       y       z     vdW  Elec       q    Type
REMARK                         _______ _______ _______ _____ _____    ______ ____
ROOT
ATOM      1  O   UNL     1      35.205 -22.265 -14.770  0.00  0.00    -0.272 OA
ATOM      2  O   UNL     1      31.814 -25.182 -13.268  0.00  0.00    -0.272 OA
ATOM      3  N   UNL     1      32.993 -22.748 -15.508  0.00  0.00    -0.179 N 
ATOM      4  N   UNL     1      31.942 -23.543 -14.990  0.00  0.00    -0.179 N 
ATOM      5  C   UNL     1      33.831 -23.922 -13.680  0.00  0.00    +0.158 C 
ATOM      6  C   UNL     1      34.127 -22.835 -14.687  0.00  0.00    +0.254 C 
ATOM      7  C   UNL     1      32.407 -24.353 -13.942  0.00  0.00    +0.254 C 
ENDROOT
BRANCH   3   8
ATOM      8  C   UNL     1      33.055 -22.275 -16.854  0.00  0.00    +0.073 C 
ATOM      9  C   UNL     1      34.275 -22.265 -17.538  0.00  0.00    +0.017 C 
ATOM     10  C   UNL     1      31.899 -21.822 -17.492  0.00  0.00    +0.017 C 
ATOM     11  C   UNL     1      34.335 -21.804 -18.852  0.00  0.00    +0.001 C 
ATOM     12  C   UNL     1      31.961 -21.361 -18.807  0.00  0.00    +0.001 C 
ATOM     13  C   UNL     1      33.178 -21.352 -19.487  0.00  0.00    +0.000 C 
ENDBRANCH   3   8
BRANCH   4  14
ATOM     14  C   UNL     1      30.555 -23.261 -15.177  0.00  0.00    +0.073 C 
ATOM     15  C   UNL     1      29.748 -24.150 -15.892  0.00  0.00    +0.017 C 
ATOM     16  C   UNL     1      29.997 -22.096 -14.645  0.00  0.00    +0.017 C 
ATOM     17  C   UNL     1      28.393 -23.875 -16.074  0.00  0.00    +0.001 C 
ATOM     18  C   UNL     1      28.642 -21.821 -14.826  0.00  0.00    +0.001 C 
ATOM     19  C   UNL     1      27.839 -22.712 -15.542  0.00  0.00    +0.000 C 
ENDBRANCH   4  14
BRANCH   5  20
ATOM     20  C   UNL     1      34.005 -23.414 -12.260  0.00  0.00    +0.033 C 
BRANCH  20  21
ATOM     21  C   UNL     1      34.905 -24.334 -11.447  0.00  0.00    +0.097 C 
BRANCH  21  22
ATOM     22  S   UNL     1      36.540 -23.578 -11.192  0.00  0.00    +0.065 S 
ATOM     23  O   UNL     1      36.445 -22.161 -11.666  0.00  0.00    -0.251 OA
BRANCH  22  24
ATOM     24  C   UNL     1      37.405 -24.492 -12.484  0.00  0.00    +0.056 C 
ATOM     25  C   UNL     1      38.668 -24.078 -12.890  0.00  0.00    +0.009 C 
ATOM     26  C   UNL     1      36.802 -25.603 -13.062  0.00  0.00    +0.009 C 
ATOM     27  C   UNL     1      39.338 -24.785 -13.890  0.00  0.00    +0.001 C 
ATOM     28  C   UNL     1      37.472 -26.310 -14.061  0.00  0.00    +0.001 C 
ATOM     29  C   UNL     1      38.740 -25.901 -14.474  0.00  0.00    +0.000 C 
ENDBRANCH  22  24
ENDBRANCH  21  22
ENDBRANCH  20  21
ENDBRANCH   5  20
TORSDOF 6
ENDMDL
MODEL 8
REMARK VINA RESULT:      -9.5      0.740      3.778
REMARK  Name = 5342
REMARK  6 active torsions:
REMARK  status: ('A' for Active; 'I' for Inactive)
REMARK    1  A    between atoms: N_3  and  C_8
REMARK    2  A    between atoms: N_4  and  C_14
REMARK    3  A    between atoms: C_5  and  C_20
REMARK    4  A    between atoms: C_20  and  C_21
REMARK    5  A    between atoms: C_21  and  S_22
REMARK    6  A    between atoms: S_22  and  C_24
REMARK                            x       y       z     vdW  Elec       q    Type
REMARK                         _______ _______ _______ _____ _____    ______ ____
ROOT
ATOM      1  O   UNL     1      33.334 -24.034 -12.344  0.00  0.00    -0.272 OA
ATOM      2  O   UNL     1      31.909 -23.018 -16.726  0.00  0.00    -0.272 OA
ATOM      3  N   UNL     1      34.469 -23.558 -14.384  0.00  0.00    -0.179 N 
ATOM      4  N   UNL     1      34.038 -23.147 -15.668  0.00  0.00    -0.179 N 
ATOM      5  C   UNL     1      32.141 -23.615 -14.399  0.00  0.00    +0.158 C 
ATOM      6  C   UNL     1      33.370 -23.735 -13.529  0.00  0.00    +0.254 C 
ATOM      7  C   UNL     1      32.642 -23.252 -15.777  0.00  0.00    +0.254 C 
ENDROOT
BRANCH   3   8
ATOM      8  C   UNL     1      35.754 -24.116 -14.107  0.00  0.00    +0.073 C 
ATOM      9  C   UNL     1      36.175 -25.271 -14.772  0.00  0.00    +0.017 C 
ATOM     10  C   UNL     1      36.594 -23.510 -13.171  0.00  0.00    +0.017 C 
ATOM     11  C   UNL     1      37.430 -25.815 -14.501  0.00  0.00    +0.001 C 
ATOM     12  C   UNL     1      37.849 -24.055 -12.901  0.00  0.00    +0.001 C 
ATOM     13  C   UNL     1      38.267 -25.207 -13.566  0.00  0.00    +0.000 C 
ENDBRANCH   3   8
BRANCH   4  14
ATOM     14  C   UNL     1      34.812 -22.338 -16.554  0.00  0.00    +0.073 C 
ATOM     15  C   UNL     1      34.400 -22.153 -17.877  0.00  0.00    +0.017 C 
ATOM     16  C   UNL     1      35.984 -21.726 -16.103  0.00  0.00    +0.017 C 
ATOM     17  C   UNL     1      35.156 -21.363 -18.742  0.00  0.00    +0.001 C 
ATOM     18  C   UNL     1      36.740 -20.936 -16.968  0.00  0.00    +0.001 C 
ATOM     19  C   UNL     1      36.326 -20.754 -18.289  0.00  0.00    +0.000 C 
ENDBRANCH   4  14
BRANCH   5  20
ATOM     20  C   UNL     1      31.189 -22.562 -13.859  0.00  0.00    +0.033 C 
BRANCH  20  21
ATOM     21  C   UNL     1      30.225 -23.155 -12.841  0.00  0.00    +0.097 C 
BRANCH  21  22
ATOM     22  S   UNL     1      29.316 -24.560 -13.555  0.00  0.00    +0.065 S 
ATOM     23  O   UNL     1      30.322 -25.426 -14.247  0.00  0.00    -0.251 OA
BRANCH  22  24
ATOM     24  C   UNL     1      28.464 -23.634 -14.847  0.00  0.00    +0.056 C 
ATOM     25  C   UNL     1      27.997 -22.353 -14.580  0.00  0.00    +0.009 C 
ATOM     26  C   UNL     1      28.284 -24.209 -16.100  0.00  0.00    +0.009 C 
ATOM     27  C   UNL     1      27.338 -21.636 -15.579  0.00  0.00    +0.001 C 
ATOM     28  C   UNL     1      27.626 -23.492 -17.099  0.00  0.00    +0.001 C 
ATOM     29  C   UNL     1      27.153 -22.206 -16.839  0.00  0.00    +0.000 C 
ENDBRANCH  22  24
ENDBRANCH  21  22
ENDBRANCH  20  21
ENDBRANCH   5  20
TORSDOF 6
ENDMDL
MODEL 9
REMARK VINA RESULT:      -8.7      1.300      1.805
REMARK  Name = 5342
REMARK  6 active torsions:
REMARK  status: ('A' for Active; 'I' for Inactive)
REMARK    1  A    between atoms: N_3  and  C_8
REMARK    2  A    between atoms: N_4  and  C_14
REMARK    3  A    between atoms: C_5  and  C_20
REMARK    4  A    between atoms: C_20  and  C_21
REMARK    5  A    between atoms: C_21  and  S_22
REMARK    6  A    between atoms: S_22  and  C_24
REMARK                            x       y       z     vdW  Elec       q    Type
REMARK                         _______ _______ _______ _____ _____    ______ ____
ROOT
ATOM      1  O   UNL     1      32.100 -23.097 -16.210  0.00  0.00    -0.272 OA
ATOM      2  O   UNL     1      34.528 -24.192 -12.316  0.00  0.00    -0.272 OA
ATOM      3  N   UNL     1      34.420 -23.185 -15.678  0.00  0.00    -0.179 N 
ATOM      4  N   UNL     1      35.146 -23.619 -14.542  0.00  0.00    -0.179 N 
ATOM      5  C   UNL     1      32.880 -23.679 -14.002  0.00  0.00    +0.158 C 
ATOM      6  C   UNL     1      33.040 -23.317 -15.460  0.00  0.00    +0.254 C 
ATOM      7  C   UNL     1      34.280 -23.840 -13.459  0.00  0.00    +0.254 C 
ENDROOT
BRANCH   3   8
ATOM      8  C   UNL     1      34.958 -22.354 -16.707  0.00  0.00    +0.073 C 
ATOM      9  C   UNL     1      34.336 -22.294 -17.957  0.00  0.00    +0.017 C 
ATOM     10  C   UNL     1      36.107 -21.597 -16.468  0.00  0.00    +0.017 C 
ATOM     11  C   UNL     1      34.862 -21.483 -18.962  0.00  0.00    +0.001 C 
ATOM     12  C   UNL     1      36.632 -20.786 -17.473  0.00  0.00    +0.001 C 
ATOM     13  C   UNL     1      36.010 -20.728 -18.720  0.00  0.00    +0.000 C 
ENDBRANCH   3   8
BRANCH   4  14
ATOM     14  C   UNL     1      36.460 -24.174 -14.593  0.00  0.00    +0.073 C 
ATOM     15  C   UNL     1      36.635 -25.558 -14.676  0.00  0.00    +0.017 C 
ATOM     16  C   UNL     1      37.578 -23.337 -14.564  0.00  0.00    +0.017 C 
ATOM     17  C   UNL     1      37.918 -26.101 -14.727  0.00  0.00    +0.001 C 
ATOM     18  C   UNL     1      38.862 -23.879 -14.615  0.00  0.00    +0.001 C 
ATOM     19  C   UNL     1      39.032 -25.262 -14.696  0.00  0.00    +0.000 C 
ENDBRANCH   4  14
BRANCH   5  20
ATOM     20  C   UNL     1      32.071 -24.953 -13.841  0.00  0.00    +0.033 C 
BRANCH  20  21
ATOM     21  C   UNL     1      30.922 -24.761 -12.859  0.00  0.00    +0.097 C 
BRANCH  21  22
ATOM     22  S   UNL     1      30.407 -23.018 -12.802  0.00  0.00    +0.065 S 
ATOM     23  O   UNL     1      29.526 -22.861 -11.601  0.00  0.00    -0.251 OA
BRANCH  22  24
ATOM     24  C   UNL     1      29.312 -23.067 -14.234  0.00  0.00    +0.056 C 
ATOM     25  C   UNL     1      28.848 -24.291 -14.702  0.00  0.00    +0.009 C 
ATOM     26  C   UNL     1      28.942 -21.881 -14.858  0.00  0.00    +0.009 C 
ATOM     27  C   UNL     1      28.002 -24.330 -15.811  0.00  0.00    +0.001 C 
ATOM     28  C   UNL     1      28.095 -21.920 -15.966  0.00  0.00    +0.001 C 
ATOM     29  C   UNL     1      27.625 -23.145 -16.442  0.00  0.00    +0.000 C 
ENDBRANCH  22  24
ENDBRANCH  21  22
ENDBRANCH  20  21
ENDBRANCH   5  20
TORSDOF 6
ENDMDL
