MODEL 1
REMARK VINA RESULT:     -12.8      0.000      0.000
REMARK  Name = 42642648
REMARK  5 active torsions:
REMARK  status: ('A' for Active; 'I' for Inactive)
REMARK    1  A    between atoms: N_1  and  C_22
REMARK    2  A    between atoms: C_4  and  N_15
REMARK    3  A    between atoms: C_25  and  O_28
REMARK    4  A    between atoms: O_28  and  C_29
REMARK    5  A    between atoms: C_29  and  C_32
REMARK                            x       y       z     vdW  Elec       q    Type
REMARK                         _______ _______ _______ _____ _____    ______ ____
ROOT
ATOM      1  N   UNL     1      32.623 -22.469 -17.469  0.00  0.00    -0.301 N 
ATOM      2  N   UNL     1      29.201 -22.646 -15.148  0.00  0.00    -0.248 NA
ATOM      3  N   UNL     1      30.314 -22.093 -17.212  0.00  0.00    -0.233 NA
ATOM      4  C   UNL     1      32.791 -24.002 -13.518  0.00  0.00    +0.048 C 
ATOM      5  C   UNL     1      31.555 -23.046 -15.369  0.00  0.00    +0.117 C 
ATOM      6  C   UNL     1      32.764 -23.504 -14.817  0.00  0.00    +0.001 C 
ATOM      7  C   UNL     1      30.363 -23.081 -14.629  0.00  0.00    +0.067 C 
ATOM      8  C   UNL     1      31.461 -22.536 -16.661  0.00  0.00    +0.115 C 
ATOM      9  C   UNL     1      31.616 -24.042 -12.775  0.00  0.00    +0.016 C 
ATOM     10  C   UNL     1      30.419 -23.584 -13.330  0.00  0.00    +0.016 C 
ATOM     11  C   UNL     1      29.240 -22.176 -16.410  0.00  0.00    +0.251 C 
ATOM     12  H   UNL     1      33.285 -23.170 -17.272  0.00  0.00    +0.153 HD
ENDROOT
BRANCH   4  15
ATOM     13  O   UNL     1      36.233 -24.705 -12.548  0.00  0.00    -0.448 OA
ATOM     14  N   UNL     1      35.635 -23.157 -14.118  0.00  0.00    -0.222 NA
ATOM     15  N   UNL     1      33.999 -24.462 -12.958  0.00  0.00    -0.269 N 
ATOM     16  C   UNL     1      37.094 -23.081 -13.943  0.00  0.00    +0.151 C 
ATOM     17  C   UNL     1      37.451 -24.340 -13.182  0.00  0.00    +0.233 C 
ATOM     18  C   UNL     1      35.264 -24.055 -13.257  0.00  0.00    +0.284 C 
ATOM     19  C   UNL     1      37.782 -22.982 -15.291  0.00  0.00    +0.030 C 
ATOM     20  H   UNL     1      33.920 -25.162 -12.270  0.00  0.00    +0.157 HD
ENDBRANCH   4  15
BRANCH   1  22
ATOM     21 CL   UNL     1      36.432 -20.330 -20.130  0.00  0.00    -0.079 Cl
ATOM     22  C   UNL     1      33.012 -21.594 -18.497  0.00  0.00    +0.050 C 
ATOM     23  C   UNL     1      34.365 -21.409 -18.780  0.00  0.00    +0.029 C 
ATOM     24  C   UNL     1      32.046 -20.911 -19.233  0.00  0.00    +0.018 C 
ATOM     25  C   UNL     1      33.784 -19.857 -20.539  0.00  0.00    +0.150 C 
ATOM     26  C   UNL     1      34.752 -20.541 -19.801  0.00  0.00    +0.093 C 
ATOM     27  C   UNL     1      32.432 -20.043 -20.254  0.00  0.00    +0.039 C 
BRANCH  25  28
ATOM     28  O   UNL     1      34.133 -19.003 -21.542  0.00  0.00    -0.468 OA
BRANCH  28  29
ATOM     29  C   UNL     1      34.652 -17.731 -21.156  0.00  0.00    +0.257 C 
BRANCH  29  32
ATOM     30  S   UNL     1      34.155 -15.095 -21.868  0.00  0.00    -0.067 S 
ATOM     31  N   UNL     1      34.370 -17.056 -23.539  0.00  0.00    -0.237 NA
ATOM     32  C   UNL     1      34.408 -16.746 -22.262  0.00  0.00    +0.132 C 
ATOM     33  C   UNL     1      33.980 -14.750 -23.538  0.00  0.00    +0.057 C 
ATOM     34  C   UNL     1      34.125 -15.910 -24.270  0.00  0.00    +0.106 C 
ENDBRANCH  29  32
ENDBRANCH  28  29
ENDBRANCH  25  28
ENDBRANCH   1  22
TORSDOF 5
ENDMDL
MODEL 2
REMARK VINA RESULT:     -12.7      5.298      9.414
REMARK  Name = 42642648
REMARK  5 active torsions:
REMARK  status: ('A' for Active; 'I' for Inactive)
REMARK    1  A    between atoms: N_1  and  C_22
REMARK    2  A    between atoms: C_4  and  N_15
REMARK    3  A    between atoms: C_25  and  O_28
REMARK    4  A    between atoms: O_28  and  C_29
REMARK    5  A    between atoms: C_29  and  C_32
REMARK                            x       y       z     vdW  Elec       q    Type
REMARK                         _______ _______ _______ _____ _____    ______ ____
ROOT
ATOM      1  N   UNL     1      33.961 -14.601 -22.032  0.00  0.00    -0.301 N 
ATOM      2  N   UNL     1      33.523 -17.426 -25.025  0.00  0.00    -0.248 NA
ATOM      3  N   UNL     1      33.234 -15.183 -24.193  0.00  0.00    -0.233 NA
ATOM      4  C   UNL     1      35.326 -18.574 -21.446  0.00  0.00    +0.048 C 
ATOM      5  C   UNL     1      34.279 -16.874 -22.818  0.00  0.00    +0.117 C 
ATOM      6  C   UNL     1      34.888 -17.264 -21.612  0.00  0.00    +0.001 C 
ATOM      7  C   UNL     1      34.103 -17.789 -23.868  0.00  0.00    +0.067 C 
ATOM      8  C   UNL     1      33.819 -15.580 -23.047  0.00  0.00    +0.115 C 
ATOM      9  C   UNL     1      35.157 -19.489 -22.479  0.00  0.00    +0.016 C 
ATOM     10  C   UNL     1      34.550 -19.094 -23.674  0.00  0.00    +0.016 C 
ATOM     11  C   UNL     1      33.120 -16.143 -25.125  0.00  0.00    +0.251 C 
ATOM     12  H   UNL     1      34.744 -14.741 -21.453  0.00  0.00    +0.153 HD
ENDROOT
BRANCH   4  15
ATOM     13  O   UNL     1      36.391 -20.152 -18.339  0.00  0.00    -0.448 OA
ATOM     14  N   UNL     1      34.689 -20.927 -19.651  0.00  0.00    -0.222 NA
ATOM     15  N   UNL     1      35.936 -18.972 -20.240  0.00  0.00    -0.269 N 
ATOM     16  C   UNL     1      34.874 -21.879 -18.545  0.00  0.00    +0.151 C 
ATOM     17  C   UNL     1      35.742 -21.140 -17.549  0.00  0.00    +0.233 C 
ATOM     18  C   UNL     1      35.619 -20.042 -19.459  0.00  0.00    +0.284 C 
ATOM     19  C   UNL     1      33.530 -22.292 -17.975  0.00  0.00    +0.030 C 
ATOM     20  H   UNL     1      36.680 -18.409 -19.924  0.00  0.00    +0.157 HD
ENDBRANCH   4  15
BRANCH   1  22
ATOM     21 CL   UNL     1      32.355  -9.918 -23.316  0.00  0.00    -0.079 Cl
ATOM     22  C   UNL     1      33.201 -13.469 -21.695  0.00  0.00    +0.050 C 
ATOM     23  C   UNL     1      33.153 -12.378 -22.561  0.00  0.00    +0.029 C 
ATOM     24  C   UNL     1      32.495 -13.438 -20.493  0.00  0.00    +0.018 C 
ATOM     25  C   UNL     1      31.690 -11.223 -21.024  0.00  0.00    +0.150 C 
ATOM     26  C   UNL     1      32.397 -11.254 -22.227  0.00  0.00    +0.093 C 
ATOM     27  C   UNL     1      31.739 -12.314 -20.157  0.00  0.00    +0.039 C 
BRANCH  25  28
ATOM     28  O   UNL     1      30.944 -10.138 -20.670  0.00  0.00    -0.468 OA
BRANCH  28  29
ATOM     29  C   UNL     1      31.400  -9.375 -19.554  0.00  0.00    +0.257 C 
BRANCH  29  32
ATOM     30  S   UNL     1      31.228  -7.506 -21.598  0.00  0.00    -0.067 S 
ATOM     31  N   UNL     1      31.973  -6.978 -19.180  0.00  0.00    -0.237 NA
ATOM     32  C   UNL     1      31.571  -7.945 -19.975  0.00  0.00    +0.132 C 
ATOM     33  C   UNL     1      31.646  -5.887 -21.223  0.00  0.00    +0.057 C 
ATOM     34  C   UNL     1      32.016  -5.799 -19.897  0.00  0.00    +0.106 C 
ENDBRANCH  29  32
ENDBRANCH  28  29
ENDBRANCH  25  28
ENDBRANCH   1  22
TORSDOF 5
ENDMDL
MODEL 3
REMARK VINA RESULT:     -12.6      1.612      2.189
REMARK  Name = 42642648
REMARK  5 active torsions:
REMARK  status: ('A' for Active; 'I' for Inactive)
REMARK    1  A    between atoms: N_1  and  C_22
REMARK    2  A    between atoms: C_4  and  N_15
REMARK    3  A    between atoms: C_25  and  O_28
REMARK    4  A    between atoms: O_28  and  C_29
REMARK    5  A    between atoms: C_29  and  C_32
REMARK                            x       y       z     vdW  Elec       q    Type
REMARK                         _______ _______ _______ _____ _____    ______ ____
ROOT
ATOM      1  N   UNL     1      34.421 -22.381 -17.279  0.00  0.00    -0.301 N 
ATOM      2  N   UNL     1      31.279 -23.469 -14.814  0.00  0.00    -0.248 NA
ATOM      3  N   UNL     1      32.120 -22.749 -16.955  0.00  0.00    -0.233 NA
ATOM      4  C   UNL     1      35.139 -23.464 -13.242  0.00  0.00    +0.048 C 
ATOM      5  C   UNL     1      33.631 -23.105 -15.103  0.00  0.00    +0.117 C 
ATOM      6  C   UNL     1      34.933 -23.105 -14.569  0.00  0.00    +0.001 C 
ATOM      7  C   UNL     1      32.527 -23.464 -14.314  0.00  0.00    +0.067 C 
ATOM      8  C   UNL     1      33.357 -22.756 -16.422  0.00  0.00    +0.115 C 
ATOM      9  C   UNL     1      34.053 -23.821 -12.450  0.00  0.00    +0.016 C 
ATOM     10  C   UNL     1      32.763 -23.818 -12.987  0.00  0.00    +0.016 C 
ATOM     11  C   UNL     1      31.143 -23.111 -16.107  0.00  0.00    +0.251 C 
ATOM     12  H   UNL     1      35.277 -22.814 -17.061  0.00  0.00    +0.153 HD
ENDROOT
BRANCH   4  15
ATOM     13  O   UNL     1      38.703 -23.721 -12.522  0.00  0.00    -0.448 OA
ATOM     14  N   UNL     1      37.765 -24.217 -14.545  0.00  0.00    -0.222 NA
ATOM     15  N   UNL     1      36.440 -23.465 -12.701  0.00  0.00    -0.269 N 
ATOM     16  C   UNL     1      39.224 -24.356 -14.679  0.00  0.00    +0.151 C 
ATOM     17  C   UNL     1      39.736 -24.366 -13.254  0.00  0.00    +0.233 C 
ATOM     18  C   UNL     1      37.601 -23.812 -13.323  0.00  0.00    +0.284 C 
ATOM     19  C   UNL     1      39.566 -25.619 -15.446  0.00  0.00    +0.030 C 
ATOM     20  H   UNL     1      36.520 -23.181 -11.761  0.00  0.00    +0.157 HD
ENDBRANCH   4  15
BRANCH   1  22
ATOM     21 CL   UNL     1      31.932 -19.808 -20.932  0.00  0.00    -0.079 Cl
ATOM     22  C   UNL     1      34.490 -21.511 -18.379  0.00  0.00    +0.050 C 
ATOM     23  C   UNL     1      33.323 -21.129 -19.040  0.00  0.00    +0.029 C 
ATOM     24  C   UNL     1      35.725 -21.029 -18.810  0.00  0.00    +0.018 C 
ATOM     25  C   UNL     1      34.627 -19.782 -20.564  0.00  0.00    +0.150 C 
ATOM     26  C   UNL     1      33.391 -20.264 -20.132  0.00  0.00    +0.093 C 
ATOM     27  C   UNL     1      35.794 -20.164 -19.903  0.00  0.00    +0.039 C 
BRANCH  25  28
ATOM     28  O   UNL     1      34.724 -18.936 -21.629  0.00  0.00    -0.468 OA
BRANCH  28  29
ATOM     29  C   UNL     1      35.052 -17.576 -21.347  0.00  0.00    +0.257 C 
BRANCH  29  32
ATOM     30  S   UNL     1      34.161 -15.066 -22.123  0.00  0.00    -0.067 S 
ATOM     31  N   UNL     1      34.336 -17.114 -23.689  0.00  0.00    -0.237 NA
ATOM     32  C   UNL     1      34.533 -16.708 -22.455  0.00  0.00    +0.132 C 
ATOM     33  C   UNL     1      33.696 -14.866 -23.761  0.00  0.00    +0.057 C 
ATOM     34  C   UNL     1      33.855 -16.057 -24.437  0.00  0.00    +0.106 C 
ENDBRANCH  29  32
ENDBRANCH  28  29
ENDBRANCH  25  28
ENDBRANCH   1  22
TORSDOF 5
ENDMDL
MODEL 4
REMARK VINA RESULT:     -12.3      2.570      3.771
REMARK  Name = 42642648
REMARK  5 active torsions:
REMARK  status: ('A' for Active; 'I' for Inactive)
REMARK    1  A    between atoms: N_1  and  C_22
REMARK    2  A    between atoms: C_4  and  N_15
REMARK    3  A    between atoms: C_25  and  O_28
REMARK    4  A    between atoms: O_28  and  C_29
REMARK    5  A    between atoms: C_29  and  C_32
REMARK                            x       y       z     vdW  Elec       q    Type
REMARK                         _______ _______ _______ _____ _____    ______ ____
ROOT
ATOM      1  N   UNL     1      34.780 -20.547 -20.057  0.00  0.00    -0.301 N 
ATOM      2  N   UNL     1      31.779 -22.032 -17.624  0.00  0.00    -0.248 NA
ATOM      3  N   UNL     1      32.494 -20.912 -19.634  0.00  0.00    -0.233 NA
ATOM      4  C   UNL     1      35.738 -22.454 -16.391  0.00  0.00    +0.048 C 
ATOM      5  C   UNL     1      34.118 -21.681 -18.017  0.00  0.00    +0.117 C 
ATOM      6  C   UNL     1      35.453 -21.825 -17.598  0.00  0.00    +0.001 C 
ATOM      7  C   UNL     1      33.058 -22.164 -17.233  0.00  0.00    +0.067 C 
ATOM      8  C   UNL     1      33.765 -21.061 -19.212  0.00  0.00    +0.115 C 
ATOM      9  C   UNL     1      34.698 -22.937 -15.606  0.00  0.00    +0.016 C 
ATOM     10  C   UNL     1      33.374 -22.789 -16.028  0.00  0.00    +0.016 C 
ATOM     11  C   UNL     1      31.566 -21.413 -18.802  0.00  0.00    +0.251 C 
ATOM     12  H   UNL     1      35.631 -21.040 -19.999  0.00  0.00    +0.153 HD
ENDROOT
BRANCH   4  15
ATOM     13  O   UNL     1      38.922 -23.422 -14.904  0.00  0.00    -0.448 OA
ATOM     14  N   UNL     1      36.957 -24.536 -14.562  0.00  0.00    -0.222 NA
ATOM     15  N   UNL     1      37.074 -22.602 -15.966  0.00  0.00    -0.269 N 
ATOM     16  C   UNL     1      38.023 -25.280 -13.872  0.00  0.00    +0.151 C 
ATOM     17  C   UNL     1      39.194 -24.321 -13.838  0.00  0.00    +0.233 C 
ATOM     18  C   UNL     1      37.584 -23.556 -15.139  0.00  0.00    +0.284 C 
ATOM     19  C   UNL     1      37.560 -25.708 -12.493  0.00  0.00    +0.030 C 
ATOM     20  H   UNL     1      37.714 -21.936 -16.307  0.00  0.00    +0.157 HD
ENDBRANCH   4  15
BRANCH   1  22
ATOM     21 CL   UNL     1      33.149 -18.560 -24.479  0.00  0.00    -0.079 Cl
ATOM     22  C   UNL     1      34.807 -19.473 -20.960  0.00  0.00    +0.050 C 
ATOM     23  C   UNL     1      34.058 -19.531 -22.135  0.00  0.00    +0.029 C 
ATOM     24  C   UNL     1      35.582 -18.348 -20.682  0.00  0.00    +0.018 C 
ATOM     25  C   UNL     1      34.860 -17.336 -22.753  0.00  0.00    +0.150 C 
ATOM     26  C   UNL     1      34.084 -18.462 -23.032  0.00  0.00    +0.093 C 
ATOM     27  C   UNL     1      35.609 -17.280 -21.578  0.00  0.00    +0.039 C 
BRANCH  25  28
ATOM     28  O   UNL     1      34.905 -16.278 -23.612  0.00  0.00    -0.468 OA
BRANCH  28  29
ATOM     29  C   UNL     1      33.656 -15.774 -24.082  0.00  0.00    +0.257 C 
BRANCH  29  32
ATOM     30  S   UNL     1      32.751 -13.222 -24.691  0.00  0.00    -0.067 S 
ATOM     31  N   UNL     1      33.917 -13.881 -22.481  0.00  0.00    -0.237 NA
ATOM     32  C   UNL     1      33.506 -14.348 -23.639  0.00  0.00    +0.132 C 
ATOM     33  C   UNL     1      32.985 -12.000 -23.512  0.00  0.00    +0.057 C 
ATOM     34  C   UNL     1      33.618 -12.535 -22.410  0.00  0.00    +0.106 C 
ENDBRANCH  29  32
ENDBRANCH  28  29
ENDBRANCH  25  28
ENDBRANCH   1  22
TORSDOF 5
ENDMDL
MODEL 5
REMARK VINA RESULT:     -12.0      1.270      1.465
REMARK  Name = 42642648
REMARK  5 active torsions:
REMARK  status: ('A' for Active; 'I' for Inactive)
REMARK    1  A    between atoms: N_1  and  C_22
REMARK    2  A    between atoms: C_4  and  N_15
REMARK    3  A    between atoms: C_25  and  O_28
REMARK    4  A    between atoms: O_28  and  C_29
REMARK    5  A    between atoms: C_29  and  C_32
REMARK                            x       y       z     vdW  Elec       q    Type
REMARK                         _______ _______ _______ _____ _____    ______ ____
ROOT
ATOM      1  N   UNL     1      33.451 -22.123 -17.659  0.00  0.00    -0.301 N 
ATOM      2  N   UNL     1      30.143 -22.940 -15.308  0.00  0.00    -0.248 NA
ATOM      3  N   UNL     1      31.116 -22.290 -17.414  0.00  0.00    -0.233 NA
ATOM      4  C   UNL     1      33.933 -23.278 -13.606  0.00  0.00    +0.048 C 
ATOM      5  C   UNL     1      32.527 -22.782 -15.515  0.00  0.00    +0.117 C 
ATOM      6  C   UNL     1      33.804 -22.898 -14.938  0.00  0.00    +0.001 C 
ATOM      7  C   UNL     1      31.369 -23.047 -14.766  0.00  0.00    +0.067 C 
ATOM      8  C   UNL     1      32.329 -22.406 -16.840  0.00  0.00    +0.115 C 
ATOM      9  C   UNL     1      32.794 -23.542 -12.854  0.00  0.00    +0.016 C 
ATOM     10  C   UNL     1      31.528 -23.424 -13.434  0.00  0.00    +0.016 C 
ATOM     11  C   UNL     1      30.083 -22.567 -16.602  0.00  0.00    +0.251 C 
ATOM     12  H   UNL     1      34.258 -22.630 -17.415  0.00  0.00    +0.153 HD
ENDROOT
BRANCH   4  15
ATOM     13  O   UNL     1      37.353 -24.086 -12.640  0.00  0.00    -0.448 OA
ATOM     14  N   UNL     1      36.279 -25.002 -14.436  0.00  0.00    -0.222 NA
ATOM     15  N   UNL     1      35.210 -23.395 -13.022  0.00  0.00    -0.269 N 
ATOM     16  C   UNL     1      37.662 -25.506 -14.432  0.00  0.00    +0.151 C 
ATOM     17  C   UNL     1      38.190 -25.156 -13.057  0.00  0.00    +0.233 C 
ATOM     18  C   UNL     1      36.243 -24.186 -13.427  0.00  0.00    +0.284 C 
ATOM     19  C   UNL     1      37.681 -26.995 -14.718  0.00  0.00    +0.030 C 
ATOM     20  H   UNL     1      35.376 -22.839 -12.225  0.00  0.00    +0.157 HD
ENDBRANCH   4  15
BRANCH   1  22
ATOM     21 CL   UNL     1      36.700 -19.563 -20.667  0.00  0.00    -0.079 Cl
ATOM     22  C   UNL     1      33.632 -21.259 -18.750  0.00  0.00    +0.050 C 
ATOM     23  C   UNL     1      34.918 -20.878 -19.132  0.00  0.00    +0.029 C 
ATOM     24  C   UNL     1      32.526 -20.782 -19.453  0.00  0.00    +0.018 C 
ATOM     25  C   UNL     1      33.991 -19.543 -20.920  0.00  0.00    +0.150 C 
ATOM     26  C   UNL     1      35.098 -20.020 -20.217  0.00  0.00    +0.093 C 
ATOM     27  C   UNL     1      32.706 -19.924 -20.538  0.00  0.00    +0.039 C 
BRANCH  25  28
ATOM     28  O   UNL     1      34.137 -18.703 -21.984  0.00  0.00    -0.468 OA
BRANCH  28  29
ATOM     29  C   UNL     1      34.863 -17.495 -21.759  0.00  0.00    +0.257 C 
BRANCH  29  32
ATOM     30  S   UNL     1      33.784 -16.915 -24.249  0.00  0.00    -0.067 S 
ATOM     31  N   UNL     1      34.340 -15.155 -22.439  0.00  0.00    -0.237 NA
ATOM     32  C   UNL     1      34.365 -16.442 -22.705  0.00  0.00    +0.132 C 
ATOM     33  C   UNL     1      33.465 -15.268 -24.606  0.00  0.00    +0.057 C 
ATOM     34  C   UNL     1      33.824 -14.483 -23.530  0.00  0.00    +0.106 C 
ENDBRANCH  29  32
ENDBRANCH  28  29
ENDBRANCH  25  28
ENDBRANCH   1  22
TORSDOF 5
ENDMDL
MODEL 6
REMARK VINA RESULT:     -11.4      5.220      9.510
REMARK  Name = 42642648
REMARK  5 active torsions:
REMARK  status: ('A' for Active; 'I' for Inactive)
REMARK    1  A    between atoms: N_1  and  C_22
REMARK    2  A    between atoms: C_4  and  N_15
REMARK    3  A    between atoms: C_25  and  O_28
REMARK    4  A    between atoms: O_28  and  C_29
REMARK    5  A    between atoms: C_29  and  C_32
REMARK                            x       y       z     vdW  Elec       q    Type
REMARK                         _______ _______ _______ _____ _____    ______ ____
ROOT
ATOM      1  N   UNL     1      34.192 -14.490 -22.746  0.00  0.00    -0.301 N 
ATOM      2  N   UNL     1      33.197 -17.876 -24.909  0.00  0.00    -0.248 NA
ATOM      3  N   UNL     1      33.130 -15.488 -24.594  0.00  0.00    -0.233 NA
ATOM      4  C   UNL     1      35.458 -18.320 -21.435  0.00  0.00    +0.048 C 
ATOM      5  C   UNL     1      34.293 -16.899 -23.014  0.00  0.00    +0.117 C 
ATOM      6  C   UNL     1      35.057 -17.052 -21.842  0.00  0.00    +0.001 C 
ATOM      7  C   UNL     1      33.926 -18.012 -23.787  0.00  0.00    +0.067 C 
ATOM      8  C   UNL     1      33.860 -15.660 -23.475  0.00  0.00    +0.115 C 
ATOM      9  C   UNL     1      35.100 -19.429 -22.193  0.00  0.00    +0.016 C 
ATOM     10  C   UNL     1      34.341 -19.269 -23.355  0.00  0.00    +0.016 C 
ATOM     11  C   UNL     1      32.838 -16.623 -25.251  0.00  0.00    +0.251 C 
ATOM     12  H   UNL     1      35.045 -14.555 -22.260  0.00  0.00    +0.153 HD
ENDROOT
BRANCH   4  15
ATOM     13  O   UNL     1      37.037 -19.368 -18.322  0.00  0.00    -0.448 OA
ATOM     14  N   UNL     1      35.423 -20.567 -19.407  0.00  0.00    -0.222 NA
ATOM     15  N   UNL     1      36.222 -18.480 -20.262  0.00  0.00    -0.269 N 
ATOM     16  C   UNL     1      35.870 -21.358 -18.249  0.00  0.00    +0.151 C 
ATOM     17  C   UNL     1      36.652 -20.378 -17.400  0.00  0.00    +0.233 C 
ATOM     18  C   UNL     1      36.177 -19.510 -19.372  0.00  0.00    +0.284 C 
ATOM     19  C   UNL     1      34.678 -21.956 -17.527  0.00  0.00    +0.030 C 
ATOM     20  H   UNL     1      36.866 -17.762 -20.062  0.00  0.00    +0.157 HD
ENDBRANCH   4  15
BRANCH   1  22
ATOM     21 CL   UNL     1      31.540 -11.358 -19.694  0.00  0.00    -0.079 Cl
ATOM     22  C   UNL     1      33.539 -13.258 -22.584  0.00  0.00    +0.050 C 
ATOM     23  C   UNL     1      32.932 -12.944 -21.369  0.00  0.00    +0.029 C 
ATOM     24  C   UNL     1      33.497 -12.348 -23.640  0.00  0.00    +0.018 C 
ATOM     25  C   UNL     1      32.242 -10.809 -22.265  0.00  0.00    +0.150 C 
ATOM     26  C   UNL     1      32.283 -11.720 -21.208  0.00  0.00    +0.093 C 
ATOM     27  C   UNL     1      32.849 -11.123 -23.480  0.00  0.00    +0.039 C 
BRANCH  25  28
ATOM     28  O   UNL     1      31.615  -9.605 -22.136  0.00  0.00    -0.468 OA
BRANCH  28  29
ATOM     29  C   UNL     1      32.170  -8.507 -22.858  0.00  0.00    +0.257 C 
BRANCH  29  32
ATOM     30  S   UNL     1      31.876  -7.414 -20.324  0.00  0.00    -0.067 S 
ATOM     31  N   UNL     1      32.079  -6.041 -22.504  0.00  0.00    -0.237 NA
ATOM     32  C   UNL     1      32.054  -7.264 -22.024  0.00  0.00    +0.132 C 
ATOM     33  C   UNL     1      31.826  -5.704 -20.204  0.00  0.00    +0.057 C 
ATOM     34  C   UNL     1      31.948  -5.148 -21.459  0.00  0.00    +0.106 C 
ENDBRANCH  29  32
ENDBRANCH  28  29
ENDBRANCH  25  28
ENDBRANCH   1  22
TORSDOF 5
ENDMDL
MODEL 7
REMARK VINA RESULT:     -11.1      2.025      4.635
REMARK  Name = 42642648
REMARK  5 active torsions:
REMARK  status: ('A' for Active; 'I' for Inactive)
REMARK    1  A    between atoms: N_1  and  C_22
REMARK    2  A    between atoms: C_4  and  N_15
REMARK    3  A    between atoms: C_25  and  O_28
REMARK    4  A    between atoms: O_28  and  C_29
REMARK    5  A    between atoms: C_29  and  C_32
REMARK                            x       y       z     vdW  Elec       q    Type
REMARK                         _______ _______ _______ _____ _____    ______ ____
ROOT
ATOM      1  N   UNL     1      34.986 -21.589 -16.710  0.00  0.00    -0.301 N 
ATOM      2  N   UNL     1      38.095 -23.511 -14.768  0.00  0.00    -0.248 NA
ATOM      3  N   UNL     1      37.292 -21.969 -16.437  0.00  0.00    -0.233 NA
ATOM      4  C   UNL     1      34.185 -24.341 -13.584  0.00  0.00    +0.048 C 
ATOM      5  C   UNL     1      35.737 -23.152 -15.014  0.00  0.00    +0.117 C 
ATOM      6  C   UNL     1      34.419 -23.434 -14.612  0.00  0.00    +0.001 C 
ATOM      7  C   UNL     1      36.831 -23.774 -14.392  0.00  0.00    +0.067 C 
ATOM      8  C   UNL     1      36.039 -22.256 -16.035  0.00  0.00    +0.115 C 
ATOM      9  C   UNL     1      35.261 -24.964 -12.960  0.00  0.00    +0.016 C 
ATOM     10  C   UNL     1      36.567 -24.679 -13.366  0.00  0.00    +0.016 C 
ATOM     11  C   UNL     1      38.257 -22.624 -15.770  0.00  0.00    +0.251 C 
ATOM     12  H   UNL     1      34.190 -21.437 -16.152  0.00  0.00    +0.153 HD
ENDROOT
BRANCH   4  15
ATOM     13  O   UNL     1      30.587 -24.753 -13.178  0.00  0.00    -0.448 OA
ATOM     14  N   UNL     1      31.568 -23.789 -15.002  0.00  0.00    -0.222 NA
ATOM     15  N   UNL     1      32.867 -24.628 -13.176  0.00  0.00    -0.269 N 
ATOM     16  C   UNL     1      30.120 -23.854 -15.252  0.00  0.00    +0.151 C 
ATOM     17  C   UNL     1      29.515 -24.160 -13.898  0.00  0.00    +0.233 C 
ATOM     18  C   UNL     1      31.711 -24.363 -13.846  0.00  0.00    +0.284 C 
ATOM     19  C   UNL     1      29.628 -22.548 -15.845  0.00  0.00    +0.030 C 
ATOM     20  H   UNL     1      32.770 -25.074 -12.303  0.00  0.00    +0.157 HD
ENDBRANCH   4  15
BRANCH   1  22
ATOM     21 CL   UNL     1      31.894 -20.289 -20.572  0.00  0.00    -0.079 Cl
ATOM     22  C   UNL     1      34.860 -21.104 -18.022  0.00  0.00    +0.050 C 
ATOM     23  C   UNL     1      33.596 -20.951 -18.590  0.00  0.00    +0.029 C 
ATOM     24  C   UNL     1      35.999 -20.775 -18.756  0.00  0.00    +0.018 C 
ATOM     25  C   UNL     1      34.610 -20.139 -20.628  0.00  0.00    +0.150 C 
ATOM     26  C   UNL     1      33.470 -20.468 -19.893  0.00  0.00    +0.093 C 
ATOM     27  C   UNL     1      35.874 -20.293 -20.058  0.00  0.00    +0.039 C 
BRANCH  25  28
ATOM     28  O   UNL     1      34.518 -19.666 -21.902  0.00  0.00    -0.468 OA
BRANCH  28  29
ATOM     29  C   UNL     1      35.480 -18.691 -22.301  0.00  0.00    +0.257 C 
BRANCH  29  32
ATOM     30  S   UNL     1      34.429 -16.357 -23.373  0.00  0.00    -0.067 S 
ATOM     31  N   UNL     1      34.785 -16.787 -20.850  0.00  0.00    -0.237 NA
ATOM     32  C   UNL     1      34.924 -17.321 -22.043  0.00  0.00    +0.132 C 
ATOM     33  C   UNL     1      33.985 -15.116 -22.277  0.00  0.00    +0.057 C 
ATOM     34  C   UNL     1      34.246 -15.523 -20.985  0.00  0.00    +0.106 C 
ENDBRANCH  29  32
ENDBRANCH  28  29
ENDBRANCH  25  28
ENDBRANCH   1  22
TORSDOF 5
ENDMDL
MODEL 8
REMARK VINA RESULT:     -10.8      7.788     15.858
REMARK  Name = 42642648
REMARK  5 active torsions:
REMARK  status: ('A' for Active; 'I' for Inactive)
REMARK    1  A    between atoms: N_1  and  C_22
REMARK    2  A    between atoms: C_4  and  N_15
REMARK    3  A    between atoms: C_25  and  O_28
REMARK    4  A    between atoms: O_28  and  C_29
REMARK    5  A    between atoms: C_29  and  C_32
REMARK                            x       y       z     vdW  Elec       q    Type
REMARK                         _______ _______ _______ _____ _____    ______ ____
ROOT
ATOM      1  N   UNL     1      33.499  -9.853 -23.213  0.00  0.00    -0.301 N 
ATOM      2  N   UNL     1      30.880  -6.990 -21.772  0.00  0.00    -0.248 NA
ATOM      3  N   UNL     1      31.715  -9.251 -21.802  0.00  0.00    -0.233 NA
ATOM      4  C   UNL     1      33.684  -5.865 -24.644  0.00  0.00    +0.048 C 
ATOM      5  C   UNL     1      32.701  -7.563 -23.223  0.00  0.00    +0.117 C 
ATOM      6  C   UNL     1      33.646  -7.180 -24.192  0.00  0.00    +0.001 C 
ATOM      7  C   UNL     1      31.787  -6.635 -22.699  0.00  0.00    +0.067 C 
ATOM      8  C   UNL     1      32.610  -8.861 -22.730  0.00  0.00    +0.115 C 
ATOM      9  C   UNL     1      32.784  -4.937 -24.132  0.00  0.00    +0.016 C 
ATOM     10  C   UNL     1      31.847  -5.325 -23.171  0.00  0.00    +0.016 C 
ATOM     11  C   UNL     1      30.893  -8.278 -21.374  0.00  0.00    +0.251 C 
ATOM     12  H   UNL     1      34.375  -9.500 -23.489  0.00  0.00    +0.153 HD
ENDROOT
BRANCH   4  15
ATOM     13  O   UNL     1      35.545  -4.919 -27.631  0.00  0.00    -0.448 OA
ATOM     14  N   UNL     1      33.316  -5.418 -27.616  0.00  0.00    -0.222 NA
ATOM     15  N   UNL     1      34.628  -5.475 -25.615  0.00  0.00    -0.269 N 
ATOM     16  C   UNL     1      33.675  -4.998 -28.980  0.00  0.00    +0.151 C 
ATOM     17  C   UNL     1      35.188  -5.031 -29.002  0.00  0.00    +0.233 C 
ATOM     18  C   UNL     1      34.422  -5.284 -26.948  0.00  0.00    +0.284 C 
ATOM     19  C   UNL     1      33.042  -5.924 -30.000  0.00  0.00    +0.030 C 
ATOM     20  H   UNL     1      35.545  -5.323 -25.292  0.00  0.00    +0.157 HD
ENDBRANCH   4  15
BRANCH   1  22
ATOM     21 CL   UNL     1      33.735 -14.501 -21.090  0.00  0.00    -0.079 Cl
ATOM     22  C   UNL     1      33.371 -11.243 -23.373  0.00  0.00    +0.050 C 
ATOM     23  C   UNL     1      33.588 -12.092 -22.289  0.00  0.00    +0.029 C 
ATOM     24  C   UNL     1      33.028 -11.772 -24.616  0.00  0.00    +0.018 C 
ATOM     25  C   UNL     1      33.116 -14.002 -23.692  0.00  0.00    +0.150 C 
ATOM     26  C   UNL     1      33.460 -13.472 -22.447  0.00  0.00    +0.093 C 
ATOM     27  C   UNL     1      32.900 -13.151 -24.776  0.00  0.00    +0.039 C 
BRANCH  25  28
ATOM     28  O   UNL     1      32.985 -15.346 -23.877  0.00  0.00    -0.468 OA
BRANCH  28  29
ATOM     29  C   UNL     1      34.146 -16.056 -24.304  0.00  0.00    +0.257 C 
BRANCH  29  32
ATOM     30  S   UNL     1      33.776 -18.669 -23.445  0.00  0.00    -0.067 S 
ATOM     31  N   UNL     1      35.279 -16.930 -22.262  0.00  0.00    -0.237 NA
ATOM     32  C   UNL     1      34.477 -17.110 -23.288  0.00  0.00    +0.132 C 
ATOM     33  C   UNL     1      34.608 -19.158 -22.027  0.00  0.00    +0.057 C 
ATOM     34  C   UNL     1      35.353 -18.105 -21.540  0.00  0.00    +0.106 C 
ENDBRANCH  29  32
ENDBRANCH  28  29
ENDBRANCH  25  28
ENDBRANCH   1  22
TORSDOF 5
ENDMDL
MODEL 9
REMARK VINA RESULT:     -10.6     10.260     18.019
REMARK  Name = 42642648
REMARK  5 active torsions:
REMARK  status: ('A' for Active; 'I' for Inactive)
REMARK    1  A    between atoms: N_1  and  C_22
REMARK    2  A    between atoms: C_4  and  N_15
REMARK    3  A    between atoms: C_25  and  O_28
REMARK    4  A    between atoms: O_28  and  C_29
REMARK    5  A    between atoms: C_29  and  C_32
REMARK                            x       y       z     vdW  Elec       q    Type
REMARK                         _______ _______ _______ _____ _____    ______ ____
ROOT
ATOM      1  N   UNL     1      32.387  -6.320 -22.583  0.00  0.00    -0.301 N 
ATOM      2  N   UNL     1      30.197  -2.807 -22.585  0.00  0.00    -0.248 NA
ATOM      3  N   UNL     1      30.647  -5.003 -21.701  0.00  0.00    -0.233 NA
ATOM      4  C   UNL     1      33.310  -3.220 -25.327  0.00  0.00    +0.048 C 
ATOM      5  C   UNL     1      31.979  -4.116 -23.512  0.00  0.00    +0.117 C 
ATOM      6  C   UNL     1      33.029  -4.252 -24.439  0.00  0.00    +0.001 C 
ATOM      7  C   UNL     1      31.202  -2.947 -23.467  0.00  0.00    +0.067 C 
ATOM      8  C   UNL     1      31.647  -5.111 -22.597  0.00  0.00    +0.115 C 
ATOM      9  C   UNL     1      32.547  -2.058 -25.293  0.00  0.00    +0.016 C 
ATOM     10  C   UNL     1      31.505  -1.930 -24.370  0.00  0.00    +0.016 C 
ATOM     11  C   UNL     1      29.974  -3.842 -21.751  0.00  0.00    +0.251 C 
ATOM     12  H   UNL     1      33.324  -6.214 -22.866  0.00  0.00    +0.153 HD
ENDROOT
BRANCH   4  15
ATOM     13  O   UNL     1      35.493  -3.850 -28.177  0.00  0.00    -0.448 OA
ATOM     14  N   UNL     1      33.253  -4.296 -28.156  0.00  0.00    -0.222 NA
ATOM     15  N   UNL     1      34.360  -3.350 -26.258  0.00  0.00    -0.269 N 
ATOM     16  C   UNL     1      33.760  -4.600 -29.504  0.00  0.00    +0.151 C 
ATOM     17  C   UNL     1      35.265  -4.626 -29.346  0.00  0.00    +0.233 C 
ATOM     18  C   UNL     1      34.293  -3.841 -27.527  0.00  0.00    +0.284 C 
ATOM     19  C   UNL     1      33.188  -5.914 -30.000  0.00  0.00    +0.030 C 
ATOM     20  H   UNL     1      35.248  -3.050 -25.955  0.00  0.00    +0.157 HD
ENDBRANCH   4  15
BRANCH   1  22
ATOM     21 CL   UNL     1      30.938  -9.625 -18.959  0.00  0.00    -0.079 Cl
ATOM     22  C   UNL     1      32.041  -7.638 -22.245  0.00  0.00    +0.050 C 
ATOM     23  C   UNL     1      31.700  -7.953 -20.930  0.00  0.00    +0.029 C 
ATOM     24  C   UNL     1      32.039  -8.631 -23.223  0.00  0.00    +0.018 C 
ATOM     25  C   UNL     1      31.353 -10.256 -21.573  0.00  0.00    +0.150 C 
ATOM     26  C   UNL     1      31.355  -9.262 -20.594  0.00  0.00    +0.093 C 
ATOM     27  C   UNL     1      31.695  -9.940 -22.887  0.00  0.00    +0.039 C 
BRANCH  25  28
ATOM     28  O   UNL     1      31.022 -11.544 -21.273  0.00  0.00    -0.468 OA
BRANCH  28  29
ATOM     29  C   UNL     1      31.991 -12.312 -20.562  0.00  0.00    +0.257 C 
BRANCH  29  32
ATOM     30  S   UNL     1      33.812 -14.377 -20.915  0.00  0.00    -0.067 S 
ATOM     31  N   UNL     1      32.505 -13.224 -22.825  0.00  0.00    -0.237 NA
ATOM     32  C   UNL     1      32.689 -13.230 -21.523  0.00  0.00    +0.132 C 
ATOM     33  C   UNL     1      34.084 -14.922 -22.518  0.00  0.00    +0.057 C 
ATOM     34  C   UNL     1      33.306 -14.195 -23.394  0.00  0.00    +0.106 C 
ENDBRANCH  29  32
ENDBRANCH  28  29
ENDBRANCH  25  28
ENDBRANCH   1  22
TORSDOF 5
ENDMDL
