MODEL 1
REMARK VINA RESULT:     -13.6      0.000      0.000
REMARK  Name = 448605
REMARK  6 active torsions:
REMARK  status: ('A' for Active; 'I' for Inactive)
REMARK    1  A    between atoms: C_3  and  N_11
REMARK    2  A    between atoms: C_4  and  C_27
REMARK    3  A    between atoms: C_9  and  C_21
REMARK    4  A    between atoms: N_26  and  C_29
REMARK    5  A    between atoms: C_30  and  C_35
REMARK    6  A    between atoms: C_35  and  N_36
REMARK                            x       y       z     vdW  Elec       q    Type
REMARK                         _______ _______ _______ _____ _____    ______ ____
ROOT
ATOM      1  C   UNL     1      34.539 -22.753 -16.314  0.00  0.00    +0.014 C 
ATOM      2  C   UNL     1      35.512 -21.956 -16.964  0.00  0.00    +0.001 C 
ATOM      3  C   UNL     1      33.229 -22.784 -16.817  0.00  0.00    +0.057 C 
ATOM      4  C   UNL     1      33.836 -21.254 -18.583  0.00  0.00    +0.055 C 
ATOM      5  C   UNL     1      35.144 -21.212 -18.098  0.00  0.00    +0.005 C 
ATOM      6  C   UNL     1      32.881 -22.039 -17.944  0.00  0.00    +0.020 C 
ATOM      7  C   UNL     1      34.906 -23.497 -15.181  0.00  0.00    +0.004 C 
ATOM      8  C   UNL     1      36.822 -21.925 -16.461  0.00  0.00    +0.000 C 
ATOM      9  C   UNL     1      36.214 -23.455 -14.695  0.00  0.00    +0.031 C 
ATOM     10  C   UNL     1      37.170 -22.671 -15.334  0.00  0.00    +0.003 C 
ENDROOT
BRANCH   3  11
ATOM     11  N   UNL     1      32.217 -23.565 -16.206  0.00  0.00    -0.257 N 
ATOM     12  N   UNL     1      30.327 -22.209 -16.511  0.00  0.00    -0.180 NA
ATOM     13  N   UNL     1      30.157 -24.331 -15.383  0.00  0.00    -0.203 NA
ATOM     14  C   UNL     1      30.839 -23.359 -16.026  0.00  0.00    +0.091 C 
ATOM     15  C   UNL     1      29.002 -22.043 -16.321  0.00  0.00    +0.108 C 
ATOM     16  C   UNL     1      28.836 -24.101 -15.227  0.00  0.00    +0.165 C 
ATOM     17  C   UNL     1      28.198 -22.964 -15.680  0.00  0.00    +0.022 C 
ATOM     18  H   UNL     1      32.543 -24.417 -15.835  0.00  0.00    +0.164 HD
ENDBRANCH   3  11
BRANCH   9  21
ATOM     19  N   UNL     1      37.874 -24.202 -13.006  0.00  0.00    -0.343 N 
ATOM     20  N   UNL     1      35.674 -24.986 -12.923  0.00  0.00    -0.285 NA
ATOM     21  C   UNL     1      36.579 -24.231 -13.520  0.00  0.00    +0.117 C 
ATOM     22  H   UNL     1      38.100 -24.736 -12.211  0.00  0.00    +0.144 HD
ATOM     23  H   UNL     1      38.564 -23.649 -13.439  0.00  0.00    +0.144 HD
ATOM     24  H   UNL     1      35.919 -25.512 -12.128  0.00  0.00    +0.188 HD
ENDBRANCH   9  21
BRANCH   4  27
ATOM     25  O   UNL     1      32.343 -20.625 -20.252  0.00  0.00    -0.270 OA
ATOM     26  N   UNL     1      34.449 -19.591 -20.231  0.00  0.00    -0.280 N 
ATOM     27  C   UNL     1      33.473 -20.478 -19.758  0.00  0.00    +0.250 C 
ATOM     28  H   UNL     1      35.299 -19.586 -19.735  0.00  0.00    +0.155 HD
BRANCH  26  29
ATOM     29  C   UNL     1      34.372 -18.698 -21.329  0.00  0.00    +0.051 C 
ATOM     30  C   UNL     1      34.223 -16.956 -23.474  0.00  0.00    -0.044 C 
ATOM     31  C   UNL     1      34.749 -17.378 -21.154  0.00  0.00    +0.014 C 
ATOM     32  C   UNL     1      33.922 -19.168 -22.551  0.00  0.00    +0.014 C 
ATOM     33  C   UNL     1      34.673 -16.500 -22.235  0.00  0.00    -0.005 C 
ATOM     34  C   UNL     1      33.847 -18.290 -23.632  0.00  0.00    -0.005 C 
BRANCH  30  35
ATOM     35  C   UNL     1      34.142 -16.016 -24.630  0.00  0.00    -0.059 C 
BRANCH  35  36
ATOM     36  N   UNL     1      33.070 -15.065 -24.489  0.00  0.00    +0.383 N 
ATOM     37  H   UNL     1      32.232 -15.426 -24.946  0.00  0.00    -0.089 HD
ATOM     38  H   UNL     1      33.339 -14.182 -24.922  0.00  0.00    -0.089 HD
ATOM     39  H   UNL     1      32.878 -14.913 -23.499  0.00  0.00    -0.089 HD
ENDBRANCH  35  36
ENDBRANCH  30  35
ENDBRANCH  26  29
ENDBRANCH   4  27
TORSDOF 6
ENDMDL
MODEL 2
REMARK VINA RESULT:     -13.4      1.707      4.599
REMARK  Name = 448605
REMARK  6 active torsions:
REMARK  status: ('A' for Active; 'I' for Inactive)
REMARK    1  A    between atoms: C_3  and  N_11
REMARK    2  A    between atoms: C_4  and  C_27
REMARK    3  A    between atoms: C_9  and  C_21
REMARK    4  A    between atoms: N_26  and  C_29
REMARK    5  A    between atoms: C_30  and  C_35
REMARK    6  A    between atoms: C_35  and  N_36
REMARK                            x       y       z     vdW  Elec       q    Type
REMARK                         _______ _______ _______ _____ _____    ______ ____
ROOT
ATOM      1  C   UNL     1      33.679 -22.674 -16.091  0.00  0.00    +0.014 C 
ATOM      2  C   UNL     1      32.690 -22.380 -17.061  0.00  0.00    +0.001 C 
ATOM      3  C   UNL     1      35.010 -22.300 -16.332  0.00  0.00    +0.057 C 
ATOM      4  C   UNL     1      34.392 -21.355 -18.466  0.00  0.00    +0.055 C 
ATOM      5  C   UNL     1      33.064 -21.719 -18.243  0.00  0.00    +0.005 C 
ATOM      6  C   UNL     1      35.364 -21.644 -17.512  0.00  0.00    +0.020 C 
ATOM      7  C   UNL     1      33.306 -23.334 -14.909  0.00  0.00    +0.004 C 
ATOM      8  C   UNL     1      31.359 -22.755 -16.820  0.00  0.00    +0.000 C 
ATOM      9  C   UNL     1      31.977 -23.699 -14.686  0.00  0.00    +0.031 C 
ATOM     10  C   UNL     1      31.006 -23.410 -15.640  0.00  0.00    +0.003 C 
ENDROOT
BRANCH   3  11
ATOM     11  N   UNL     1      36.039 -22.569 -15.395  0.00  0.00    -0.257 N 
ATOM     12  N   UNL     1      35.999 -24.913 -15.315  0.00  0.00    -0.180 NA
ATOM     13  N   UNL     1      37.558 -23.656 -13.975  0.00  0.00    -0.203 NA
ATOM     14  C   UNL     1      36.555 -23.766 -14.872  0.00  0.00    +0.091 C 
ATOM     15  C   UNL     1      36.518 -26.043 -14.792  0.00  0.00    +0.108 C 
ATOM     16  C   UNL     1      38.029 -24.825 -13.493  0.00  0.00    +0.165 C 
ATOM     17  C   UNL     1      37.544 -26.061 -13.869  0.00  0.00    +0.022 C 
ATOM     18  H   UNL     1      36.475 -21.761 -15.042  0.00  0.00    +0.164 HD
ENDBRANCH   3  11
BRANCH   9  21
ATOM     19  N   UNL     1      30.287 -24.747 -13.200  0.00  0.00    -0.343 N 
ATOM     20  N   UNL     1      32.531 -24.663 -12.555  0.00  0.00    -0.285 NA
ATOM     21  C   UNL     1      31.607 -24.382 -13.456  0.00  0.00    +0.117 C 
ATOM     22  H   UNL     1      30.058 -25.208 -12.361  0.00  0.00    +0.144 HD
ATOM     23  H   UNL     1      29.582 -24.544 -13.857  0.00  0.00    +0.144 HD
ATOM     24  H   UNL     1      32.282 -25.125 -11.722  0.00  0.00    +0.188 HD
ENDBRANCH   9  21
BRANCH   4  27
ATOM     25  O   UNL     1      35.699 -21.119 -20.376  0.00  0.00    -0.270 OA
ATOM     26  N   UNL     1      33.991 -19.549 -20.026  0.00  0.00    -0.280 N 
ATOM     27  C   UNL     1      34.762 -20.672 -19.696  0.00  0.00    +0.250 C 
ATOM     28  H   UNL     1      33.281 -19.314 -19.386  0.00  0.00    +0.155 HD
BRANCH  26  29
ATOM     29  C   UNL     1      34.099 -18.707 -21.160  0.00  0.00    +0.051 C 
ATOM     30  C   UNL     1      34.312 -17.062 -23.377  0.00  0.00    -0.044 C 
ATOM     31  C   UNL     1      33.643 -19.162 -22.385  0.00  0.00    +0.014 C 
ATOM     32  C   UNL     1      34.661 -17.449 -21.018  0.00  0.00    +0.014 C 
ATOM     33  C   UNL     1      33.750 -18.333 -23.503  0.00  0.00    -0.005 C 
ATOM     34  C   UNL     1      34.767 -16.621 -22.135  0.00  0.00    -0.005 C 
BRANCH  30  35
ATOM     35  C   UNL     1      34.426 -16.177 -24.571  0.00  0.00    -0.059 C 
BRANCH  35  36
ATOM     36  N   UNL     1      33.229 -15.408 -24.800  0.00  0.00    +0.383 N 
ATOM     37  H   UNL     1      32.981 -15.449 -25.788  0.00  0.00    -0.089 HD
ATOM     38  H   UNL     1      33.391 -14.438 -24.529  0.00  0.00    -0.089 HD
ATOM     39  H   UNL     1      32.466 -15.793 -24.242  0.00  0.00    -0.089 HD
ENDBRANCH  35  36
ENDBRANCH  30  35
ENDBRANCH  26  29
ENDBRANCH   4  27
TORSDOF 6
ENDMDL
MODEL 3
REMARK VINA RESULT:     -11.9      1.506      1.778
REMARK  Name = 448605
REMARK  6 active torsions:
REMARK  status: ('A' for Active; 'I' for Inactive)
REMARK    1  A    between atoms: C_3  and  N_11
REMARK    2  A    between atoms: C_4  and  C_27
REMARK    3  A    between atoms: C_9  and  C_21
REMARK    4  A    between atoms: N_26  and  C_29
REMARK    5  A    between atoms: C_30  and  C_35
REMARK    6  A    between atoms: C_35  and  N_36
REMARK                            x       y       z     vdW  Elec       q    Type
REMARK                         _______ _______ _______ _____ _____    ______ ____
ROOT
ATOM      1  C   UNL     1      35.405 -23.070 -15.827  0.00  0.00    +0.014 C 
ATOM      2  C   UNL     1      36.283 -22.209 -16.530  0.00  0.00    +0.001 C 
ATOM      3  C   UNL     1      34.071 -23.182 -16.247  0.00  0.00    +0.057 C 
ATOM      4  C   UNL     1      34.468 -21.610 -18.036  0.00  0.00    +0.055 C 
ATOM      5  C   UNL     1      35.798 -21.486 -17.633  0.00  0.00    +0.005 C 
ATOM      6  C   UNL     1      33.606 -22.456 -17.345  0.00  0.00    +0.020 C 
ATOM      7  C   UNL     1      35.890 -23.793 -14.726  0.00  0.00    +0.004 C 
ATOM      8  C   UNL     1      37.618 -22.097 -16.110  0.00  0.00    +0.000 C 
ATOM      9  C   UNL     1      37.221 -23.669 -14.322  0.00  0.00    +0.031 C 
ATOM     10  C   UNL     1      38.083 -22.823 -15.014  0.00  0.00    +0.003 C 
ENDROOT
BRANCH   3  11
ATOM     11  N   UNL     1      33.151 -24.028 -15.580  0.00  0.00    -0.257 N 
ATOM     12  N   UNL     1      31.946 -22.486 -14.286  0.00  0.00    -0.180 NA
ATOM     13  N   UNL     1      31.429 -24.838 -14.207  0.00  0.00    -0.203 NA
ATOM     14  C   UNL     1      32.130 -23.773 -14.650  0.00  0.00    +0.091 C 
ATOM     15  C   UNL     1      30.958 -22.277 -13.392  0.00  0.00    +0.108 C 
ATOM     16  C   UNL     1      30.457 -24.557 -13.314  0.00  0.00    +0.165 C 
ATOM     17  C   UNL     1      30.174 -23.283 -12.866  0.00  0.00    +0.022 C 
ATOM     18  H   UNL     1      33.247 -24.980 -15.814  0.00  0.00    +0.164 HD
ENDBRANCH   3  11
BRANCH   9  21
ATOM     19  N   UNL     1      38.405 -25.621 -13.345  0.00  0.00    -0.343 N 
ATOM     20  N   UNL     1      37.486 -23.982 -11.954  0.00  0.00    -0.285 NA
ATOM     21  C   UNL     1      37.707 -24.425 -13.179  0.00  0.00    +0.117 C 
ATOM     22  H   UNL     1      38.725 -26.117 -12.557  0.00  0.00    +0.144 HD
ATOM     23  H   UNL     1      38.577 -25.969 -14.249  0.00  0.00    +0.144 HD
ATOM     24  H   UNL     1      37.815 -24.493 -11.179  0.00  0.00    +0.188 HD
ENDBRANCH   9  21
BRANCH   4  27
ATOM     25  O   UNL     1      32.800 -20.989 -19.534  0.00  0.00    -0.270 OA
ATOM     26  N   UNL     1      34.912 -19.998 -19.786  0.00  0.00    -0.280 N 
ATOM     27  C   UNL     1      33.982 -20.854 -19.180  0.00  0.00    +0.250 C 
ATOM     28  H   UNL     1      35.814 -20.000 -19.394  0.00  0.00    +0.155 HD
BRANCH  26  29
ATOM     29  C   UNL     1      34.722 -19.130 -20.890  0.00  0.00    +0.051 C 
ATOM     30  C   UNL     1      34.351 -17.435 -23.047  0.00  0.00    -0.044 C 
ATOM     31  C   UNL     1      34.025 -19.586 -21.996  0.00  0.00    +0.014 C 
ATOM     32  C   UNL     1      35.239 -17.847 -20.838  0.00  0.00    +0.014 C 
ATOM     33  C   UNL     1      33.839 -18.732 -23.083  0.00  0.00    -0.005 C 
ATOM     34  C   UNL     1      35.052 -16.993 -21.924  0.00  0.00    -0.005 C 
BRANCH  30  35
ATOM     35  C   UNL     1      34.151 -16.522 -24.209  0.00  0.00    -0.059 C 
BRANCH  35  36
ATOM     36  N   UNL     1      32.993 -16.874 -24.989  0.00  0.00    +0.383 N 
ATOM     37  H   UNL     1      33.285 -17.387 -25.821  0.00  0.00    -0.089 HD
ATOM     38  H   UNL     1      32.500 -16.026 -25.268  0.00  0.00    -0.089 HD
ATOM     39  H   UNL     1      32.372 -17.459 -24.430  0.00  0.00    -0.089 HD
ENDBRANCH  35  36
ENDBRANCH  30  35
ENDBRANCH  26  29
ENDBRANCH   4  27
TORSDOF 6
ENDMDL
MODEL 4
REMARK VINA RESULT:     -11.3      9.208     16.633
REMARK  Name = 448605
REMARK  6 active torsions:
REMARK  status: ('A' for Active; 'I' for Inactive)
REMARK    1  A    between atoms: C_3  and  N_11
REMARK    2  A    between atoms: C_4  and  C_27
REMARK    3  A    between atoms: C_9  and  C_21
REMARK    4  A    between atoms: N_26  and  C_29
REMARK    5  A    between atoms: C_30  and  C_35
REMARK    6  A    between atoms: C_35  and  N_36
REMARK                            x       y       z     vdW  Elec       q    Type
REMARK                         _______ _______ _______ _____ _____    ______ ____
ROOT
ATOM      1  C   UNL     1      31.249  -6.174 -23.083  0.00  0.00    +0.014 C 
ATOM      2  C   UNL     1      31.126  -6.715 -21.780  0.00  0.00    +0.001 C 
ATOM      3  C   UNL     1      31.544  -7.029 -24.156  0.00  0.00    +0.057 C 
ATOM      4  C   UNL     1      31.596  -8.931 -22.670  0.00  0.00    +0.055 C 
ATOM      5  C   UNL     1      31.302  -8.096 -21.591  0.00  0.00    +0.005 C 
ATOM      6  C   UNL     1      31.716  -8.398 -23.951  0.00  0.00    +0.020 C 
ATOM      7  C   UNL     1      31.072  -4.794 -23.272  0.00  0.00    +0.004 C 
ATOM      8  C   UNL     1      30.831  -5.861 -20.706  0.00  0.00    +0.000 C 
ATOM      9  C   UNL     1      30.779  -3.959 -22.192  0.00  0.00    +0.031 C 
ATOM     10  C   UNL     1      30.658  -4.491 -20.912  0.00  0.00    +0.003 C 
ENDROOT
BRANCH   3  11
ATOM     11  N   UNL     1      31.677  -6.540 -25.480  0.00  0.00    -0.257 N 
ATOM     12  N   UNL     1      33.937  -5.912 -25.523  0.00  0.00    -0.180 NA
ATOM     13  N   UNL     1      32.536  -5.626 -27.463  0.00  0.00    -0.203 NA
ATOM     14  C   UNL     1      32.765  -6.003 -26.186  0.00  0.00    +0.091 C 
ATOM     15  C   UNL     1      34.960  -5.391 -26.232  0.00  0.00    +0.108 C 
ATOM     16  C   UNL     1      33.602  -5.114 -28.112  0.00  0.00    +0.165 C 
ATOM     17  C   UNL     1      34.850  -4.972 -27.542  0.00  0.00    +0.022 C 
ATOM     18  H   UNL     1      30.845  -6.585 -26.004  0.00  0.00    +0.164 HD
ENDBRANCH   3  11
BRANCH   9  21
ATOM     19  N   UNL     1      31.440  -1.813 -23.251  0.00  0.00    -0.343 N 
ATOM     20  N   UNL     1      29.623  -1.892 -21.785  0.00  0.00    -0.285 NA
ATOM     21  C   UNL     1      30.598  -2.531 -22.405  0.00  0.00    +0.117 C 
ATOM     22  H   UNL     1      31.300  -0.847 -23.380  0.00  0.00    +0.144 HD
ATOM     23  H   UNL     1      32.176  -2.270 -23.720  0.00  0.00    +0.144 HD
ATOM     24  H   UNL     1      29.499  -0.926 -21.928  0.00  0.00    +0.188 HD
ENDBRANCH   9  21
BRANCH   4  27
ATOM     25  O   UNL     1      31.088 -10.931 -21.597  0.00  0.00    -0.270 OA
ATOM     26  N   UNL     1      32.720 -10.985 -23.282  0.00  0.00    -0.280 N 
ATOM     27  C   UNL     1      31.776 -10.358 -22.457  0.00  0.00    +0.250 C 
ATOM     28  H   UNL     1      33.190 -10.399 -23.917  0.00  0.00    +0.155 HD
BRANCH  26  29
ATOM     29  C   UNL     1      33.088 -12.353 -23.319  0.00  0.00    +0.051 C 
ATOM     30  C   UNL     1      33.807 -15.025 -23.393  0.00  0.00    -0.044 C 
ATOM     31  C   UNL     1      32.835 -13.089 -24.463  0.00  0.00    +0.014 C 
ATOM     32  C   UNL     1      33.692 -12.922 -22.210  0.00  0.00    +0.014 C 
ATOM     33  C   UNL     1      33.197 -14.436 -24.500  0.00  0.00    -0.005 C 
ATOM     34  C   UNL     1      34.054 -14.267 -22.248  0.00  0.00    -0.005 C 
BRANCH  30  35
ATOM     35  C   UNL     1      34.194 -16.464 -23.433  0.00  0.00    -0.059 C 
BRANCH  35  36
ATOM     36  N   UNL     1      35.195 -16.790 -22.450  0.00  0.00    +0.383 N 
ATOM     37  H   UNL     1      34.741 -17.109 -21.594  0.00  0.00    -0.089 HD
ATOM     38  H   UNL     1      35.757 -15.963 -22.248  0.00  0.00    -0.089 HD
ATOM     39  H   UNL     1      35.798 -17.530 -22.811  0.00  0.00    -0.089 HD
ENDBRANCH  35  36
ENDBRANCH  30  35
ENDBRANCH  26  29
ENDBRANCH   4  27
TORSDOF 6
ENDMDL
MODEL 5
REMARK VINA RESULT:     -10.8      9.137     16.704
REMARK  Name = 448605
REMARK  6 active torsions:
REMARK  status: ('A' for Active; 'I' for Inactive)
REMARK    1  A    between atoms: C_3  and  N_11
REMARK    2  A    between atoms: C_4  and  C_27
REMARK    3  A    between atoms: C_9  and  C_21
REMARK    4  A    between atoms: N_26  and  C_29
REMARK    5  A    between atoms: C_30  and  C_35
REMARK    6  A    between atoms: C_35  and  N_36
REMARK                            x       y       z     vdW  Elec       q    Type
REMARK                         _______ _______ _______ _____ _____    ______ ____
ROOT
ATOM      1  C   UNL     1      32.059  -6.156 -23.160  0.00  0.00    +0.014 C 
ATOM      2  C   UNL     1      31.052  -6.776 -22.381  0.00  0.00    +0.001 C 
ATOM      3  C   UNL     1      33.037  -6.951 -23.778  0.00  0.00    +0.057 C 
ATOM      4  C   UNL     1      32.036  -8.949 -22.865  0.00  0.00    +0.055 C 
ATOM      5  C   UNL     1      31.055  -8.175 -22.244  0.00  0.00    +0.005 C 
ATOM      6  C   UNL     1      33.025  -8.339 -23.631  0.00  0.00    +0.020 C 
ATOM      7  C   UNL     1      32.056  -4.759 -23.298  0.00  0.00    +0.004 C 
ATOM      8  C   UNL     1      30.075  -5.981 -21.763  0.00  0.00    +0.000 C 
ATOM      9  C   UNL     1      31.076  -3.983 -22.676  0.00  0.00    +0.031 C 
ATOM     10  C   UNL     1      30.087  -4.594 -21.911  0.00  0.00    +0.003 C 
ENDROOT
BRANCH   3  11
ATOM     11  N   UNL     1      34.066  -6.382 -24.569  0.00  0.00    -0.257 N 
ATOM     12  N   UNL     1      32.931  -5.946 -26.575  0.00  0.00    -0.180 NA
ATOM     13  N   UNL     1      35.267  -5.408 -26.334  0.00  0.00    -0.203 NA
ATOM     14  C   UNL     1      34.089  -5.890 -25.884  0.00  0.00    +0.091 C 
ATOM     15  C   UNL     1      32.988  -5.465 -27.834  0.00  0.00    +0.108 C 
ATOM     16  C   UNL     1      35.253  -4.944 -27.601  0.00  0.00    +0.165 C 
ATOM     17  C   UNL     1      34.133  -4.947 -28.406  0.00  0.00    +0.022 C 
ATOM     18  H   UNL     1      34.933  -6.320 -24.106  0.00  0.00    +0.164 HD
ENDBRANCH   3  11
BRANCH   9  21
ATOM     19  N   UNL     1      31.873  -1.917 -23.798  0.00  0.00    -0.343 N 
ATOM     20  N   UNL     1      30.343  -1.786 -22.037  0.00  0.00    -0.285 NA
ATOM     21  C   UNL     1      31.086  -2.537 -22.829  0.00  0.00    +0.117 C 
ATOM     22  H   UNL     1      31.866  -0.936 -23.884  0.00  0.00    +0.144 HD
ATOM     23  H   UNL     1      32.437  -2.459 -24.397  0.00  0.00    +0.144 HD
ATOM     24  H   UNL     1      30.349  -0.807 -22.139  0.00  0.00    +0.188 HD
ENDBRANCH   9  21
BRANCH   4  27
ATOM     25  O   UNL     1      31.093 -10.928 -22.087  0.00  0.00    -0.270 OA
ATOM     26  N   UNL     1      33.083 -11.083 -23.322  0.00  0.00    -0.280 N 
ATOM     27  C   UNL     1      32.024 -10.396 -22.712  0.00  0.00    +0.250 C 
ATOM     28  H   UNL     1      33.748 -10.523 -23.782  0.00  0.00    +0.155 HD
BRANCH  26  29
ATOM     29  C   UNL     1      33.320 -12.479 -23.362  0.00  0.00    +0.051 C 
ATOM     30  C   UNL     1      33.785 -15.207 -23.441  0.00  0.00    -0.044 C 
ATOM     31  C   UNL     1      33.075 -13.173 -24.534  0.00  0.00    +0.014 C 
ATOM     32  C   UNL     1      33.792 -13.118 -22.228  0.00  0.00    +0.014 C 
ATOM     33  C   UNL     1      33.308 -14.548 -24.574  0.00  0.00    -0.005 C 
ATOM     34  C   UNL     1      34.027 -14.492 -22.268  0.00  0.00    -0.005 C 
BRANCH  30  35
ATOM     35  C   UNL     1      34.035 -16.676 -23.484  0.00  0.00    -0.059 C 
BRANCH  35  36
ATOM     36  N   UNL     1      35.248 -17.046 -22.799  0.00  0.00    +0.383 N 
ATOM     37  H   UNL     1      35.364 -18.059 -22.834  0.00  0.00    -0.089 HD
ATOM     38  H   UNL     1      35.196 -16.743 -21.827  0.00  0.00    -0.089 HD
ATOM     39  H   UNL     1      36.044 -16.597 -23.253  0.00  0.00    -0.089 HD
ENDBRANCH  35  36
ENDBRANCH  30  35
ENDBRANCH  26  29
ENDBRANCH   4  27
TORSDOF 6
ENDMDL
