MODEL 1
REMARK VINA RESULT:     -11.9      0.000      0.000
REMARK  Name = 11370952
REMARK  6 active torsions:
REMARK  status: ('A' for Active; 'I' for Inactive)
REMARK    1  A    between atoms: N_1  and  C_3
REMARK    2  A    between atoms: N_1  and  C_18
REMARK    3  A    between atoms: C_4  and  N_9
REMARK    4  A    between atoms: N_9  and  C_12
REMARK    5  A    between atoms: C_19  and  N_24
REMARK    6  A    between atoms: N_24  and  C_27
REMARK                            x       y       z     vdW  Elec       q    Type
REMARK                         _______ _______ _______ _____ _____    ______ ____
ROOT
ATOM      1  N   UNL     1      35.334 -18.374 -21.376  0.00  0.00    -0.313 N 
ATOM      2  H   UNL     1      36.291 -18.505 -21.570  0.00  0.00    +0.152 HD
ENDROOT
BRANCH   1   3
ATOM      3  C   UNL     1      34.813 -17.167 -21.888  0.00  0.00    +0.048 C 
ATOM      4  C   UNL     1      33.776 -14.783 -22.899  0.00  0.00    +0.047 C 
ATOM      5  C   UNL     1      34.585 -17.032 -23.257  0.00  0.00    +0.016 C 
ATOM      6  C   UNL     1      34.522 -16.111 -21.025  0.00  0.00    +0.016 C 
ATOM      7  C   UNL     1      34.067 -15.840 -23.763  0.00  0.00    +0.016 C 
ATOM      8  C   UNL     1      34.004 -14.920 -21.530  0.00  0.00    +0.016 C 
BRANCH   4   9
ATOM      9  N   UNL     1      33.250 -13.578 -23.411  0.00  0.00    -0.303 N 
ATOM     10  H   UNL     1      33.437 -13.440 -24.368  0.00  0.00    +0.150 HD
BRANCH   9  13
ATOM     11  N   UNL     1      32.813 -11.293 -23.227  0.00  0.00    -0.301 N 
ATOM     12  N   UNL     1      31.583 -12.627 -21.946  0.00  0.00    -0.301 N 
ATOM     13  C   UNL     1      32.510 -12.535 -22.822  0.00  0.00    +0.225 C 
ATOM     14  C   UNL     1      31.976 -10.471 -22.525  0.00  0.00    +0.076 C 
ATOM     15  C   UNL     1      31.227 -11.318 -21.741  0.00  0.00    +0.076 C 
ATOM     16  H   UNL     1      33.492 -11.029 -23.889  0.00  0.00    +0.150 HD
ATOM     17  H   UNL     1      31.217 -13.436 -21.521  0.00  0.00    +0.150 HD
ENDBRANCH   9  13
ENDBRANCH   4   9
ENDBRANCH   1   3
BRANCH   1  18
ATOM     18  C   UNL     1      34.755 -19.427 -20.642  0.00  0.00    +0.048 C 
ATOM     19  C   UNL     1      33.608 -21.512 -19.182  0.00  0.00    +0.047 C 
ATOM     20  C   UNL     1      35.567 -20.313 -19.933  0.00  0.00    +0.016 C 
ATOM     21  C   UNL     1      33.369 -19.584 -20.620  0.00  0.00    +0.016 C 
ATOM     22  C   UNL     1      34.994 -21.355 -19.204  0.00  0.00    +0.016 C 
ATOM     23  C   UNL     1      32.795 -20.626 -19.890  0.00  0.00    +0.016 C 
BRANCH  19  24
ATOM     24  N   UNL     1      33.028 -22.563 -18.442  0.00  0.00    -0.303 N 
ATOM     25  H   UNL     1      33.183 -23.453 -18.832  0.00  0.00    +0.150 HD
BRANCH  24  28
ATOM     26  N   UNL     1      32.929 -22.948 -16.142  0.00  0.00    -0.301 N 
ATOM     27  N   UNL     1      31.032 -22.314 -17.106  0.00  0.00    -0.301 N 
ATOM     28  C   UNL     1      32.271 -22.589 -17.254  0.00  0.00    +0.225 C 
ATOM     29  C   UNL     1      31.998 -22.899 -15.142  0.00  0.00    +0.076 C 
ATOM     30  C   UNL     1      30.836 -22.504 -15.761  0.00  0.00    +0.076 C 
ATOM     31  H   UNL     1      33.879 -23.194 -16.062  0.00  0.00    +0.150 HD
ATOM     32  H   UNL     1      30.380 -22.033 -17.789  0.00  0.00    +0.150 HD
ENDBRANCH  24  28
ENDBRANCH  19  24
ENDBRANCH   1  18
TORSDOF 6
ENDMDL
MODEL 2
REMARK VINA RESULT:     -11.9      0.464      9.488
REMARK  Name = 11370952
REMARK  6 active torsions:
REMARK  status: ('A' for Active; 'I' for Inactive)
REMARK    1  A    between atoms: N_1  and  C_3
REMARK    2  A    between atoms: N_1  and  C_18
REMARK    3  A    between atoms: C_4  and  N_9
REMARK    4  A    between atoms: N_9  and  C_12
REMARK    5  A    between atoms: C_19  and  N_24
REMARK    6  A    between atoms: N_24  and  C_27
REMARK                            x       y       z     vdW  Elec       q    Type
REMARK                         _______ _______ _______ _____ _____    ______ ____
ROOT
ATOM      1  N   UNL     1      35.296 -18.671 -21.333  0.00  0.00    -0.313 N 
ATOM      2  H   UNL     1      36.246 -18.857 -21.513  0.00  0.00    +0.152 HD
ENDROOT
BRANCH   1   3
ATOM      3  C   UNL     1      34.664 -19.658 -20.547  0.00  0.00    +0.048 C 
ATOM      4  C   UNL     1      33.417 -21.616 -18.999  0.00  0.00    +0.047 C 
ATOM      5  C   UNL     1      33.273 -19.749 -20.528  0.00  0.00    +0.016 C 
ATOM      6  C   UNL     1      35.432 -20.546 -19.793  0.00  0.00    +0.016 C 
ATOM      7  C   UNL     1      32.649 -20.727 -19.755  0.00  0.00    +0.016 C 
ATOM      8  C   UNL     1      34.808 -21.524 -19.020  0.00  0.00    +0.016 C 
BRANCH   4   9
ATOM      9  N   UNL     1      32.785 -22.606 -18.219  0.00  0.00    -0.303 N 
ATOM     10  H   UNL     1      32.442 -23.364 -18.745  0.00  0.00    +0.150 HD
BRANCH   9  13
ATOM     11  N   UNL     1      31.278 -22.569 -16.437  0.00  0.00    -0.301 N 
ATOM     12  N   UNL     1      33.401 -22.958 -15.912  0.00  0.00    -0.301 N 
ATOM     13  C   UNL     1      32.549 -22.723 -16.836  0.00  0.00    +0.225 C 
ATOM     14  C   UNL     1      31.305 -22.725 -15.079  0.00  0.00    +0.076 C 
ATOM     15  C   UNL     1      32.626 -22.963 -14.779  0.00  0.00    +0.076 C 
ATOM     16  H   UNL     1      30.493 -22.385 -17.001  0.00  0.00    +0.150 HD
ATOM     17  H   UNL     1      34.372 -23.099 -15.992  0.00  0.00    +0.150 HD
ENDBRANCH   9  13
ENDBRANCH   4   9
ENDBRANCH   1   3
BRANCH   1  18
ATOM     18  C   UNL     1      34.834 -17.473 -21.911  0.00  0.00    +0.048 C 
ATOM     19  C   UNL     1      33.925 -15.094 -23.055  0.00  0.00    +0.047 C 
ATOM     20  C   UNL     1      34.622 -16.348 -21.112  0.00  0.00    +0.016 C 
ATOM     21  C   UNL     1      34.590 -17.406 -23.283  0.00  0.00    +0.016 C 
ATOM     22  C   UNL     1      34.168 -15.160 -21.683  0.00  0.00    +0.016 C 
ATOM     23  C   UNL     1      34.136 -16.218 -23.855  0.00  0.00    +0.016 C 
BRANCH  19  24
ATOM     24  N   UNL     1      33.468 -13.893 -23.635  0.00  0.00    -0.303 N 
ATOM     25  H   UNL     1      33.636 -13.831 -24.602  0.00  0.00    +0.150 HD
BRANCH  24  28
ATOM     26  N   UNL     1      33.157 -11.579 -23.625  0.00  0.00    -0.301 N 
ATOM     27  N   UNL     1      31.936 -12.731 -22.172  0.00  0.00    -0.301 N 
ATOM     28  C   UNL     1      32.815 -12.764 -23.100  0.00  0.00    +0.225 C 
ATOM     29  C   UNL     1      32.403 -10.657 -22.955  0.00  0.00    +0.076 C 
ATOM     30  C   UNL     1      31.658 -11.392 -22.064  0.00  0.00    +0.076 C 
ATOM     31  H   UNL     1      33.810 -11.409 -24.342  0.00  0.00    +0.150 HD
ATOM     32  H   UNL     1      31.554 -13.482 -21.662  0.00  0.00    +0.150 HD
ENDBRANCH  24  28
ENDBRANCH  19  24
ENDBRANCH   1  18
TORSDOF 6
ENDMDL
MODEL 3
REMARK VINA RESULT:     -11.9      0.460      1.614
REMARK  Name = 11370952
REMARK  6 active torsions:
REMARK  status: ('A' for Active; 'I' for Inactive)
REMARK    1  A    between atoms: N_1  and  C_3
REMARK    2  A    between atoms: N_1  and  C_18
REMARK    3  A    between atoms: C_4  and  N_9
REMARK    4  A    between atoms: N_9  and  C_12
REMARK    5  A    between atoms: C_19  and  N_24
REMARK    6  A    between atoms: N_24  and  C_27
REMARK                            x       y       z     vdW  Elec       q    Type
REMARK                         _______ _______ _______ _____ _____    ______ ____
ROOT
ATOM      1  N   UNL     1      35.287 -18.654 -21.352  0.00  0.00    -0.313 N 
ATOM      2  H   UNL     1      36.238 -18.837 -21.528  0.00  0.00    +0.152 HD
ENDROOT
BRANCH   1   3
ATOM      3  C   UNL     1      34.825 -17.454 -21.932  0.00  0.00    +0.048 C 
ATOM      4  C   UNL     1      33.918 -15.078 -23.080  0.00  0.00    +0.047 C 
ATOM      5  C   UNL     1      34.619 -16.329 -21.134  0.00  0.00    +0.016 C 
ATOM      6  C   UNL     1      34.578 -17.391 -23.303  0.00  0.00    +0.016 C 
ATOM      7  C   UNL     1      34.165 -15.141 -21.708  0.00  0.00    +0.016 C 
ATOM      8  C   UNL     1      34.125 -16.204 -23.877  0.00  0.00    +0.016 C 
BRANCH   4   9
ATOM      9  N   UNL     1      33.462 -13.877 -23.660  0.00  0.00    -0.303 N 
ATOM     10  H   UNL     1      33.630 -13.817 -24.629  0.00  0.00    +0.150 HD
BRANCH   9  13
ATOM     11  N   UNL     1      33.176 -11.560 -23.637  0.00  0.00    -0.301 N 
ATOM     12  N   UNL     1      31.920 -12.713 -22.213  0.00  0.00    -0.301 N 
ATOM     13  C   UNL     1      32.814 -12.746 -23.127  0.00  0.00    +0.225 C 
ATOM     14  C   UNL     1      32.422 -10.636 -22.970  0.00  0.00    +0.076 C 
ATOM     15  C   UNL     1      31.655 -11.371 -22.097  0.00  0.00    +0.076 C 
ATOM     16  H   UNL     1      33.842 -11.391 -24.341  0.00  0.00    +0.150 HD
ATOM     17  H   UNL     1      31.522 -13.462 -21.715  0.00  0.00    +0.150 HD
ENDBRANCH   9  13
ENDBRANCH   4   9
ENDBRANCH   1   3
BRANCH   1  18
ATOM     18  C   UNL     1      34.655 -19.641 -20.571  0.00  0.00    +0.048 C 
ATOM     19  C   UNL     1      33.402 -21.600 -19.027  0.00  0.00    +0.047 C 
ATOM     20  C   UNL     1      33.263 -19.739 -20.561  0.00  0.00    +0.016 C 
ATOM     21  C   UNL     1      35.419 -20.524 -19.808  0.00  0.00    +0.016 C 
ATOM     22  C   UNL     1      32.637 -20.717 -19.789  0.00  0.00    +0.016 C 
ATOM     23  C   UNL     1      34.793 -21.503 -19.036  0.00  0.00    +0.016 C 
BRANCH  19  24
ATOM     24  N   UNL     1      32.769 -22.591 -18.248  0.00  0.00    -0.303 N 
ATOM     25  H   UNL     1      32.410 -23.340 -18.777  0.00  0.00    +0.150 HD
BRANCH  24  28
ATOM     26  N   UNL     1      31.290 -22.560 -16.443  0.00  0.00    -0.301 N 
ATOM     27  N   UNL     1      33.415 -22.974 -15.953  0.00  0.00    -0.301 N 
ATOM     28  C   UNL     1      32.553 -22.722 -16.862  0.00  0.00    +0.225 C 
ATOM     29  C   UNL     1      31.336 -22.730 -15.088  0.00  0.00    +0.076 C 
ATOM     30  C   UNL     1      32.657 -22.986 -14.810  0.00  0.00    +0.076 C 
ATOM     31  H   UNL     1      30.498 -22.362 -16.994  0.00  0.00    +0.150 HD
ATOM     32  H   UNL     1      34.384 -23.124 -16.051  0.00  0.00    +0.150 HD
ENDBRANCH  24  28
ENDBRANCH  19  24
ENDBRANCH   1  18
TORSDOF 6
ENDMDL
MODEL 4
REMARK VINA RESULT:     -11.6      1.099      9.347
REMARK  Name = 11370952
REMARK  6 active torsions:
REMARK  status: ('A' for Active; 'I' for Inactive)
REMARK    1  A    between atoms: N_1  and  C_3
REMARK    2  A    between atoms: N_1  and  C_18
REMARK    3  A    between atoms: C_4  and  N_9
REMARK    4  A    between atoms: N_9  and  C_12
REMARK    5  A    between atoms: C_19  and  N_24
REMARK    6  A    between atoms: N_24  and  C_27
REMARK                            x       y       z     vdW  Elec       q    Type
REMARK                         _______ _______ _______ _____ _____    ______ ____
ROOT
ATOM      1  N   UNL     1      35.419 -17.315 -22.320  0.00  0.00    -0.313 N 
ATOM      2  H   UNL     1      36.287 -17.348 -22.784  0.00  0.00    +0.152 HD
ENDROOT
BRANCH   1   3
ATOM      3  C   UNL     1      35.180 -18.428 -21.487  0.00  0.00    +0.048 C 
ATOM      4  C   UNL     1      34.704 -20.625 -19.834  0.00  0.00    +0.047 C 
ATOM      5  C   UNL     1      36.214 -18.955 -20.714  0.00  0.00    +0.016 C 
ATOM      6  C   UNL     1      33.909 -18.999 -21.434  0.00  0.00    +0.016 C 
ATOM      7  C   UNL     1      35.976 -20.053 -19.887  0.00  0.00    +0.016 C 
ATOM      8  C   UNL     1      33.671 -20.096 -20.608  0.00  0.00    +0.016 C 
BRANCH   4   9
ATOM      9  N   UNL     1      34.464 -21.734 -18.997  0.00  0.00    -0.303 N 
ATOM     10  H   UNL     1      35.158 -22.430 -19.054  0.00  0.00    +0.150 HD
BRANCH   9  13
ATOM     11  N   UNL     1      33.796 -22.603 -16.936  0.00  0.00    -0.301 N 
ATOM     12  N   UNL     1      32.171 -21.851 -18.251  0.00  0.00    -0.301 N 
ATOM     13  C   UNL     1      33.426 -22.041 -18.097  0.00  0.00    +0.225 C 
ATOM     14  C   UNL     1      32.633 -22.803 -16.246  0.00  0.00    +0.076 C 
ATOM     15  C   UNL     1      31.645 -22.331 -17.078  0.00  0.00    +0.076 C 
ATOM     16  H   UNL     1      34.710 -22.823 -16.644  0.00  0.00    +0.150 HD
ATOM     17  H   UNL     1      31.699 -21.458 -19.020  0.00  0.00    +0.150 HD
ENDBRANCH   9  13
ENDBRANCH   4   9
ENDBRANCH   1   3
BRANCH   1  18
ATOM     18  C   UNL     1      34.660 -16.167 -22.619  0.00  0.00    +0.048 C 
ATOM     19  C   UNL     1      33.150 -13.895 -23.212  0.00  0.00    +0.047 C 
ATOM     20  C   UNL     1      34.201 -15.953 -23.919  0.00  0.00    +0.016 C 
ATOM     21  C   UNL     1      34.363 -15.244 -21.616  0.00  0.00    +0.016 C 
ATOM     22  C   UNL     1      33.446 -14.818 -24.216  0.00  0.00    +0.016 C 
ATOM     23  C   UNL     1      33.608 -14.109 -21.912  0.00  0.00    +0.016 C 
BRANCH  19  24
ATOM     24  N   UNL     1      32.385 -12.749 -23.510  0.00  0.00    -0.303 N 
ATOM     25  H   UNL     1      32.117 -12.687 -24.456  0.00  0.00    +0.150 HD
BRANCH  24  28
ATOM     26  N   UNL     1      31.087 -11.990 -21.725  0.00  0.00    -0.301 N 
ATOM     27  N   UNL     1      32.215 -10.435 -22.839  0.00  0.00    -0.301 N 
ATOM     28  C   UNL     1      31.927 -11.675 -22.721  0.00  0.00    +0.225 C 
ATOM     29  C   UNL     1      30.790 -10.802 -21.116  0.00  0.00    +0.076 C 
ATOM     30  C   UNL     1      31.499  -9.859 -21.821  0.00  0.00    +0.076 C 
ATOM     31  H   UNL     1      30.755 -12.884 -21.483  0.00  0.00    +0.150 HD
ATOM     32  H   UNL     1      32.805 -10.002 -23.498  0.00  0.00    +0.150 HD
ENDBRANCH  24  28
ENDBRANCH  19  24
ENDBRANCH   1  18
TORSDOF 6
ENDMDL
MODEL 5
REMARK VINA RESULT:     -11.5      1.503      9.422
REMARK  Name = 11370952
REMARK  6 active torsions:
REMARK  status: ('A' for Active; 'I' for Inactive)
REMARK    1  A    between atoms: N_1  and  C_3
REMARK    2  A    between atoms: N_1  and  C_18
REMARK    3  A    between atoms: C_4  and  N_9
REMARK    4  A    between atoms: N_9  and  C_12
REMARK    5  A    between atoms: C_19  and  N_24
REMARK    6  A    between atoms: N_24  and  C_27
REMARK                            x       y       z     vdW  Elec       q    Type
REMARK                         _______ _______ _______ _____ _____    ______ ____
ROOT
ATOM      1  N   UNL     1      35.268 -19.497 -20.639  0.00  0.00    -0.313 N 
ATOM      2  H   UNL     1      36.243 -19.556 -20.510  0.00  0.00    +0.152 HD
ENDROOT
BRANCH   1   3
ATOM      3  C   UNL     1      34.533 -20.366 -19.806  0.00  0.00    +0.048 C 
ATOM      4  C   UNL     1      33.078 -22.080 -18.154  0.00  0.00    +0.047 C 
ATOM      5  C   UNL     1      35.201 -21.228 -18.936  0.00  0.00    +0.016 C 
ATOM      6  C   UNL     1      33.139 -20.361 -19.850  0.00  0.00    +0.016 C 
ATOM      7  C   UNL     1      34.474 -22.085 -18.110  0.00  0.00    +0.016 C 
ATOM      8  C   UNL     1      32.413 -21.217 -19.023  0.00  0.00    +0.016 C 
BRANCH   4   9
ATOM      9  N   UNL     1      32.344 -22.945 -17.317  0.00  0.00    -0.303 N 
ATOM     10  H   UNL     1      32.565 -23.896 -17.440  0.00  0.00    +0.150 HD
BRANCH   9  13
ATOM     11  N   UNL     1      31.771 -22.728 -15.064  0.00  0.00    -0.301 N 
ATOM     12  N   UNL     1      30.110 -22.495 -16.520  0.00  0.00    -0.301 N 
ATOM     13  C   UNL     1      31.356 -22.715 -16.340  0.00  0.00    +0.225 C 
ATOM     14  C   UNL     1      30.652 -22.485 -14.319  0.00  0.00    +0.076 C 
ATOM     15  C   UNL     1      29.639 -22.345 -15.239  0.00  0.00    +0.076 C 
ATOM     16  H   UNL     1      32.687 -22.878 -14.735  0.00  0.00    +0.150 HD
ATOM     17  H   UNL     1      29.611 -22.447 -17.367  0.00  0.00    +0.150 HD
ENDBRANCH   9  13
ENDBRANCH   4   9
ENDBRANCH   1   3
BRANCH   1  18
ATOM     18  C   UNL     1      34.882 -18.562 -21.619  0.00  0.00    +0.048 C 
ATOM     19  C   UNL     1      34.124 -16.708 -23.564  0.00  0.00    +0.047 C 
ATOM     20  C   UNL     1      35.131 -17.203 -21.425  0.00  0.00    +0.016 C 
ATOM     21  C   UNL     1      34.254 -18.993 -22.788  0.00  0.00    +0.016 C 
ATOM     22  C   UNL     1      34.752 -16.276 -22.396  0.00  0.00    +0.016 C 
ATOM     23  C   UNL     1      33.875 -18.067 -23.760  0.00  0.00    +0.016 C 
BRANCH  19  24
ATOM     24  N   UNL     1      33.742 -15.773 -24.548  0.00  0.00    -0.303 N 
ATOM     25  H   UNL     1      33.760 -16.132 -25.464  0.00  0.00    +0.150 HD
BRANCH  24  28
ATOM     26  N   UNL     1      33.669 -13.767 -23.356  0.00  0.00    -0.301 N 
ATOM     27  N   UNL     1      32.693 -13.751 -25.350  0.00  0.00    -0.301 N 
ATOM     28  C   UNL     1      33.339 -14.425 -24.476  0.00  0.00    +0.225 C 
ATOM     29  C   UNL     1      33.177 -12.503 -23.522  0.00  0.00    +0.076 C 
ATOM     30  C   UNL     1      32.580 -12.517 -24.760  0.00  0.00    +0.076 C 
ATOM     31  H   UNL     1      34.162 -14.118 -22.579  0.00  0.00    +0.150 HD
ATOM     32  H   UNL     1      32.361 -14.045 -26.229  0.00  0.00    +0.150 HD
ENDBRANCH  24  28
ENDBRANCH  19  24
ENDBRANCH   1  18
TORSDOF 6
ENDMDL
MODEL 6
REMARK VINA RESULT:     -11.5      3.167     10.253
REMARK  Name = 11370952
REMARK  6 active torsions:
REMARK  status: ('A' for Active; 'I' for Inactive)
REMARK    1  A    between atoms: N_1  and  C_3
REMARK    2  A    between atoms: N_1  and  C_18
REMARK    3  A    between atoms: C_4  and  N_9
REMARK    4  A    between atoms: N_9  and  C_12
REMARK    5  A    between atoms: C_19  and  N_24
REMARK    6  A    between atoms: N_24  and  C_27
REMARK                            x       y       z     vdW  Elec       q    Type
REMARK                         _______ _______ _______ _____ _____    ______ ____
ROOT
ATOM      1  N   UNL     1      34.919 -21.407 -19.484  0.00  0.00    -0.313 N 
ATOM      2  H   UNL     1      34.725 -22.217 -20.009  0.00  0.00    +0.152 HD
ENDROOT
BRANCH   1   3
ATOM      3  C   UNL     1      35.065 -21.648 -18.102  0.00  0.00    +0.048 C 
ATOM      4  C   UNL     1      35.359 -22.134 -15.370  0.00  0.00    +0.047 C 
ATOM      5  C   UNL     1      34.053 -22.299 -17.397  0.00  0.00    +0.016 C 
ATOM      6  C   UNL     1      36.224 -21.241 -17.442  0.00  0.00    +0.016 C 
ATOM      7  C   UNL     1      34.199 -22.542 -16.032  0.00  0.00    +0.016 C 
ATOM      8  C   UNL     1      36.371 -21.484 -16.076  0.00  0.00    +0.016 C 
BRANCH   4   9
ATOM      9  N   UNL     1      35.507 -22.381 -13.990  0.00  0.00    -0.303 N 
ATOM     10  H   UNL     1      34.789 -21.994 -13.440  0.00  0.00    +0.150 HD
BRANCH   9  13
ATOM     11  N   UNL     1      37.009 -24.161 -13.826  0.00  0.00    -0.301 N 
ATOM     12  N   UNL     1      36.924 -22.792 -12.079  0.00  0.00    -0.301 N 
ATOM     13  C   UNL     1      36.481 -23.074 -13.245  0.00  0.00    +0.225 C 
ATOM     14  C   UNL     1      37.912 -24.649 -12.924  0.00  0.00    +0.076 C 
ATOM     15  C   UNL     1      37.841 -23.788 -11.854  0.00  0.00    +0.076 C 
ATOM     16  H   UNL     1      36.794 -24.528 -14.714  0.00  0.00    +0.150 HD
ATOM     17  H   UNL     1      36.670 -22.046 -11.489  0.00  0.00    +0.150 HD
ENDBRANCH   9  13
ENDBRANCH   4   9
ENDBRANCH   1   3
BRANCH   1  18
ATOM     18  C   UNL     1      34.995 -20.234 -20.260  0.00  0.00    +0.048 C 
ATOM     19  C   UNL     1      35.141 -17.905 -21.794  0.00  0.00    +0.047 C 
ATOM     20  C   UNL     1      33.886 -19.808 -20.993  0.00  0.00    +0.016 C 
ATOM     21  C   UNL     1      36.176 -19.493 -20.295  0.00  0.00    +0.016 C 
ATOM     22  C   UNL     1      33.959 -18.645 -21.760  0.00  0.00    +0.016 C 
ATOM     23  C   UNL     1      36.250 -18.330 -21.061  0.00  0.00    +0.016 C 
BRANCH  19  24
ATOM     24  N   UNL     1      35.215 -16.728 -22.567  0.00  0.00    -0.303 N 
ATOM     25  H   UNL     1      35.870 -16.777 -23.300  0.00  0.00    +0.150 HD
BRANCH  24  28
ATOM     26  N   UNL     1      34.200 -15.074 -21.270  0.00  0.00    -0.301 N 
ATOM     27  N   UNL     1      34.191 -14.734 -23.464  0.00  0.00    -0.301 N 
ATOM     28  C   UNL     1      34.533 -15.497 -22.497  0.00  0.00    +0.225 C 
ATOM     29  C   UNL     1      33.560 -13.882 -21.461  0.00  0.00    +0.076 C 
ATOM     30  C   UNL     1      33.568 -13.693 -22.823  0.00  0.00    +0.076 C 
ATOM     31  H   UNL     1      34.378 -15.525 -20.413  0.00  0.00    +0.150 HD
ATOM     32  H   UNL     1      34.340 -14.861 -24.429  0.00  0.00    +0.150 HD
ENDBRANCH  24  28
ENDBRANCH  19  24
ENDBRANCH   1  18
TORSDOF 6
ENDMDL
MODEL 7
REMARK VINA RESULT:     -11.5      1.501      2.186
REMARK  Name = 11370952
REMARK  6 active torsions:
REMARK  status: ('A' for Active; 'I' for Inactive)
REMARK    1  A    between atoms: N_1  and  C_3
REMARK    2  A    between atoms: N_1  and  C_18
REMARK    3  A    between atoms: C_4  and  N_9
REMARK    4  A    between atoms: N_9  and  C_12
REMARK    5  A    between atoms: C_19  and  N_24
REMARK    6  A    between atoms: N_24  and  C_27
REMARK                            x       y       z     vdW  Elec       q    Type
REMARK                         _______ _______ _______ _____ _____    ______ ____
ROOT
ATOM      1  N   UNL     1      35.266 -19.787 -20.632  0.00  0.00    -0.313 N 
ATOM      2  H   UNL     1      36.227 -20.003 -20.652  0.00  0.00    +0.152 HD
ENDROOT
BRANCH   1   3
ATOM      3  C   UNL     1      34.897 -18.761 -21.527  0.00  0.00    +0.048 C 
ATOM      4  C   UNL     1      34.174 -16.735 -23.303  0.00  0.00    +0.047 C 
ATOM      5  C   UNL     1      35.101 -17.426 -21.181  0.00  0.00    +0.016 C 
ATOM      6  C   UNL     1      34.332 -19.083 -22.761  0.00  0.00    +0.016 C 
ATOM      7  C   UNL     1      34.740 -16.413 -22.068  0.00  0.00    +0.016 C 
ATOM      8  C   UNL     1      33.971 -18.070 -23.648  0.00  0.00    +0.016 C 
BRANCH   4   9
ATOM      9  N   UNL     1      33.810 -15.710 -24.201  0.00  0.00    -0.303 N 
ATOM     10  H   UNL     1      33.827 -15.987 -25.145  0.00  0.00    +0.150 HD
BRANCH   9  13
ATOM     11  N   UNL     1      33.967 -13.742 -22.954  0.00  0.00    -0.301 N 
ATOM     12  N   UNL     1      32.629 -13.671 -24.726  0.00  0.00    -0.301 N 
ATOM     13  C   UNL     1      33.429 -14.368 -24.011  0.00  0.00    +0.225 C 
ATOM     14  C   UNL     1      33.453 -12.476 -22.984  0.00  0.00    +0.076 C 
ATOM     15  C   UNL     1      32.630 -12.457 -24.086  0.00  0.00    +0.076 C 
ATOM     16  H   UNL     1      34.599 -14.115 -22.298  0.00  0.00    +0.150 HD
ATOM     17  H   UNL     1      32.134 -13.939 -25.533  0.00  0.00    +0.150 HD
ENDBRANCH   9  13
ENDBRANCH   4   9
ENDBRANCH   1   3
BRANCH   1  18
ATOM     18  C   UNL     1      34.531 -20.561 -19.713  0.00  0.00    +0.048 C 
ATOM     19  C   UNL     1      33.076 -22.092 -17.887  0.00  0.00    +0.047 C 
ATOM     20  C   UNL     1      35.197 -21.343 -18.768  0.00  0.00    +0.016 C 
ATOM     21  C   UNL     1      33.137 -20.546 -19.744  0.00  0.00    +0.016 C 
ATOM     22  C   UNL     1      34.470 -22.108 -17.856  0.00  0.00    +0.016 C 
ATOM     23  C   UNL     1      32.409 -21.310 -18.831  0.00  0.00    +0.016 C 
BRANCH  19  24
ATOM     24  N   UNL     1      32.340 -22.863 -16.964  0.00  0.00    -0.303 N 
ATOM     25  H   UNL     1      32.760 -23.727 -16.747  0.00  0.00    +0.150 HD
BRANCH  24  28
ATOM     26  N   UNL     1      31.146 -22.805 -14.960  0.00  0.00    -0.301 N 
ATOM     27  N   UNL     1      29.999 -22.298 -16.792  0.00  0.00    -0.301 N 
ATOM     28  C   UNL     1      31.124 -22.639 -16.290  0.00  0.00    +0.225 C 
ATOM     29  C   UNL     1      29.872 -22.536 -14.543  0.00  0.00    +0.076 C 
ATOM     30  C   UNL     1      29.184 -22.225 -15.691  0.00  0.00    +0.076 C 
ATOM     31  H   UNL     1      31.915 -23.064 -14.402  0.00  0.00    +0.150 HD
ATOM     32  H   UNL     1      29.774 -22.129 -17.736  0.00  0.00    +0.150 HD
ENDBRANCH  24  28
ENDBRANCH  19  24
ENDBRANCH   1  18
TORSDOF 6
ENDMDL
MODEL 8
REMARK VINA RESULT:     -11.4      2.899      4.516
REMARK  Name = 11370952
REMARK  6 active torsions:
REMARK  status: ('A' for Active; 'I' for Inactive)
REMARK    1  A    between atoms: N_1  and  C_3
REMARK    2  A    between atoms: N_1  and  C_18
REMARK    3  A    between atoms: C_4  and  N_9
REMARK    4  A    between atoms: N_9  and  C_12
REMARK    5  A    between atoms: C_19  and  N_24
REMARK    6  A    between atoms: N_24  and  C_27
REMARK                            x       y       z     vdW  Elec       q    Type
REMARK                         _______ _______ _______ _____ _____    ______ ____
ROOT
ATOM      1  N   UNL     1      34.647 -21.599 -19.365  0.00  0.00    -0.313 N 
ATOM      2  H   UNL     1      34.465 -22.387 -19.927  0.00  0.00    +0.152 HD
ENDROOT
BRANCH   1   3
ATOM      3  C   UNL     1      34.826 -20.409 -20.101  0.00  0.00    +0.048 C 
ATOM      4  C   UNL     1      35.179 -18.050 -21.550  0.00  0.00    +0.047 C 
ATOM      5  C   UNL     1      33.740 -19.820 -20.749  0.00  0.00    +0.016 C 
ATOM      6  C   UNL     1      36.087 -19.818 -20.176  0.00  0.00    +0.016 C 
ATOM      7  C   UNL     1      33.916 -18.641 -21.473  0.00  0.00    +0.016 C 
ATOM      8  C   UNL     1      36.263 -18.640 -20.900  0.00  0.00    +0.016 C 
BRANCH   4   9
ATOM      9  N   UNL     1      35.356 -16.858 -22.280  0.00  0.00    -0.303 N 
ATOM     10  H   UNL     1      36.174 -16.848 -22.829  0.00  0.00    +0.150 HD
BRANCH   9  13
ATOM     11  N   UNL     1      34.295 -15.268 -23.620  0.00  0.00    -0.301 N 
ATOM     12  N   UNL     1      34.151 -14.948 -21.427  0.00  0.00    -0.301 N 
ATOM     13  C   UNL     1      34.594 -15.678 -22.379  0.00  0.00    +0.225 C 
ATOM     14  C   UNL     1      33.564 -14.125 -23.456  0.00  0.00    +0.076 C 
ATOM     15  C   UNL     1      33.489 -13.948 -22.095  0.00  0.00    +0.076 C 
ATOM     16  H   UNL     1      34.547 -15.699 -24.469  0.00  0.00    +0.150 HD
ATOM     17  H   UNL     1      34.259 -15.071 -20.457  0.00  0.00    +0.150 HD
ENDBRANCH   9  13
ENDBRANCH   4   9
ENDBRANCH   1   3
BRANCH   1  18
ATOM     18  C   UNL     1      34.678 -21.881 -17.986  0.00  0.00    +0.048 C 
ATOM     19  C   UNL     1      34.739 -22.433 -15.250  0.00  0.00    +0.047 C 
ATOM     20  C   UNL     1      35.836 -21.632 -17.248  0.00  0.00    +0.016 C 
ATOM     21  C   UNL     1      33.550 -22.405 -17.354  0.00  0.00    +0.016 C 
ATOM     22  C   UNL     1      35.867 -21.908 -15.881  0.00  0.00    +0.016 C 
ATOM     23  C   UNL     1      33.580 -22.681 -15.986  0.00  0.00    +0.016 C 
BRANCH  19  24
ATOM     24  N   UNL     1      34.768 -22.710 -13.867  0.00  0.00    -0.303 N 
ATOM     25  H   UNL     1      33.987 -22.364 -13.378  0.00  0.00    +0.150 HD
BRANCH  24  28
ATOM     26  N   UNL     1      35.591 -24.722 -13.018  0.00  0.00    -0.301 N 
ATOM     27  N   UNL     1      36.624 -22.881 -12.332  0.00  0.00    -0.301 N 
ATOM     28  C   UNL     1      35.695 -23.386 -13.050  0.00  0.00    +0.225 C 
ATOM     29  C   UNL     1      36.579 -25.141 -12.172  0.00  0.00    +0.076 C 
ATOM     30  C   UNL     1      37.204 -23.987 -11.762  0.00  0.00    +0.076 C 
ATOM     31  H   UNL     1      34.941 -25.283 -13.501  0.00  0.00    +0.150 HD
ATOM     32  H   UNL     1      36.865 -21.933 -12.218  0.00  0.00    +0.150 HD
ENDBRANCH  24  28
ENDBRANCH  19  24
ENDBRANCH   1  18
TORSDOF 6
ENDMDL
MODEL 9
REMARK VINA RESULT:     -11.4      1.646      9.501
REMARK  Name = 11370952
REMARK  6 active torsions:
REMARK  status: ('A' for Active; 'I' for Inactive)
REMARK    1  A    between atoms: N_1  and  C_3
REMARK    2  A    between atoms: N_1  and  C_18
REMARK    3  A    between atoms: C_4  and  N_9
REMARK    4  A    between atoms: N_9  and  C_12
REMARK    5  A    between atoms: C_19  and  N_24
REMARK    6  A    between atoms: N_24  and  C_27
REMARK                            x       y       z     vdW  Elec       q    Type
REMARK                         _______ _______ _______ _____ _____    ______ ____
ROOT
ATOM      1  N   UNL     1      34.465 -17.151 -23.367  0.00  0.00    -0.313 N 
ATOM      2  H   UNL     1      34.529 -17.542 -24.269  0.00  0.00    +0.152 HD
ENDROOT
BRANCH   1   3
ATOM      3  C   UNL     1      34.811 -18.048 -22.335  0.00  0.00    +0.048 C 
ATOM      4  C   UNL     1      35.491 -19.817 -20.287  0.00  0.00    +0.047 C 
ATOM      5  C   UNL     1      36.086 -18.005 -21.772  0.00  0.00    +0.016 C 
ATOM      6  C   UNL     1      33.876 -18.974 -21.874  0.00  0.00    +0.016 C 
ATOM      7  C   UNL     1      36.426 -18.889 -20.748  0.00  0.00    +0.016 C 
ATOM      8  C   UNL     1      34.216 -19.858 -20.851  0.00  0.00    +0.016 C 
BRANCH   4   9
ATOM      9  N   UNL     1      35.834 -20.709 -19.251  0.00  0.00    -0.303 N 
ATOM     10  H   UNL     1      36.804 -20.856 -19.161  0.00  0.00    +0.150 HD
BRANCH   9  13
ATOM     11  N   UNL     1      35.654 -21.703 -17.146  0.00  0.00    -0.301 N 
ATOM     12  N   UNL     1      33.867 -21.861 -18.457  0.00  0.00    -0.301 N 
ATOM     13  C   UNL     1      35.064 -21.431 -18.320  0.00  0.00    +0.225 C 
ATOM     14  C   UNL     1      34.723 -22.398 -16.427  0.00  0.00    +0.076 C 
ATOM     15  C   UNL     1      33.629 -22.483 -17.257  0.00  0.00    +0.076 C 
ATOM     16  H   UNL     1      36.563 -21.453 -16.863  0.00  0.00    +0.150 HD
ATOM     17  H   UNL     1      33.266 -21.770 -19.231  0.00  0.00    +0.150 HD
ENDBRANCH   9  13
ENDBRANCH   4   9
ENDBRANCH   1   3
BRANCH   1  18
ATOM     18  C   UNL     1      34.046 -15.806 -23.362  0.00  0.00    +0.048 C 
ATOM     19  C   UNL     1      33.223 -13.139 -23.352  0.00  0.00    +0.047 C 
ATOM     20  C   UNL     1      34.218 -15.026 -22.218  0.00  0.00    +0.016 C 
ATOM     21  C   UNL     1      33.463 -15.251 -24.501  0.00  0.00    +0.016 C 
ATOM     22  C   UNL     1      33.806 -13.693 -22.213  0.00  0.00    +0.016 C 
ATOM     23  C   UNL     1      33.051 -13.918 -24.496  0.00  0.00    +0.016 C 
BRANCH  19  24
ATOM     24  N   UNL     1      32.809 -11.791 -23.348  0.00  0.00    -0.303 N 
ATOM     25  H   UNL     1      33.247 -11.240 -24.036  0.00  0.00    +0.150 HD
BRANCH  24  28
ATOM     26  N   UNL     1      31.922  -9.743 -22.664  0.00  0.00    -0.301 N 
ATOM     27  N   UNL     1      31.024 -11.550 -21.739  0.00  0.00    -0.301 N 
ATOM     28  C   UNL     1      31.888 -11.078 -22.554  0.00  0.00    +0.225 C 
ATOM     29  C   UNL     1      30.955  -9.287 -21.812  0.00  0.00    +0.076 C 
ATOM     30  C   UNL     1      30.415 -10.421 -21.254  0.00  0.00    +0.076 C 
ATOM     31  H   UNL     1      32.516  -9.205 -23.237  0.00  0.00    +0.150 HD
ATOM     32  H   UNL     1      30.841 -12.492 -21.516  0.00  0.00    +0.150 HD
ENDBRANCH  24  28
ENDBRANCH  19  24
ENDBRANCH   1  18
TORSDOF 6
ENDMDL
