MODEL 1
REMARK VINA RESULT:     -10.6      0.000      0.000
REMARK  Name = 89808643
REMARK  6 active torsions:
REMARK  status: ('A' for Active; 'I' for Inactive)
REMARK    1  A    between atoms: C_1  and  N_2
REMARK    2  A    between atoms: C_1  and  C_20
REMARK    3  A    between atoms: C_1  and  C_30
REMARK    4  A    between atoms: C_9  and  C_16
REMARK    5  A    between atoms: C_23  and  C_29
REMARK    6  A    between atoms: C_30  and  N_31
REMARK                            x       y       z     vdW  Elec       q    Type
REMARK                         _______ _______ _______ _____ _____    ______ ____
ROOT
ATOM      1  C   UNL     1      32.213 -10.291 -22.250  0.00  0.00    +0.072 C 
ENDROOT
BRANCH   1   2
ATOM      2  N   UNL     1      32.486 -11.468 -23.007  0.00  0.00    -0.318 N 
ATOM      3  N   UNL     1      33.290 -12.600 -21.107  0.00  0.00    -0.230 NA
ATOM      4  N   UNL     1      34.081 -14.870 -21.271  0.00  0.00    -0.248 NA
ATOM      5  C   UNL     1      33.033 -12.641 -22.427  0.00  0.00    +0.127 C 
ATOM      6  C   UNL     1      33.271 -13.752 -23.231  0.00  0.00    +0.045 C 
ATOM      7  C   UNL     1      33.814 -14.877 -22.588  0.00  0.00    +0.071 C 
ATOM      8  C   UNL     1      32.994 -13.771 -24.609  0.00  0.00    +0.004 C 
ATOM      9  C   UNL     1      34.065 -16.008 -23.360  0.00  0.00    +0.138 C 
ATOM     10  C   UNL     1      33.806 -13.733 -20.601  0.00  0.00    +0.252 C 
ATOM     11  C   UNL     1      33.257 -14.914 -25.357  0.00  0.00    -0.004 C 
ATOM     12  C   UNL     1      33.793 -16.035 -24.731  0.00  0.00    -0.011 C 
ATOM     13  H   UNL     1      32.287 -11.467 -23.971  0.00  0.00    +0.148 HD
BRANCH   9  16
ATOM     14  O   UNL     1      34.027 -18.294 -22.790  0.00  0.00    -0.275 OA
ATOM     15  N   UNL     1      35.876 -17.098 -22.147  0.00  0.00    -0.328 N 
ATOM     16  C   UNL     1      34.629 -17.209 -22.753  0.00  0.00    +0.229 C 
ATOM     17  H   UNL     1      36.290 -17.885 -21.725  0.00  0.00    +0.145 HD
ATOM     18  H   UNL     1      36.344 -16.232 -22.139  0.00  0.00    +0.145 HD
ENDBRANCH   9  16
ENDBRANCH   1   2
BRANCH   1  20
ATOM     19 CL   UNL     1      34.294  -5.481 -25.235  0.00  0.00    -0.082 Cl
ATOM     20  C   UNL     1      32.727  -9.078 -23.000  0.00  0.00    -0.007 C 
ATOM     21  C   UNL     1      31.846  -8.063 -23.373  0.00  0.00    +0.002 C 
ATOM     22  C   UNL     1      34.081  -8.978 -23.320  0.00  0.00    -0.002 C 
ATOM     23  C   UNL     1      32.318  -6.947 -24.063  0.00  0.00    +0.082 C 
ATOM     24  C   UNL     1      34.553  -7.862 -24.011  0.00  0.00    +0.011 C 
ATOM     25  C   UNL     1      33.673  -6.847 -24.382  0.00  0.00    +0.062 C 
BRANCH  23  29
ATOM     26  F   UNL     1      30.070  -6.173 -24.048  0.00  0.00    -0.166 F 
ATOM     27  F   UNL     1      31.627  -4.663 -23.898  0.00  0.00    -0.166 F 
ATOM     28  F   UNL     1      31.270  -5.663 -25.788  0.00  0.00    -0.166 F 
ATOM     29  C   UNL     1      31.342  -5.881 -24.443  0.00  0.00    +0.419 C 
ENDBRANCH  23  29
ENDBRANCH   1  20
BRANCH   1  30
ATOM     30  C   UNL     1      30.711 -10.185 -21.945  0.00  0.00    -0.053 C 
BRANCH  30  31
ATOM     31  N   UNL     1      30.478  -9.971 -20.522  0.00  0.00    +0.388 N 
ATOM     32  C   UNL     1      31.507 -10.673 -19.710  0.00  0.00    -0.079 C 
ATOM     33  C   UNL     1      31.064  -8.678 -20.083  0.00  0.00    -0.079 C 
ATOM     34  C   UNL     1      31.568  -9.413 -18.826  0.00  0.00    -0.046 C 
ATOM     35  H   UNL     1      29.483 -10.172 -20.414  0.00  0.00    -0.080 HD
ENDBRANCH  30  31
ENDBRANCH   1  30
TORSDOF 6
ENDMDL
MODEL 2
REMARK VINA RESULT:     -10.4     10.919     14.525
REMARK  Name = 89808643
REMARK  6 active torsions:
REMARK  status: ('A' for Active; 'I' for Inactive)
REMARK    1  A    between atoms: C_1  and  N_2
REMARK    2  A    between atoms: C_1  and  C_20
REMARK    3  A    between atoms: C_1  and  C_30
REMARK    4  A    between atoms: C_9  and  C_16
REMARK    5  A    between atoms: C_23  and  C_29
REMARK    6  A    between atoms: C_30  and  N_31
REMARK                            x       y       z     vdW  Elec       q    Type
REMARK                         _______ _______ _______ _____ _____    ______ ____
ROOT
ATOM      1  C   UNL     1      33.366 -23.025 -15.656  0.00  0.00    +0.072 C 
ENDROOT
BRANCH   1   2
ATOM      2  N   UNL     1      33.118 -22.311 -16.865  0.00  0.00    -0.318 N 
ATOM      3  N   UNL     1      35.398 -21.788 -17.118  0.00  0.00    -0.230 NA
ATOM      4  N   UNL     1      36.161 -20.493 -19.002  0.00  0.00    -0.248 NA
ATOM      5  C   UNL     1      34.149 -21.683 -17.608  0.00  0.00    +0.127 C 
ATOM      6  C   UNL     1      33.829 -21.004 -18.781  0.00  0.00    +0.045 C 
ATOM      7  C   UNL     1      34.902 -20.407 -19.463  0.00  0.00    +0.071 C 
ATOM      8  C   UNL     1      32.516 -20.908 -19.273  0.00  0.00    +0.004 C 
ATOM      9  C   UNL     1      34.620 -19.719 -20.641  0.00  0.00    +0.138 C 
ATOM     10  C   UNL     1      36.342 -21.178 -17.855  0.00  0.00    +0.252 C 
ATOM     11  C   UNL     1      32.263 -20.214 -20.451  0.00  0.00    -0.004 C 
ATOM     12  C   UNL     1      33.317 -19.619 -21.137  0.00  0.00    -0.011 C 
ATOM     13  H   UNL     1      32.193 -22.252 -17.198  0.00  0.00    +0.148 HD
BRANCH   9  16
ATOM     14  O   UNL     1      35.643 -18.990 -22.634  0.00  0.00    -0.275 OA
ATOM     15  N   UNL     1      36.754 -18.544 -20.677  0.00  0.00    -0.328 N 
ATOM     16  C   UNL     1      35.689 -19.076 -21.397  0.00  0.00    +0.229 C 
ATOM     17  H   UNL     1      37.495 -18.102 -21.150  0.00  0.00    +0.145 HD
ATOM     18  H   UNL     1      36.767 -18.610 -19.695  0.00  0.00    +0.145 HD
ENDBRANCH   9  16
ENDBRANCH   1   2
BRANCH   1  20
ATOM     19 CL   UNL     1      28.190 -25.238 -13.490  0.00  0.00    -0.082 Cl
ATOM     20  C   UNL     1      32.060 -23.577 -15.119  0.00  0.00    -0.007 C 
ATOM     21  C   UNL     1      30.856 -23.253 -15.744  0.00  0.00    +0.002 C 
ATOM     22  C   UNL     1      32.062 -24.407 -13.998  0.00  0.00    -0.002 C 
ATOM     23  C   UNL     1      29.655 -23.760 -15.250  0.00  0.00    +0.082 C 
ATOM     24  C   UNL     1      30.861 -24.914 -13.504  0.00  0.00    +0.011 C 
ATOM     25  C   UNL     1      29.658 -24.591 -14.129  0.00  0.00    +0.062 C 
BRANCH  23  29
ATOM     26  F   UNL     1      27.799 -24.456 -16.563  0.00  0.00    -0.166 F 
ATOM     27  F   UNL     1      27.436 -22.875 -15.116  0.00  0.00    -0.166 F 
ATOM     28  F   UNL     1      28.556 -22.451 -16.923  0.00  0.00    -0.166 F 
ATOM     29  C   UNL     1      28.386 -23.390 -15.949  0.00  0.00    +0.419 C 
ENDBRANCH  23  29
ENDBRANCH   1  20
BRANCH   1  30
ATOM     30  C   UNL     1      34.406 -24.132 -15.889  0.00  0.00    -0.053 C 
BRANCH  30  31
ATOM     31  N   UNL     1      35.621 -23.880 -15.125  0.00  0.00    +0.388 N 
ATOM     32  C   UNL     1      35.308 -23.156 -13.865  0.00  0.00    -0.079 C 
ATOM     33  C   UNL     1      35.982 -25.069 -14.309  0.00  0.00    -0.079 C 
ATOM     34  C   UNL     1      36.304 -24.096 -13.159  0.00  0.00    -0.046 C 
ATOM     35  H   UNL     1      36.261 -23.494 -15.820  0.00  0.00    -0.080 HD
ENDBRANCH  30  31
ENDBRANCH   1  30
TORSDOF 6
ENDMDL
MODEL 3
REMARK VINA RESULT:     -10.1     11.393     14.945
REMARK  Name = 89808643
REMARK  6 active torsions:
REMARK  status: ('A' for Active; 'I' for Inactive)
REMARK    1  A    between atoms: C_1  and  N_2
REMARK    2  A    between atoms: C_1  and  C_20
REMARK    3  A    between atoms: C_1  and  C_30
REMARK    4  A    between atoms: C_9  and  C_16
REMARK    5  A    between atoms: C_23  and  C_29
REMARK    6  A    between atoms: C_30  and  N_31
REMARK                            x       y       z     vdW  Elec       q    Type
REMARK                         _______ _______ _______ _____ _____    ______ ____
ROOT
ATOM      1  C   UNL     1      33.134 -23.165 -16.445  0.00  0.00    +0.072 C 
ENDROOT
BRANCH   1   2
ATOM      2  N   UNL     1      34.003 -22.380 -17.259  0.00  0.00    -0.318 N 
ATOM      3  N   UNL     1      32.211 -21.628 -18.587  0.00  0.00    -0.230 NA
ATOM      4  N   UNL     1      32.592 -20.114 -20.422  0.00  0.00    -0.248 NA
ATOM      5  C   UNL     1      33.535 -21.599 -18.346  0.00  0.00    +0.127 C 
ATOM      6  C   UNL     1      34.445 -20.857 -19.094  0.00  0.00    +0.045 C 
ATOM      7  C   UNL     1      33.908 -20.108 -20.155  0.00  0.00    +0.071 C 
ATOM      8  C   UNL     1      35.824 -20.842 -18.823  0.00  0.00    +0.004 C 
ATOM      9  C   UNL     1      34.788 -19.352 -20.926  0.00  0.00    +0.138 C 
ATOM     10  C   UNL     1      31.814 -20.874 -19.624  0.00  0.00    +0.252 C 
ATOM     11  C   UNL     1      36.680 -20.079 -19.611  0.00  0.00    -0.004 C 
ATOM     12  C   UNL     1      36.161 -19.332 -20.664  0.00  0.00    -0.011 C 
ATOM     13  H   UNL     1      34.966 -22.379 -17.057  0.00  0.00    +0.148 HD
BRANCH   9  16
ATOM     14  O   UNL     1      34.283 -17.313 -21.993  0.00  0.00    -0.275 OA
ATOM     15  N   UNL     1      33.856 -19.233 -23.174  0.00  0.00    -0.328 N 
ATOM     16  C   UNL     1      34.295 -18.553 -22.043  0.00  0.00    +0.229 C 
ATOM     17  H   UNL     1      33.515 -18.730 -23.948  0.00  0.00    +0.145 HD
ATOM     18  H   UNL     1      33.885 -20.216 -23.200  0.00  0.00    +0.145 HD
ENDBRANCH   9  16
ENDBRANCH   1   2
BRANCH   1  20
ATOM     19 CL   UNL     1      36.018 -24.810 -11.409  0.00  0.00    -0.082 Cl
ATOM     20  C   UNL     1      33.865 -23.584 -15.185  0.00  0.00    -0.007 C 
ATOM     21  C   UNL     1      34.942 -24.468 -15.263  0.00  0.00    +0.002 C 
ATOM     22  C   UNL     1      33.460 -23.088 -13.946  0.00  0.00    -0.002 C 
ATOM     23  C   UNL     1      35.614 -24.853 -14.104  0.00  0.00    +0.082 C 
ATOM     24  C   UNL     1      34.132 -23.473 -12.787  0.00  0.00    +0.011 C 
ATOM     25  C   UNL     1      35.209 -24.356 -12.865  0.00  0.00    +0.062 C 
BRANCH  23  29
ATOM     26  F   UNL     1      36.889 -26.302 -15.492  0.00  0.00    -0.166 F 
ATOM     27  F   UNL     1      37.970 -25.235 -13.938  0.00  0.00    -0.166 F 
ATOM     28  F   UNL     1      36.667 -26.886 -13.410  0.00  0.00    -0.166 F 
ATOM     29  C   UNL     1      36.763 -25.800 -14.231  0.00  0.00    +0.419 C 
ENDBRANCH  23  29
ENDBRANCH   1  20
BRANCH   1  30
ATOM     30  C   UNL     1      31.845 -22.391 -16.132  0.00  0.00    -0.053 C 
BRANCH  30  31
ATOM     31  N   UNL     1      30.666 -23.210 -16.383  0.00  0.00    +0.388 N 
ATOM     32  C   UNL     1      30.287 -23.971 -15.163  0.00  0.00    -0.079 C 
ATOM     33  C   UNL     1      29.426 -22.407 -16.224  0.00  0.00    -0.079 C 
ATOM     34  C   UNL     1      28.822 -23.614 -15.481  0.00  0.00    -0.046 C 
ATOM     35  H   UNL     1      30.889 -23.682 -17.260  0.00  0.00    -0.080 HD
ENDBRANCH  30  31
ENDBRANCH   1  30
TORSDOF 6
ENDMDL
MODEL 4
REMARK VINA RESULT:      -9.8      6.301      9.994
REMARK  Name = 89808643
REMARK  6 active torsions:
REMARK  status: ('A' for Active; 'I' for Inactive)
REMARK    1  A    between atoms: C_1  and  N_2
REMARK    2  A    between atoms: C_1  and  C_20
REMARK    3  A    between atoms: C_1  and  C_30
REMARK    4  A    between atoms: C_9  and  C_16
REMARK    5  A    between atoms: C_23  and  C_29
REMARK    6  A    between atoms: C_30  and  N_31
REMARK                            x       y       z     vdW  Elec       q    Type
REMARK                         _______ _______ _______ _____ _____    ______ ____
ROOT
ATOM      1  C   UNL     1      35.088 -16.778 -22.236  0.00  0.00    +0.072 C 
ENDROOT
BRANCH   1   2
ATOM      2  N   UNL     1      34.273 -15.778 -21.626  0.00  0.00    -0.318 N 
ATOM      3  N   UNL     1      34.330 -14.439 -23.561  0.00  0.00    -0.230 NA
ATOM      4  N   UNL     1      33.171 -12.328 -23.629  0.00  0.00    -0.248 NA
ATOM      5  C   UNL     1      33.887 -14.591 -22.299  0.00  0.00    +0.127 C 
ATOM      6  C   UNL     1      33.088 -13.662 -21.639  0.00  0.00    +0.045 C 
ATOM      7  C   UNL     1      32.747 -12.511 -22.367  0.00  0.00    +0.071 C 
ATOM      8  C   UNL     1      32.638 -13.843 -20.319  0.00  0.00    +0.004 C 
ATOM      9  C   UNL     1      31.947 -11.558 -21.740  0.00  0.00    +0.138 C 
ATOM     10  C   UNL     1      33.940 -13.301 -24.158  0.00  0.00    +0.252 C 
ATOM     11  C   UNL     1      31.842 -12.874 -19.716  0.00  0.00    -0.004 C 
ATOM     12  C   UNL     1      31.496 -11.730 -20.428  0.00  0.00    -0.011 C 
ATOM     13  H   UNL     1      33.965 -15.919 -20.702  0.00  0.00    +0.148 HD
BRANCH   9  16
ATOM     14  O   UNL     1      30.388  -9.926 -22.414  0.00  0.00    -0.275 OA
ATOM     15  N   UNL     1      32.550  -9.648 -23.127  0.00  0.00    -0.328 N 
ATOM     16  C   UNL     1      31.558 -10.340 -22.441  0.00  0.00    +0.229 C 
ATOM     17  H   UNL     1      32.328  -8.822 -23.613  0.00  0.00    +0.145 HD
ATOM     18  H   UNL     1      33.475  -9.985 -23.126  0.00  0.00    +0.145 HD
ENDBRANCH   9  16
ENDBRANCH   1   2
BRANCH   1  20
ATOM     19 CL   UNL     1      35.004 -21.785 -18.875  0.00  0.00    -0.082 Cl
ATOM     20  C   UNL     1      35.057 -18.037 -21.392  0.00  0.00    -0.007 C 
ATOM     21  C   UNL     1      33.842 -18.665 -21.120  0.00  0.00    +0.002 C 
ATOM     22  C   UNL     1      36.244 -18.567 -20.886  0.00  0.00    -0.002 C 
ATOM     23  C   UNL     1      33.813 -19.823 -20.344  0.00  0.00    +0.082 C 
ATOM     24  C   UNL     1      36.216 -19.725 -20.110  0.00  0.00    +0.011 C 
ATOM     25  C   UNL     1      35.000 -20.353 -19.838  0.00  0.00    +0.062 C 
BRANCH  23  29
ATOM     26  F   UNL     1      31.544 -20.113 -20.992  0.00  0.00    -0.166 F 
ATOM     27  F   UNL     1      32.534 -21.830 -20.098  0.00  0.00    -0.166 F 
ATOM     28  F   UNL     1      31.965 -20.144 -18.859  0.00  0.00    -0.166 F 
ATOM     29  C   UNL     1      32.491 -20.466 -20.076  0.00  0.00    +0.419 C 
ENDBRANCH  23  29
ENDBRANCH   1  20
BRANCH   1  30
ATOM     30  C   UNL     1      34.629 -17.040 -23.678  0.00  0.00    -0.053 C 
BRANCH  30  31
ATOM     31  N   UNL     1      33.324 -17.687 -23.704  0.00  0.00    +0.388 N 
ATOM     32  C   UNL     1      32.500 -17.163 -24.825  0.00  0.00    -0.079 C 
ATOM     33  C   UNL     1      33.399 -18.989 -24.415  0.00  0.00    -0.079 C 
ATOM     34  C   UNL     1      32.067 -18.616 -25.095  0.00  0.00    -0.046 C 
ATOM     35  H   UNL     1      33.011 -17.624 -22.735  0.00  0.00    -0.080 HD
ENDBRANCH  30  31
ENDBRANCH   1  30
TORSDOF 6
ENDMDL
MODEL 5
REMARK VINA RESULT:      -9.7     13.000     16.147
REMARK  Name = 89808643
REMARK  6 active torsions:
REMARK  status: ('A' for Active; 'I' for Inactive)
REMARK    1  A    between atoms: C_1  and  N_2
REMARK    2  A    between atoms: C_1  and  C_20
REMARK    3  A    between atoms: C_1  and  C_30
REMARK    4  A    between atoms: C_9  and  C_16
REMARK    5  A    between atoms: C_23  and  C_29
REMARK    6  A    between atoms: C_30  and  N_31
REMARK                            x       y       z     vdW  Elec       q    Type
REMARK                         _______ _______ _______ _____ _____    ______ ____
ROOT
ATOM      1  C   UNL     1      34.913 -22.345 -15.893  0.00  0.00    +0.072 C 
ENDROOT
BRANCH   1   2
ATOM      2  N   UNL     1      33.728 -22.906 -15.331  0.00  0.00    -0.318 N 
ATOM      3  N   UNL     1      32.382 -21.940 -17.002  0.00  0.00    -0.230 NA
ATOM      4  N   UNL     1      29.997 -22.281 -17.008  0.00  0.00    -0.248 NA
ATOM      5  C   UNL     1      32.443 -22.701 -15.893  0.00  0.00    +0.127 C 
ATOM      6  C   UNL     1      31.333 -23.283 -15.288  0.00  0.00    +0.045 C 
ATOM      7  C   UNL     1      30.093 -23.035 -15.901  0.00  0.00    +0.071 C 
ATOM      8  C   UNL     1      31.422 -24.075 -14.130  0.00  0.00    +0.004 C 
ATOM      9  C   UNL     1      28.959 -23.602 -15.324  0.00  0.00    +0.138 C 
ATOM     10  C   UNL     1      31.146 -21.773 -17.499  0.00  0.00    +0.252 C 
ATOM     11  C   UNL     1      30.272 -24.626 -13.574  0.00  0.00    -0.004 C 
ATOM     12  C   UNL     1      29.039 -24.390 -14.172  0.00  0.00    -0.011 C 
ATOM     13  H   UNL     1      33.806 -23.459 -14.520  0.00  0.00    +0.148 HD
BRANCH   9  16
ATOM     14  O   UNL     1      27.183 -24.152 -16.770  0.00  0.00    -0.275 OA
ATOM     15  N   UNL     1      26.910 -22.290 -15.458  0.00  0.00    -0.328 N 
ATOM     16  C   UNL     1      27.642 -23.383 -15.911  0.00  0.00    +0.229 C 
ATOM     17  H   UNL     1      26.018 -22.108 -15.830  0.00  0.00    +0.145 HD
ATOM     18  H   UNL     1      27.286 -21.698 -14.767  0.00  0.00    +0.145 HD
ENDBRANCH   9  16
ENDBRANCH   1   2
BRANCH   1  20
ATOM     19 CL   UNL     1      39.766 -25.067 -13.566  0.00  0.00    -0.082 Cl
ATOM     20  C   UNL     1      36.127 -23.034 -15.302  0.00  0.00    -0.007 C 
ATOM     21  C   UNL     1      35.971 -23.965 -14.274  0.00  0.00    +0.002 C 
ATOM     22  C   UNL     1      37.402 -22.737 -15.784  0.00  0.00    -0.002 C 
ATOM     23  C   UNL     1      37.087 -24.598 -13.730  0.00  0.00    +0.082 C 
ATOM     24  C   UNL     1      38.518 -23.371 -15.241  0.00  0.00    +0.011 C 
ATOM     25  C   UNL     1      38.361 -24.301 -14.214  0.00  0.00    +0.062 C 
BRANCH  23  29
ATOM     26  F   UNL     1      36.711 -26.860 -13.099  0.00  0.00    -0.166 F 
ATOM     27  F   UNL     1      37.915 -25.654 -11.749  0.00  0.00    -0.166 F 
ATOM     28  F   UNL     1      35.775 -25.331 -11.869  0.00  0.00    -0.166 F 
ATOM     29  C   UNL     1      36.876 -25.590 -12.631  0.00  0.00    +0.419 C 
ENDBRANCH  23  29
ENDBRANCH   1  20
BRANCH   1  30
ATOM     30  C   UNL     1      34.882 -22.448 -17.425  0.00  0.00    -0.053 C 
BRANCH  30  31
ATOM     31  N   UNL     1      34.959 -21.130 -18.042  0.00  0.00    +0.388 N 
ATOM     32  C   UNL     1      36.305 -20.904 -18.631  0.00  0.00    -0.079 C 
ATOM     33  C   UNL     1      34.401 -21.162 -19.419  0.00  0.00    -0.079 C 
ATOM     34  C   UNL     1      35.592 -20.283 -19.847  0.00  0.00    -0.046 C 
ATOM     35  H   UNL     1      34.579 -20.512 -17.324  0.00  0.00    -0.080 HD
ENDBRANCH  30  31
ENDBRANCH   1  30
TORSDOF 6
ENDMDL
MODEL 6
REMARK VINA RESULT:      -9.5     10.653     14.035
REMARK  Name = 89808643
REMARK  6 active torsions:
REMARK  status: ('A' for Active; 'I' for Inactive)
REMARK    1  A    between atoms: C_1  and  N_2
REMARK    2  A    between atoms: C_1  and  C_20
REMARK    3  A    between atoms: C_1  and  C_30
REMARK    4  A    between atoms: C_9  and  C_16
REMARK    5  A    between atoms: C_23  and  C_29
REMARK    6  A    between atoms: C_30  and  N_31
REMARK                            x       y       z     vdW  Elec       q    Type
REMARK                         _______ _______ _______ _____ _____    ______ ____
ROOT
ATOM      1  C   UNL     1      34.194 -22.418 -17.166  0.00  0.00    +0.072 C 
ENDROOT
BRANCH   1   2
ATOM      2  N   UNL     1      34.827 -21.529 -18.084  0.00  0.00    -0.318 N 
ATOM      3  N   UNL     1      32.815 -21.175 -19.253  0.00  0.00    -0.230 NA
ATOM      4  N   UNL     1      32.745 -19.706 -21.162  0.00  0.00    -0.248 NA
ATOM      5  C   UNL     1      34.128 -20.897 -19.144  0.00  0.00    +0.127 C 
ATOM      6  C   UNL     1      34.815 -20.040 -19.999  0.00  0.00    +0.045 C 
ATOM      7  C   UNL     1      34.057 -19.452 -21.025  0.00  0.00    +0.071 C 
ATOM      8  C   UNL     1      36.187 -19.766 -19.865  0.00  0.00    +0.004 C 
ATOM      9  C   UNL     1      34.710 -18.588 -21.901  0.00  0.00    +0.138 C 
ATOM     10  C   UNL     1      32.195 -20.554 -20.270  0.00  0.00    +0.252 C 
ATOM     11  C   UNL     1      36.814 -18.900 -20.755  0.00  0.00    -0.004 C 
ATOM     12  C   UNL     1      36.074 -18.310 -21.774  0.00  0.00    -0.011 C 
ATOM     13  H   UNL     1      35.788 -21.346 -17.978  0.00  0.00    +0.148 HD
BRANCH   9  16
ATOM     14  O   UNL     1      33.946 -16.709 -23.099  0.00  0.00    -0.275 OA
ATOM     15  N   UNL     1      33.340 -18.768 -23.907  0.00  0.00    -0.328 N 
ATOM     16  C   UNL     1      33.981 -17.944 -22.988  0.00  0.00    +0.229 C 
ATOM     17  H   UNL     1      32.837 -18.372 -24.655  0.00  0.00    +0.145 HD
ATOM     18  H   UNL     1      33.389 -19.746 -23.810  0.00  0.00    +0.145 HD
ENDBRANCH   9  16
ENDBRANCH   1   2
BRANCH   1  20
ATOM     19 CL   UNL     1      37.862 -23.343 -12.468  0.00  0.00    -0.082 Cl
ATOM     20  C   UNL     1      35.108 -22.654 -15.980  0.00  0.00    -0.007 C 
ATOM     21  C   UNL     1      34.585 -23.137 -14.781  0.00  0.00    +0.002 C 
ATOM     22  C   UNL     1      36.473 -22.386 -16.087  0.00  0.00    -0.002 C 
ATOM     23  C   UNL     1      35.425 -23.353 -13.690  0.00  0.00    +0.082 C 
ATOM     24  C   UNL     1      37.313 -22.602 -14.996  0.00  0.00    +0.011 C 
ATOM     25  C   UNL     1      36.790 -23.086 -13.797  0.00  0.00    +0.062 C 
BRANCH  23  29
ATOM     26  F   UNL     1      35.472 -24.978 -11.955  0.00  0.00    -0.166 F 
ATOM     27  F   UNL     1      34.850 -22.971 -11.399  0.00  0.00    -0.166 F 
ATOM     28  F   UNL     1      33.517 -24.236 -12.549  0.00  0.00    -0.166 F 
ATOM     29  C   UNL     1      34.826 -23.873 -12.423  0.00  0.00    +0.419 C 
ENDBRANCH  23  29
ENDBRANCH   1  20
BRANCH   1  30
ATOM     30  C   UNL     1      32.826 -21.863 -16.738  0.00  0.00    -0.053 C 
BRANCH  30  31
ATOM     31  N   UNL     1      31.846 -22.933 -16.599  0.00  0.00    +0.388 N 
ATOM     32  C   UNL     1      31.501 -23.146 -15.169  0.00  0.00    -0.079 C 
ATOM     33  C   UNL     1      30.471 -22.414 -16.817  0.00  0.00    -0.079 C 
ATOM     34  C   UNL     1      30.032 -23.272 -15.615  0.00  0.00    -0.046 C 
ATOM     35  H   UNL     1      32.233 -23.682 -17.174  0.00  0.00    -0.080 HD
ENDBRANCH  30  31
ENDBRANCH   1  30
TORSDOF 6
ENDMDL
MODEL 7
REMARK VINA RESULT:      -9.4      4.940      8.092
REMARK  Name = 89808643
REMARK  6 active torsions:
REMARK  status: ('A' for Active; 'I' for Inactive)
REMARK    1  A    between atoms: C_1  and  N_2
REMARK    2  A    between atoms: C_1  and  C_20
REMARK    3  A    between atoms: C_1  and  C_30
REMARK    4  A    between atoms: C_9  and  C_16
REMARK    5  A    between atoms: C_23  and  C_29
REMARK    6  A    between atoms: C_30  and  N_31
REMARK                            x       y       z     vdW  Elec       q    Type
REMARK                         _______ _______ _______ _____ _____    ______ ____
ROOT
ATOM      1  C   UNL     1      31.459 -11.093 -22.410  0.00  0.00    +0.072 C 
ENDROOT
BRANCH   1   2
ATOM      2  N   UNL     1      32.289  -9.987 -22.760  0.00  0.00    -0.318 N 
ATOM      3  N   UNL     1      30.426  -8.581 -23.059  0.00  0.00    -0.230 NA
ATOM      4  N   UNL     1      30.715  -6.280 -23.714  0.00  0.00    -0.248 NA
ATOM      5  C   UNL     1      31.765  -8.711 -23.089  0.00  0.00    +0.127 C 
ATOM      6  C   UNL     1      32.639  -7.680 -23.420  0.00  0.00    +0.045 C 
ATOM      7  C   UNL     1      32.048  -6.445 -23.735  0.00  0.00    +0.071 C 
ATOM      8  C   UNL     1      34.035  -7.841 -23.445  0.00  0.00    +0.004 C 
ATOM      9  C   UNL     1      32.891  -5.388 -24.070  0.00  0.00    +0.138 C 
ATOM     10  C   UNL     1      29.975  -7.356 -23.378  0.00  0.00    +0.252 C 
ATOM     11  C   UNL     1      34.854  -6.768 -23.785  0.00  0.00    -0.004 C 
ATOM     12  C   UNL     1      34.281  -5.540 -24.098  0.00  0.00    -0.011 C 
ATOM     13  H   UNL     1      33.265 -10.114 -22.773  0.00  0.00    +0.148 HD
BRANCH   9  16
ATOM     14  O   UNL     1      32.436  -3.618 -25.557  0.00  0.00    -0.275 OA
ATOM     15  N   UNL     1      31.688  -3.378 -23.402  0.00  0.00    -0.328 N 
ATOM     16  C   UNL     1      32.341  -4.080 -24.409  0.00  0.00    +0.229 C 
ATOM     17  H   UNL     1      31.304  -2.492 -23.590  0.00  0.00    +0.145 HD
ATOM     18  H   UNL     1      31.612  -3.766 -22.500  0.00  0.00    +0.145 HD
ENDBRANCH   9  16
ENDBRANCH   1   2
BRANCH   1  20
ATOM     19 CL   UNL     1      34.786 -16.120 -22.215  0.00  0.00    -0.082 Cl
ATOM     20  C   UNL     1      32.294 -12.358 -22.371  0.00  0.00    -0.007 C 
ATOM     21  C   UNL     1      32.483 -13.106 -23.533  0.00  0.00    +0.002 C 
ATOM     22  C   UNL     1      32.871 -12.775 -21.171  0.00  0.00    -0.002 C 
ATOM     23  C   UNL     1      33.250 -14.269 -23.496  0.00  0.00    +0.082 C 
ATOM     24  C   UNL     1      33.639 -13.939 -21.135  0.00  0.00    +0.011 C 
ATOM     25  C   UNL     1      33.828 -14.686 -22.297  0.00  0.00    +0.062 C 
BRANCH  23  29
ATOM     26  F   UNL     1      33.001 -14.353 -25.859  0.00  0.00    -0.166 F 
ATOM     27  F   UNL     1      34.728 -15.372 -25.021  0.00  0.00    -0.166 F 
ATOM     28  F   UNL     1      32.749 -16.224 -24.781  0.00  0.00    -0.166 F 
ATOM     29  C   UNL     1      33.430 -15.042 -24.764  0.00  0.00    +0.419 C 
ENDBRANCH  23  29
ENDBRANCH   1  20
BRANCH   1  30
ATOM     30  C   UNL     1      30.749 -10.830 -21.073  0.00  0.00    -0.053 C 
BRANCH  30  31
ATOM     31  N   UNL     1      31.525  -9.923 -20.237  0.00  0.00    +0.388 N 
ATOM     32  C   UNL     1      30.656  -8.854 -19.675  0.00  0.00    -0.079 C 
ATOM     33  C   UNL     1      31.674 -10.473 -18.865  0.00  0.00    -0.079 C 
ATOM     34  C   UNL     1      31.397  -9.051 -18.339  0.00  0.00    -0.046 C 
ATOM     35  H   UNL     1      32.336  -9.704 -20.816  0.00  0.00    -0.080 HD
ENDBRANCH  30  31
ENDBRANCH   1  30
TORSDOF 6
ENDMDL
MODEL 8
REMARK VINA RESULT:      -9.1     12.043     15.598
REMARK  Name = 89808643
REMARK  6 active torsions:
REMARK  status: ('A' for Active; 'I' for Inactive)
REMARK    1  A    between atoms: C_1  and  N_2
REMARK    2  A    between atoms: C_1  and  C_20
REMARK    3  A    between atoms: C_1  and  C_30
REMARK    4  A    between atoms: C_9  and  C_16
REMARK    5  A    between atoms: C_23  and  C_29
REMARK    6  A    between atoms: C_30  and  N_31
REMARK                            x       y       z     vdW  Elec       q    Type
REMARK                         _______ _______ _______ _____ _____    ______ ____
ROOT
ATOM      1  C   UNL     1      33.891 -23.730 -15.087  0.00  0.00    +0.072 C 
ENDROOT
BRANCH   1   2
ATOM      2  N   UNL     1      34.450 -22.951 -16.143  0.00  0.00    -0.318 N 
ATOM      3  N   UNL     1      32.328 -22.544 -17.075  0.00  0.00    -0.230 NA
ATOM      4  N   UNL     1      32.095 -21.210 -19.067  0.00  0.00    -0.248 NA
ATOM      5  C   UNL     1      33.657 -22.348 -17.152  0.00  0.00    +0.127 C 
ATOM      6  C   UNL     1      34.276 -21.601 -18.150  0.00  0.00    +0.045 C 
ATOM      7  C   UNL     1      33.427 -21.035 -19.115  0.00  0.00    +0.071 C 
ATOM      8  C   UNL     1      35.667 -21.411 -18.210  0.00  0.00    +0.004 C 
ATOM      9  C   UNL     1      34.009 -20.279 -20.130  0.00  0.00    +0.138 C 
ATOM     10  C   UNL     1      31.617 -21.955 -18.050  0.00  0.00    +0.252 C 
ATOM     11  C   UNL     1      36.222 -20.652 -19.236  0.00  0.00    -0.004 C 
ATOM     12  C   UNL     1      35.392 -20.085 -20.197  0.00  0.00    -0.011 C 
ATOM     13  H   UNL     1      35.426 -22.826 -16.172  0.00  0.00    +0.148 HD
BRANCH   9  16
ATOM     14  O   UNL     1      33.692 -19.079 -22.132  0.00  0.00    -0.275 OA
ATOM     15  N   UNL     1      31.803 -19.777 -21.034  0.00  0.00    -0.328 N 
ATOM     16  C   UNL     1      33.183 -19.665 -21.163  0.00  0.00    +0.229 C 
ATOM     17  H   UNL     1      31.211 -19.375 -21.710  0.00  0.00    +0.145 HD
ATOM     18  H   UNL     1      31.418 -20.257 -20.265  0.00  0.00    +0.145 HD
ENDBRANCH   9  16
ENDBRANCH   1   2
BRANCH   1  20
ATOM     19 CL   UNL     1      38.198 -25.177 -11.120  0.00  0.00    -0.082 Cl
ATOM     20  C   UNL     1      34.980 -24.094 -14.097  0.00  0.00    -0.007 C 
ATOM     21  C   UNL     1      36.289 -24.289 -14.540  0.00  0.00    +0.002 C 
ATOM     22  C   UNL     1      34.674 -24.236 -12.744  0.00  0.00    -0.002 C 
ATOM     23  C   UNL     1      37.290 -24.624 -13.629  0.00  0.00    +0.082 C 
ATOM     24  C   UNL     1      35.675 -24.571 -11.834  0.00  0.00    +0.011 C 
ATOM     25  C   UNL     1      36.983 -24.765 -12.276  0.00  0.00    +0.062 C 
BRANCH  23  29
ATOM     26  F   UNL     1      39.627 -24.352 -13.284  0.00  0.00    -0.166 F 
ATOM     27  F   UNL     1      38.997 -26.133 -14.360  0.00  0.00    -0.166 F 
ATOM     28  F   UNL     1      38.915 -24.197 -15.332  0.00  0.00    -0.166 F 
ATOM     29  C   UNL     1      38.680 -24.824 -14.144  0.00  0.00    +0.419 C 
ENDBRANCH  23  29
ENDBRANCH   1  20
BRANCH   1  30
ATOM     30  C   UNL     1      32.733 -22.975 -14.417  0.00  0.00    -0.053 C 
BRANCH  30  31
ATOM     31  N   UNL     1      31.485 -23.717 -14.533  0.00  0.00    +0.388 N 
ATOM     32  C   UNL     1      31.357 -24.705 -13.430  0.00  0.00    -0.079 C 
ATOM     33  C   UNL     1      30.362 -22.953 -13.931  0.00  0.00    -0.079 C 
ATOM     34  C   UNL     1      29.881 -24.280 -13.314  0.00  0.00    -0.046 C 
ATOM     35  H   UNL     1      31.472 -24.004 -15.513  0.00  0.00    -0.080 HD
ENDBRANCH  30  31
ENDBRANCH   1  30
TORSDOF 6
ENDMDL
MODEL 9
REMARK VINA RESULT:      -9.0      1.747      2.135
REMARK  Name = 89808643
REMARK  6 active torsions:
REMARK  status: ('A' for Active; 'I' for Inactive)
REMARK    1  A    between atoms: C_1  and  N_2
REMARK    2  A    between atoms: C_1  and  C_20
REMARK    3  A    between atoms: C_1  and  C_30
REMARK    4  A    between atoms: C_9  and  C_16
REMARK    5  A    between atoms: C_23  and  C_29
REMARK    6  A    between atoms: C_30  and  N_31
REMARK                            x       y       z     vdW  Elec       q    Type
REMARK                         _______ _______ _______ _____ _____    ______ ____
ROOT
ATOM      1  C   UNL     1      31.709  -9.673 -21.896  0.00  0.00    +0.072 C 
ENDROOT
BRANCH   1   2
ATOM      2  N   UNL     1      32.017 -10.663 -22.877  0.00  0.00    -0.318 N 
ATOM      3  N   UNL     1      32.694 -12.201 -21.229  0.00  0.00    -0.230 NA
ATOM      4  N   UNL     1      33.473 -14.396 -21.843  0.00  0.00    -0.248 NA
ATOM      5  C   UNL     1      32.517 -11.946 -22.539  0.00  0.00    +0.127 C 
ATOM      6  C   UNL     1      32.793 -12.859 -23.553  0.00  0.00    +0.045 C 
ATOM      7  C   UNL     1      33.285 -14.109 -23.142  0.00  0.00    +0.071 C 
ATOM      8  C   UNL     1      32.600 -12.569 -24.914  0.00  0.00    +0.004 C 
ATOM      9  C   UNL     1      33.573 -15.049 -24.129  0.00  0.00    +0.138 C 
ATOM     10  C   UNL     1      33.168 -13.427 -20.957  0.00  0.00    +0.252 C 
ATOM     11  C   UNL     1      32.897 -13.527 -25.879  0.00  0.00    -0.004 C 
ATOM     12  C   UNL     1      33.384 -14.769 -25.485  0.00  0.00    -0.011 C 
ATOM     13  H   UNL     1      31.876 -10.446 -23.827  0.00  0.00    +0.148 HD
BRANCH   9  16
ATOM     14  O   UNL     1      33.574 -17.403 -24.217  0.00  0.00    -0.275 OA
ATOM     15  N   UNL     1      35.188 -16.416 -22.920  0.00  0.00    -0.328 N 
ATOM     16  C   UNL     1      34.087 -16.366 -23.769  0.00  0.00    +0.229 C 
ATOM     17  H   UNL     1      35.564 -17.285 -22.653  0.00  0.00    +0.145 HD
ATOM     18  H   UNL     1      35.589 -15.582 -22.585  0.00  0.00    +0.145 HD
ENDBRANCH   9  16
ENDBRANCH   1   2
BRANCH   1  20
ATOM     19 CL   UNL     1      30.899  -4.364 -24.641  0.00  0.00    -0.082 Cl
ATOM     20  C   UNL     1      31.505  -8.335 -22.577  0.00  0.00    -0.007 C 
ATOM     21  C   UNL     1      31.249  -7.195 -21.814  0.00  0.00    +0.002 C 
ATOM     22  C   UNL     1      31.569  -8.242 -23.968  0.00  0.00    -0.002 C 
ATOM     23  C   UNL     1      31.060  -5.964 -22.441  0.00  0.00    +0.082 C 
ATOM     24  C   UNL     1      31.380  -7.011 -24.594  0.00  0.00    +0.011 C 
ATOM     25  C   UNL     1      31.126  -5.871 -23.831  0.00  0.00    +0.062 C 
BRANCH  23  29
ATOM     26  F   UNL     1      31.661  -3.746 -21.829  0.00  0.00    -0.166 F 
ATOM     27  F   UNL     1      29.545  -4.239 -21.768  0.00  0.00    -0.166 F 
ATOM     28  F   UNL     1      30.881  -5.020 -20.249  0.00  0.00    -0.166 F 
ATOM     29  C   UNL     1      30.790  -4.767 -21.587  0.00  0.00    +0.419 C 
ENDBRANCH  23  29
ENDBRANCH   1  20
BRANCH   1  30
ATOM     30  C   UNL     1      30.481 -10.095 -21.075  0.00  0.00    -0.053 C 
BRANCH  30  31
ATOM     31  N   UNL     1      30.826 -10.275 -19.670  0.00  0.00    +0.388 N 
ATOM     32  C   UNL     1      32.189  -9.750 -19.393  0.00  0.00    -0.079 C 
ATOM     33  C   UNL     1      30.272  -9.167 -18.849  0.00  0.00    -0.079 C 
ATOM     34  C   UNL     1      31.617  -9.144 -18.098  0.00  0.00    -0.046 C 
ATOM     35  H   UNL     1      30.580 -11.249 -19.490  0.00  0.00    -0.080 HD
ENDBRANCH  30  31
ENDBRANCH   1  30
TORSDOF 6
ENDMDL
