MODEL 1
REMARK VINA RESULT:     -11.6      0.000      0.000
REMARK  Name = 11647372
REMARK  1 active torsions:
REMARK  status: ('A' for Active; 'I' for Inactive)
REMARK    1  A    between atoms: C_22  and  C_30
REMARK                            x       y       z     vdW  Elec       q    Type
REMARK                         _______ _______ _______ _____ _____    ______ ____
ROOT
ATOM      1  O   UNL     1      35.507 -20.566 -19.904  0.00  0.00    -0.350 OA
ATOM      2  O   UNL     1      28.899 -24.134 -13.994  0.00  0.00    -0.350 OA
ATOM      3  N   UNL     1      34.802 -21.818 -17.489  0.00  0.00    -0.228 N 
ATOM      4  N   UNL     1      31.587 -23.792 -14.741  0.00  0.00    -0.228 N 
ATOM      5  N   UNL     1      36.105 -24.134 -13.663  0.00  0.00    -0.161 N 
ATOM      6  N   UNL     1      33.167 -22.793 -16.139  0.00  0.00    -0.246 NA
ATOM      7  N   UNL     1      33.841 -23.985 -14.168  0.00  0.00    -0.246 NA
ATOM      8  N   UNL     1      35.494 -22.971 -15.581  0.00  0.00    -0.246 NA
ATOM      9  N   UNL     1      37.118 -24.775 -11.791  0.00  0.00    -0.387 NA
ATOM     10  C   UNL     1      33.920 -21.913 -18.659  0.00  0.00    +0.135 C 
ATOM     11  C   UNL     1      36.208 -21.524 -17.788  0.00  0.00    +0.135 C 
ATOM     12  C   UNL     1      30.567 -22.827 -15.176  0.00  0.00    +0.135 C 
ATOM     13  C   UNL     1      31.244 -24.568 -13.545  0.00  0.00    +0.135 C 
ATOM     14  C   UNL     1      34.473 -22.561 -16.351  0.00  0.00    +0.225 C 
ATOM     15  C   UNL     1      32.926 -23.511 -15.029  0.00  0.00    +0.225 C 
ATOM     16  C   UNL     1      34.128 -20.702 -19.561  0.00  0.00    +0.164 C 
ATOM     17  C   UNL     1      36.295 -20.334 -18.737  0.00  0.00    +0.164 C 
ATOM     18  C   UNL     1      29.207 -23.512 -15.242  0.00  0.00    +0.164 C 
ATOM     19  C   UNL     1      29.847 -25.159 -13.699  0.00  0.00    +0.164 C 
ATOM     20  C   UNL     1      35.097 -23.674 -14.513  0.00  0.00    +0.235 C 
ATOM     21  C   UNL     1      37.384 -24.463 -14.033  0.00  0.00    +0.095 C 
ATOM     22  C   UNL     1      35.995 -24.337 -12.316  0.00  0.00    +0.244 C 
ATOM     23  C   UNL     1      37.997 -24.859 -12.847  0.00  0.00    +0.129 C 
ATOM     24  C   UNL     1      38.039 -24.447 -15.265  0.00  0.00    +0.018 C 
ATOM     25  C   UNL     1      39.341 -25.267 -12.873  0.00  0.00    +0.086 C 
ATOM     26  C   UNL     1      39.376 -24.858 -15.273  0.00  0.00    -0.003 C 
ATOM     27  C   UNL     1      40.017 -25.260 -14.099  0.00  0.00    -0.019 C 
ENDROOT
BRANCH  22  30
ATOM     28  F   UNL     1      34.540 -22.746 -11.371  0.00  0.00    -0.189 F 
ATOM     29  F   UNL     1      34.777 -24.641 -10.325  0.00  0.00    -0.189 F 
ATOM     30  C   UNL     1      34.743 -24.082 -11.572  0.00  0.00    +0.385 C 
ENDBRANCH  22  30
TORSDOF 1
ENDMDL
MODEL 2
REMARK VINA RESULT:     -10.5      2.029      5.605
REMARK  Name = 11647372
REMARK  1 active torsions:
REMARK  status: ('A' for Active; 'I' for Inactive)
REMARK    1  A    between atoms: C_22  and  C_30
REMARK                            x       y       z     vdW  Elec       q    Type
REMARK                         _______ _______ _______ _____ _____    ______ ____
ROOT
ATOM      1  O   UNL     1      28.774 -24.157 -14.675  0.00  0.00    -0.350 OA
ATOM      2  O   UNL     1      35.317 -20.451 -20.571  0.00  0.00    -0.350 OA
ATOM      3  N   UNL     1      31.450 -23.591 -15.315  0.00  0.00    -0.228 N 
ATOM      4  N   UNL     1      34.603 -21.540 -18.079  0.00  0.00    -0.228 N 
ATOM      5  N   UNL     1      35.907 -23.338 -13.987  0.00  0.00    -0.161 N 
ATOM      6  N   UNL     1      32.999 -22.557 -16.723  0.00  0.00    -0.246 NA
ATOM      7  N   UNL     1      35.295 -22.429 -16.036  0.00  0.00    -0.246 NA
ATOM      8  N   UNL     1      33.674 -23.483 -14.615  0.00  0.00    -0.246 NA
ATOM      9  N   UNL     1      37.922 -23.785 -13.160  0.00  0.00    -0.387 NA
ATOM     10  C   UNL     1      30.364 -22.788 -15.891  0.00  0.00    +0.135 C 
ATOM     11  C   UNL     1      31.119 -24.289 -14.069  0.00  0.00    +0.135 C 
ATOM     12  C   UNL     1      33.805 -21.838 -19.277  0.00  0.00    +0.135 C 
ATOM     13  C   UNL     1      35.986 -21.127 -18.338  0.00  0.00    +0.135 C 
ATOM     14  C   UNL     1      32.768 -23.192 -15.562  0.00  0.00    +0.225 C 
ATOM     15  C   UNL     1      34.284 -22.206 -16.892  0.00  0.00    +0.225 C 
ATOM     16  C   UNL     1      29.088 -23.620 -15.959  0.00  0.00    +0.164 C 
ATOM     17  C   UNL     1      29.803 -25.041 -14.233  0.00  0.00    +0.164 C 
ATOM     18  C   UNL     1      33.941 -20.701 -20.283  0.00  0.00    +0.164 C 
ATOM     19  C   UNL     1      36.006 -20.028 -19.394  0.00  0.00    +0.164 C 
ATOM     20  C   UNL     1      34.909 -23.070 -14.925  0.00  0.00    +0.235 C 
ATOM     21  C   UNL     1      35.735 -23.428 -12.628  0.00  0.00    +0.095 C 
ATOM     22  C   UNL     1      37.229 -23.559 -14.254  0.00  0.00    +0.244 C 
ATOM     23  C   UNL     1      37.007 -23.708 -12.135  0.00  0.00    +0.129 C 
ATOM     24  C   UNL     1      34.610 -23.293 -11.814  0.00  0.00    +0.018 C 
ATOM     25  C   UNL     1      37.185 -23.865 -10.751  0.00  0.00    +0.086 C 
ATOM     26  C   UNL     1      34.806 -23.452 -10.438  0.00  0.00    -0.003 C 
ATOM     27  C   UNL     1      36.070 -23.734  -9.914  0.00  0.00    -0.019 C 
ENDROOT
BRANCH  22  30
ATOM     28  F   UNL     1      38.922 -24.280 -15.723  0.00  0.00    -0.189 F 
ATOM     29  F   UNL     1      38.127 -22.274 -16.010  0.00  0.00    -0.189 F 
ATOM     30  C   UNL     1      37.778 -23.538 -15.628  0.00  0.00    +0.385 C 
ENDBRANCH  22  30
TORSDOF 1
ENDMDL
