MODEL 1
REMARK VINA RESULT:     -13.4      0.000      0.000
REMARK  Name = 5291
REMARK  6 active torsions:
REMARK  status: ('A' for Active; 'I' for Inactive)
REMARK    1  A    between atoms: C_1  and  N_23
REMARK    2  A    between atoms: C_2  and  N_8
REMARK    3  A    between atoms: C_12  and  C_17
REMARK    4  A    between atoms: C_24  and  C_31
REMARK    5  A    between atoms: C_26  and  C_32
REMARK    6  A    between atoms: C_32  and  N_33
REMARK                            x       y       z     vdW  Elec       q    Type
REMARK                         _______ _______ _______ _____ _____    ______ ____
ROOT
ATOM      1  C   UNL     1      32.356 -22.563 -16.130  0.00  0.00    +0.052 C 
ATOM      2  C   UNL     1      32.404 -23.231 -13.828  0.00  0.00    +0.055 C 
ATOM      3  C   UNL     1      32.944 -22.489 -14.878  0.00  0.00    +0.030 C 
ATOM      4  C   UNL     1      31.285 -24.035 -14.045  0.00  0.00    -0.008 C 
ATOM      5  C   UNL     1      31.246 -23.355 -16.363  0.00  0.00    +0.014 C 
ATOM      6  C   UNL     1      30.706 -24.097 -15.312  0.00  0.00    -0.002 C 
ATOM      7  C   UNL     1      30.686 -24.841 -12.938  0.00  0.00    +0.032 C 
ENDROOT
BRANCH   2   8
ATOM      8  N   UNL     1      33.002 -23.156 -12.550  0.00  0.00    -0.248 N 
ATOM      9  N   UNL     1      35.212 -23.786 -13.024  0.00  0.00    -0.337 NA
ATOM     10  N   UNL     1      34.538 -23.228 -10.778  0.00  0.00    -0.170 NA
ATOM     11  C   UNL     1      34.311 -23.401 -12.097  0.00  0.00    +0.149 C 
ATOM     12  C   UNL     1      36.456 -24.014 -12.555  0.00  0.00    +0.147 C 
ATOM     13  C   UNL     1      36.814 -23.871 -11.229  0.00  0.00    +0.055 C 
ATOM     14  C   UNL     1      35.804 -23.473 -10.378  0.00  0.00    +0.114 C 
ATOM     15  H   UNL     1      32.382 -22.877 -11.839  0.00  0.00    +0.165 HD
BRANCH  12  17
ATOM     16  N   UNL     1      38.815 -26.170 -14.473  0.00  0.00    -0.242 NA
ATOM     17  C   UNL     1      37.420 -24.425 -13.547  0.00  0.00    +0.050 C 
ATOM     18  C   UNL     1      37.883 -23.534 -14.510  0.00  0.00    +0.006 C 
ATOM     19  C   UNL     1      37.913 -25.720 -13.572  0.00  0.00    +0.101 C 
ATOM     20  C   UNL     1      38.812 -23.960 -15.453  0.00  0.00    +0.021 C 
ATOM     21  C   UNL     1      39.242 -25.275 -15.393  0.00  0.00    +0.099 C 
ENDBRANCH  12  17
ENDBRANCH   2   8
BRANCH   1  23
ATOM     22  O   UNL     1      33.367 -23.448 -18.811  0.00  0.00    -0.270 OA
ATOM     23  N   UNL     1      32.904 -21.809 -17.196  0.00  0.00    -0.280 N 
ATOM     24  C   UNL     1      33.367 -22.263 -18.440  0.00  0.00    +0.249 C 
ATOM     25  H   UNL     1      32.968 -20.838 -17.046  0.00  0.00    +0.155 HD
BRANCH  24  31
ATOM     26  C   UNL     1      34.933 -19.299 -21.019  0.00  0.00    -0.043 C 
ATOM     27  C   UNL     1      35.800 -20.067 -20.256  0.00  0.00    -0.006 C 
ATOM     28  C   UNL     1      33.560 -19.489 -20.950  0.00  0.00    -0.006 C 
ATOM     29  C   UNL     1      35.284 -21.045 -19.406  0.00  0.00    +0.004 C 
ATOM     30  C   UNL     1      33.043 -20.467 -20.100  0.00  0.00    +0.004 C 
ATOM     31  C   UNL     1      33.905 -21.245 -19.328  0.00  0.00    +0.054 C 
BRANCH  26  32
ATOM     32  C   UNL     1      35.490 -18.244 -21.938  0.00  0.00    -0.050 C 
BRANCH  32  33
ATOM     33  N   UNL     1      34.513 -17.191 -22.213  0.00  0.00    +0.387 N 
ATOM     34  N   UNL     1      33.762 -14.533 -23.067  0.00  0.00    +0.383 N 
ATOM     35  C   UNL     1      34.543 -16.810 -23.630  0.00  0.00    -0.100 C 
ATOM     36  C   UNL     1      34.757 -16.021 -21.362  0.00  0.00    -0.100 C 
ATOM     37  C   UNL     1      33.520 -15.705 -23.918  0.00  0.00    -0.101 C 
ATOM     38  C   UNL     1      33.736 -14.914 -21.649  0.00  0.00    -0.101 C 
ATOM     39  C   UNL     1      32.785 -13.482 -23.341  0.00  0.00    -0.101 C 
ATOM     40  H   UNL     1      33.587 -17.558 -21.997  0.00  0.00    -0.079 HD
ATOM     41  H   UNL     1      34.689 -14.165 -23.282  0.00  0.00    -0.080 HD
ENDBRANCH  32  33
ENDBRANCH  26  32
ENDBRANCH  24  31
ENDBRANCH   1  23
TORSDOF 6
ENDMDL
MODEL 2
REMARK VINA RESULT:     -12.2      2.368      5.679
REMARK  Name = 5291
REMARK  6 active torsions:
REMARK  status: ('A' for Active; 'I' for Inactive)
REMARK    1  A    between atoms: C_1  and  N_23
REMARK    2  A    between atoms: C_2  and  N_8
REMARK    3  A    between atoms: C_12  and  C_17
REMARK    4  A    between atoms: C_24  and  C_31
REMARK    5  A    between atoms: C_26  and  C_32
REMARK    6  A    between atoms: C_32  and  N_33
REMARK                            x       y       z     vdW  Elec       q    Type
REMARK                         _______ _______ _______ _____ _____    ______ ____
ROOT
ATOM      1  C   UNL     1      33.731 -19.774 -20.205  0.00  0.00    +0.052 C 
ATOM      2  C   UNL     1      32.602 -21.392 -18.843  0.00  0.00    +0.055 C 
ATOM      3  C   UNL     1      32.602 -20.165 -19.504  0.00  0.00    +0.030 C 
ATOM      4  C   UNL     1      33.731 -22.211 -18.891  0.00  0.00    -0.008 C 
ATOM      5  C   UNL     1      34.859 -20.574 -20.263  0.00  0.00    +0.014 C 
ATOM      6  C   UNL     1      34.859 -21.801 -19.601  0.00  0.00    -0.002 C 
ATOM      7  C   UNL     1      33.759 -23.530 -18.191  0.00  0.00    +0.032 C 
ENDROOT
BRANCH   2   8
ATOM      8  N   UNL     1      31.451 -21.792 -18.128  0.00  0.00    -0.248 N 
ATOM      9  N   UNL     1      32.378 -22.476 -16.083  0.00  0.00    -0.337 NA
ATOM     10  N   UNL     1      30.001 -22.590 -16.465  0.00  0.00    -0.170 NA
ATOM     11  C   UNL     1      31.268 -22.310 -16.832  0.00  0.00    +0.149 C 
ATOM     12  C   UNL     1      32.166 -22.975 -14.847  0.00  0.00    +0.147 C 
ATOM     13  C   UNL     1      30.919 -23.300 -14.355  0.00  0.00    +0.055 C 
ATOM     14  C   UNL     1      29.862 -23.086 -15.216  0.00  0.00    +0.114 C 
ATOM     15  H   UNL     1      30.614 -21.688 -18.635  0.00  0.00    +0.165 HD
BRANCH  12  17
ATOM     16  N   UNL     1      34.358 -23.913 -11.982  0.00  0.00    -0.242 NA
ATOM     17  C   UNL     1      33.353 -23.152 -14.046  0.00  0.00    +0.050 C 
ATOM     18  C   UNL     1      34.603 -22.760 -14.517  0.00  0.00    +0.006 C 
ATOM     19  C   UNL     1      33.286 -23.719 -12.783  0.00  0.00    +0.101 C 
ATOM     20  C   UNL     1      35.728 -22.943 -13.722  0.00  0.00    +0.021 C 
ATOM     21  C   UNL     1      35.554 -23.519 -12.474  0.00  0.00    +0.099 C 
ENDBRANCH  12  17
ENDBRANCH   2   8
BRANCH   1  23
ATOM     22  O   UNL     1      35.924 -17.759 -20.553  0.00  0.00    -0.270 OA
ATOM     23  N   UNL     1      33.731 -18.528 -20.877  0.00  0.00    -0.280 N 
ATOM     24  C   UNL     1      34.783 -17.611 -21.018  0.00  0.00    +0.249 C 
ATOM     25  H   UNL     1      32.881 -18.271 -21.302  0.00  0.00    +0.155 HD
BRANCH  24  31
ATOM     26  C   UNL     1      33.868 -14.068 -23.140  0.00  0.00    -0.043 C 
ATOM     27  C   UNL     1      33.838 -14.060 -21.752  0.00  0.00    -0.006 C 
ATOM     28  C   UNL     1      34.194 -15.220 -23.841  0.00  0.00    -0.006 C 
ATOM     29  C   UNL     1      34.140 -15.228 -21.053  0.00  0.00    +0.004 C 
ATOM     30  C   UNL     1      34.496 -16.388 -23.142  0.00  0.00    +0.004 C 
ATOM     31  C   UNL     1      34.470 -16.393 -21.748  0.00  0.00    +0.054 C 
BRANCH  26  32
ATOM     32  C   UNL     1      33.543 -12.807 -23.895  0.00  0.00    -0.050 C 
BRANCH  32  33
ATOM     33  N   UNL     1      33.134 -11.725 -23.000  0.00  0.00    +0.387 N 
ATOM     34  N   UNL     1      31.447  -9.500 -22.251  0.00  0.00    +0.383 N 
ATOM     35  C   UNL     1      31.763 -11.937 -22.520  0.00  0.00    -0.100 C 
ATOM     36  C   UNL     1      33.248 -10.424 -23.670  0.00  0.00    -0.100 C 
ATOM     37  C   UNL     1      31.334 -10.802 -21.583  0.00  0.00    -0.101 C 
ATOM     38  C   UNL     1      32.818  -9.289 -22.734  0.00  0.00    -0.101 C 
ATOM     39  C   UNL     1      31.040  -8.420 -21.355  0.00  0.00    -0.101 C 
ATOM     40  H   UNL     1      33.761 -11.730 -22.196  0.00  0.00    -0.079 HD
ATOM     41  H   UNL     1      30.820  -9.496 -23.055  0.00  0.00    -0.080 HD
ENDBRANCH  32  33
ENDBRANCH  26  32
ENDBRANCH  24  31
ENDBRANCH   1  23
TORSDOF 6
ENDMDL
MODEL 3
REMARK VINA RESULT:     -11.3      1.584      2.183
REMARK  Name = 5291
REMARK  6 active torsions:
REMARK  status: ('A' for Active; 'I' for Inactive)
REMARK    1  A    between atoms: C_1  and  N_23
REMARK    2  A    between atoms: C_2  and  N_8
REMARK    3  A    between atoms: C_12  and  C_17
REMARK    4  A    between atoms: C_24  and  C_31
REMARK    5  A    between atoms: C_26  and  C_32
REMARK    6  A    between atoms: C_32  and  N_33
REMARK                            x       y       z     vdW  Elec       q    Type
REMARK                         _______ _______ _______ _____ _____    ______ ____
ROOT
ATOM      1  C   UNL     1      31.165 -22.512 -16.621  0.00  0.00    +0.052 C 
ATOM      2  C   UNL     1      31.199 -23.529 -14.450  0.00  0.00    +0.055 C 
ATOM      3  C   UNL     1      31.870 -22.886 -15.489  0.00  0.00    +0.030 C 
ATOM      4  C   UNL     1      29.832 -23.790 -14.559  0.00  0.00    -0.008 C 
ATOM      5  C   UNL     1      29.810 -22.763 -16.745  0.00  0.00    +0.014 C 
ATOM      6  C   UNL     1      29.139 -23.408 -15.706  0.00  0.00    -0.002 C 
ATOM      7  C   UNL     1      29.088 -24.480 -13.462  0.00  0.00    +0.032 C 
ENDROOT
BRANCH   2   8
ATOM      8  N   UNL     1      31.916 -23.910 -13.294  0.00  0.00    -0.248 N 
ATOM      9  N   UNL     1      34.113 -23.335 -13.889  0.00  0.00    -0.337 NA
ATOM     10  N   UNL     1      33.628 -24.312 -11.740  0.00  0.00    -0.170 NA
ATOM     11  C   UNL     1      33.281 -23.850 -12.959  0.00  0.00    +0.149 C 
ATOM     12  C   UNL     1      35.414 -23.293 -13.536  0.00  0.00    +0.147 C 
ATOM     13  C   UNL     1      35.892 -23.735 -12.318  0.00  0.00    +0.055 C 
ATOM     14  C   UNL     1      34.945 -24.240 -11.452  0.00  0.00    +0.114 C 
ATOM     15  H   UNL     1      31.350 -24.291 -12.584  0.00  0.00    +0.165 HD
BRANCH  12  17
ATOM     16  N   UNL     1      36.784 -20.988 -16.124  0.00  0.00    -0.242 NA
ATOM     17  C   UNL     1      36.302 -22.742 -14.531  0.00  0.00    +0.050 C 
ATOM     18  C   UNL     1      37.491 -23.382 -14.865  0.00  0.00    +0.006 C 
ATOM     19  C   UNL     1      35.998 -21.558 -15.184  0.00  0.00    +0.101 C 
ATOM     20  C   UNL     1      38.326 -22.827 -15.827  0.00  0.00    +0.021 C 
ATOM     21  C   UNL     1      37.931 -21.639 -16.422  0.00  0.00    +0.099 C 
ENDBRANCH  12  17
ENDBRANCH   2   8
BRANCH   1  23
ATOM     22  O   UNL     1      34.048 -22.635 -17.435  0.00  0.00    -0.270 OA
ATOM     23  N   UNL     1      31.847 -21.857 -17.675  0.00  0.00    -0.280 N 
ATOM     24  C   UNL     1      33.203 -21.942 -18.024  0.00  0.00    +0.249 C 
ATOM     25  H   UNL     1      31.297 -21.264 -18.237  0.00  0.00    +0.155 HD
BRANCH  24  31
ATOM     26  C   UNL     1      34.416 -19.562 -21.304  0.00  0.00    -0.043 C 
ATOM     27  C   UNL     1      33.064 -19.723 -21.041  0.00  0.00    -0.006 C 
ATOM     28  C   UNL     1      35.377 -20.170 -20.507  0.00  0.00    -0.006 C 
ATOM     29  C   UNL     1      32.664 -20.507 -19.959  0.00  0.00    +0.004 C 
ATOM     30  C   UNL     1      34.977 -20.954 -19.426  0.00  0.00    +0.004 C 
ATOM     31  C   UNL     1      33.621 -21.123 -19.151  0.00  0.00    +0.054 C 
BRANCH  26  32
ATOM     32  C   UNL     1      34.849 -18.715 -22.471  0.00  0.00    -0.050 C 
BRANCH  32  33
ATOM     33  N   UNL     1      34.896 -17.295 -22.125  0.00  0.00    +0.387 N 
ATOM     34  N   UNL     1      33.674 -14.724 -21.622  0.00  0.00    +0.383 N 
ATOM     35  C   UNL     1      34.152 -17.035 -20.888  0.00  0.00    -0.100 C 
ATOM     36  C   UNL     1      34.370 -16.474 -23.222  0.00  0.00    -0.100 C 
ATOM     37  C   UNL     1      34.200 -15.546 -20.526  0.00  0.00    -0.101 C 
ATOM     38  C   UNL     1      34.417 -14.986 -22.862  0.00  0.00    -0.101 C 
ATOM     39  C   UNL     1      33.723 -13.305 -21.277  0.00  0.00    -0.101 C 
ATOM     40  H   UNL     1      35.872 -17.041 -21.973  0.00  0.00    -0.079 HD
ATOM     41  H   UNL     1      32.698 -14.977 -21.774  0.00  0.00    -0.080 HD
ENDBRANCH  32  33
ENDBRANCH  26  32
ENDBRANCH  24  31
ENDBRANCH   1  23
TORSDOF 6
ENDMDL
MODEL 4
REMARK VINA RESULT:     -11.1      3.286      7.254
REMARK  Name = 5291
REMARK  6 active torsions:
REMARK  status: ('A' for Active; 'I' for Inactive)
REMARK    1  A    between atoms: C_1  and  N_23
REMARK    2  A    between atoms: C_2  and  N_8
REMARK    3  A    between atoms: C_12  and  C_17
REMARK    4  A    between atoms: C_24  and  C_31
REMARK    5  A    between atoms: C_26  and  C_32
REMARK    6  A    between atoms: C_32  and  N_33
REMARK                            x       y       z     vdW  Elec       q    Type
REMARK                         _______ _______ _______ _____ _____    ______ ____
ROOT
ATOM      1  C   UNL     1      34.617 -17.655 -21.345  0.00  0.00    +0.052 C 
ATOM      2  C   UNL     1      34.008 -19.724 -20.299  0.00  0.00    +0.055 C 
ATOM      3  C   UNL     1      33.644 -18.474 -20.796  0.00  0.00    +0.030 C 
ATOM      4  C   UNL     1      35.339 -20.138 -20.357  0.00  0.00    -0.008 C 
ATOM      5  C   UNL     1      35.942 -18.050 -21.411  0.00  0.00    +0.014 C 
ATOM      6  C   UNL     1      36.306 -19.301 -20.913  0.00  0.00    -0.002 C 
ATOM      7  C   UNL     1      35.757 -21.473 -19.830  0.00  0.00    +0.032 C 
ENDROOT
BRANCH   2   8
ATOM      8  N   UNL     1      33.016 -20.561 -19.739  0.00  0.00    -0.248 N 
ATOM      9  N   UNL     1      34.175 -21.535 -17.946  0.00  0.00    -0.337 NA
ATOM     10  N   UNL     1      31.872 -22.094 -18.381  0.00  0.00    -0.170 NA
ATOM     11  C   UNL     1      33.021 -21.437 -18.638  0.00  0.00    +0.149 C 
ATOM     12  C   UNL     1      34.146 -22.384 -16.898  0.00  0.00    +0.147 C 
ATOM     13  C   UNL     1      33.032 -23.112 -16.533  0.00  0.00    +0.055 C 
ATOM     14  C   UNL     1      31.913 -22.927 -17.318  0.00  0.00    +0.114 C 
ATOM     15  H   UNL     1      32.153 -20.522 -20.211  0.00  0.00    +0.165 HD
BRANCH  12  17
ATOM     16  N   UNL     1      36.613 -23.470 -14.323  0.00  0.00    -0.242 NA
ATOM     17  C   UNL     1      35.380 -22.487 -16.158  0.00  0.00    +0.050 C 
ATOM     18  C   UNL     1      36.501 -21.749 -16.524  0.00  0.00    +0.006 C 
ATOM     19  C   UNL     1      35.488 -23.326 -15.060  0.00  0.00    +0.101 C 
ATOM     20  C   UNL     1      37.676 -21.870 -15.791  0.00  0.00    +0.021 C 
ATOM     21  C   UNL     1      37.680 -22.736 -14.710  0.00  0.00    +0.099 C 
ENDBRANCH  12  17
ENDBRANCH   2   8
BRANCH   1  23
ATOM     22  O   UNL     1      34.210 -16.740 -24.171  0.00  0.00    -0.270 OA
ATOM     23  N   UNL     1      34.248 -16.385 -21.851  0.00  0.00    -0.280 N 
ATOM     24  C   UNL     1      34.067 -15.996 -23.187  0.00  0.00    +0.249 C 
ATOM     25  H   UNL     1      34.099 -15.683 -21.178  0.00  0.00    +0.155 HD
BRANCH  24  31
ATOM     26  C   UNL     1      33.034 -11.942 -23.808  0.00  0.00    -0.043 C 
ATOM     27  C   UNL     1      32.812 -12.866 -24.819  0.00  0.00    -0.006 C 
ATOM     28  C   UNL     1      33.589 -12.328 -22.596  0.00  0.00    -0.006 C 
ATOM     29  C   UNL     1      33.152 -14.203 -24.614  0.00  0.00    +0.004 C 
ATOM     30  C   UNL     1      33.930 -13.665 -22.391  0.00  0.00    +0.004 C 
ATOM     31  C   UNL     1      33.711 -14.603 -23.399  0.00  0.00    +0.054 C 
BRANCH  26  32
ATOM     32  C   UNL     1      32.666 -10.499 -24.029  0.00  0.00    -0.050 C 
BRANCH  32  33
ATOM     33  N   UNL     1      32.569  -9.763 -22.769  0.00  0.00    +0.387 N 
ATOM     34  N   UNL     1      31.379  -7.791 -21.021  0.00  0.00    +0.383 N 
ATOM     35  C   UNL     1      31.272 -10.000 -22.124  0.00  0.00    -0.100 C 
ATOM     36  C   UNL     1      32.778  -8.327 -22.987  0.00  0.00    -0.100 C 
ATOM     37  C   UNL     1      31.171  -9.228 -20.804  0.00  0.00    -0.101 C 
ATOM     38  C   UNL     1      32.676  -7.553 -21.668  0.00  0.00    -0.101 C 
ATOM     39  C   UNL     1      31.285  -7.058 -19.761  0.00  0.00    -0.101 C 
ATOM     40  H   UNL     1      33.304 -10.105 -22.149  0.00  0.00    -0.079 HD
ATOM     41  H   UNL     1      30.645  -7.450 -21.640  0.00  0.00    -0.080 HD
ENDBRANCH  32  33
ENDBRANCH  26  32
ENDBRANCH  24  31
ENDBRANCH   1  23
TORSDOF 6
ENDMDL
MODEL 5
REMARK VINA RESULT:     -10.6      2.630      5.905
REMARK  Name = 5291
REMARK  6 active torsions:
REMARK  status: ('A' for Active; 'I' for Inactive)
REMARK    1  A    between atoms: C_1  and  N_23
REMARK    2  A    between atoms: C_2  and  N_8
REMARK    3  A    between atoms: C_12  and  C_17
REMARK    4  A    between atoms: C_24  and  C_31
REMARK    5  A    between atoms: C_26  and  C_32
REMARK    6  A    between atoms: C_32  and  N_33
REMARK                            x       y       z     vdW  Elec       q    Type
REMARK                         _______ _______ _______ _____ _____    ______ ____
ROOT
ATOM      1  C   UNL     1      33.684 -19.490 -20.417  0.00  0.00    +0.052 C 
ATOM      2  C   UNL     1      34.773 -21.073 -18.982  0.00  0.00    +0.055 C 
ATOM      3  C   UNL     1      34.763 -19.832 -19.618  0.00  0.00    +0.030 C 
ATOM      4  C   UNL     1      33.705 -21.954 -19.155  0.00  0.00    -0.008 C 
ATOM      5  C   UNL     1      32.617 -20.352 -20.599  0.00  0.00    +0.014 C 
ATOM      6  C   UNL     1      32.628 -21.594 -19.964  0.00  0.00    -0.002 C 
ATOM      7  C   UNL     1      33.691 -23.291 -18.487  0.00  0.00    +0.032 C 
ENDROOT
BRANCH   2   8
ATOM      8  N   UNL     1      35.872 -21.422 -18.166  0.00  0.00    -0.248 N 
ATOM      9  N   UNL     1      34.795 -22.281 -16.265  0.00  0.00    -0.337 NA
ATOM     10  N   UNL     1      37.200 -22.195 -16.393  0.00  0.00    -0.170 NA
ATOM     11  C   UNL     1      35.960 -21.992 -16.883  0.00  0.00    +0.149 C 
ATOM     12  C   UNL     1      34.916 -22.825 -15.037  0.00  0.00    +0.147 C 
ATOM     13  C   UNL     1      36.128 -23.081 -14.428  0.00  0.00    +0.055 C 
ATOM     14  C   UNL     1      37.248 -22.742 -15.159  0.00  0.00    +0.114 C 
ATOM     15  H   UNL     1      36.746 -21.231 -18.575  0.00  0.00    +0.165 HD
BRANCH  12  17
ATOM     16  N   UNL     1      32.508 -24.258 -12.579  0.00  0.00    -0.242 NA
ATOM     17  C   UNL     1      33.670 -23.134 -14.378  0.00  0.00    +0.050 C 
ATOM     18  C   UNL     1      32.461 -22.642 -14.860  0.00  0.00    +0.006 C 
ATOM     19  C   UNL     1      33.639 -23.930 -13.244  0.00  0.00    +0.101 C 
ATOM     20  C   UNL     1      31.278 -22.957 -14.204  0.00  0.00    +0.021 C 
ATOM     21  C   UNL     1      31.354 -23.761 -13.078  0.00  0.00    +0.099 C 
ENDBRANCH  12  17
ENDBRANCH   2   8
BRANCH   1  23
ATOM     22  O   UNL     1      35.851 -17.436 -20.693  0.00  0.00    -0.270 OA
ATOM     23  N   UNL     1      33.673 -18.230 -21.061  0.00  0.00    -0.280 N 
ATOM     24  C   UNL     1      34.712 -17.294 -21.169  0.00  0.00    +0.249 C 
ATOM     25  H   UNL     1      32.824 -17.976 -21.491  0.00  0.00    +0.155 HD
BRANCH  24  31
ATOM     26  C   UNL     1      33.769 -13.718 -23.221  0.00  0.00    -0.043 C 
ATOM     27  C   UNL     1      33.777 -13.727 -21.833  0.00  0.00    -0.006 C 
ATOM     28  C   UNL     1      34.066 -14.864 -23.945  0.00  0.00    -0.006 C 
ATOM     29  C   UNL     1      34.088 -14.906 -21.157  0.00  0.00    +0.004 C 
ATOM     30  C   UNL     1      34.378 -16.043 -23.269  0.00  0.00    +0.004 C 
ATOM     31  C   UNL     1      34.389 -16.064 -21.875  0.00  0.00    +0.054 C 
BRANCH  26  32
ATOM     32  C   UNL     1      33.434 -12.445 -23.952  0.00  0.00    -0.050 C 
BRANCH  32  33
ATOM     33  N   UNL     1      33.074 -11.367 -23.032  0.00  0.00    +0.387 N 
ATOM     34  N   UNL     1      31.490  -9.086 -22.229  0.00  0.00    +0.383 N 
ATOM     35  C   UNL     1      31.696 -11.527 -22.554  0.00  0.00    -0.100 C 
ATOM     36  C   UNL     1      33.246 -10.057 -23.672  0.00  0.00    -0.100 C 
ATOM     37  C   UNL     1      31.319 -10.396 -21.590  0.00  0.00    -0.101 C 
ATOM     38  C   UNL     1      32.868  -8.925 -22.710  0.00  0.00    -0.101 C 
ATOM     39  C   UNL     1      31.133  -8.009 -21.309  0.00  0.00    -0.101 C 
ATOM     40  H   UNL     1      33.702 -11.417 -22.230  0.00  0.00    -0.079 HD
ATOM     41  H   UNL     1      30.863  -9.035 -23.032  0.00  0.00    -0.080 HD
ENDBRANCH  32  33
ENDBRANCH  26  32
ENDBRANCH  24  31
ENDBRANCH   1  23
TORSDOF 6
ENDMDL
MODEL 6
REMARK VINA RESULT:     -10.4      4.521     13.810
REMARK  Name = 5291
REMARK  6 active torsions:
REMARK  status: ('A' for Active; 'I' for Inactive)
REMARK    1  A    between atoms: C_1  and  N_23
REMARK    2  A    between atoms: C_2  and  N_8
REMARK    3  A    between atoms: C_12  and  C_17
REMARK    4  A    between atoms: C_24  and  C_31
REMARK    5  A    between atoms: C_26  and  C_32
REMARK    6  A    between atoms: C_32  and  N_33
REMARK                            x       y       z     vdW  Elec       q    Type
REMARK                         _______ _______ _______ _____ _____    ______ ____
ROOT
ATOM      1  C   UNL     1      33.371 -14.137 -22.042  0.00  0.00    +0.052 C 
ATOM      2  C   UNL     1      32.286 -12.062 -21.527  0.00  0.00    +0.055 C 
ATOM      3  C   UNL     1      32.773 -13.301 -21.114  0.00  0.00    +0.030 C 
ATOM      4  C   UNL     1      32.403 -11.677 -22.863  0.00  0.00    -0.008 C 
ATOM      5  C   UNL     1      33.494 -13.770 -23.371  0.00  0.00    +0.014 C 
ATOM      6  C   UNL     1      33.006 -12.531 -23.785  0.00  0.00    -0.002 C 
ATOM      7  C   UNL     1      31.888 -10.355 -23.333  0.00  0.00    +0.032 C 
ENDROOT
BRANCH   2   8
ATOM      8  N   UNL     1      31.678 -11.207 -20.581  0.00  0.00    -0.248 N 
ATOM      9  N   UNL     1      32.231  -9.090 -21.429  0.00  0.00    -0.337 NA
ATOM     10  N   UNL     1      30.929  -9.314 -19.414  0.00  0.00    -0.170 NA
ATOM     11  C   UNL     1      31.609  -9.806 -20.469  0.00  0.00    +0.149 C 
ATOM     12  C   UNL     1      32.147  -7.751 -21.292  0.00  0.00    +0.147 C 
ATOM     13  C   UNL     1      31.480  -7.127 -20.257  0.00  0.00    +0.055 C 
ATOM     14  C   UNL     1      30.885  -7.966 -19.338  0.00  0.00    +0.114 C 
ATOM     15  H   UNL     1      31.209 -11.685 -19.859  0.00  0.00    +0.165 HD
BRANCH  12  17
ATOM     16  N   UNL     1      33.167  -4.853 -23.403  0.00  0.00    -0.242 NA
ATOM     17  C   UNL     1      32.811  -6.986 -22.320  0.00  0.00    +0.050 C 
ATOM     18  C   UNL     1      33.707  -7.589 -23.197  0.00  0.00    +0.006 C 
ATOM     19  C   UNL     1      32.578  -5.628 -22.464  0.00  0.00    +0.101 C 
ATOM     20  C   UNL     1      34.331  -6.826 -24.177  0.00  0.00    +0.021 C 
ATOM     21  C   UNL     1      34.030  -5.475 -24.237  0.00  0.00    +0.099 C 
ENDBRANCH  12  17
ENDBRANCH   2   8
BRANCH   1  23
ATOM     22  O   UNL     1      34.451 -16.428 -23.647  0.00  0.00    -0.270 OA
ATOM     23  N   UNL     1      33.867 -15.394 -21.622  0.00  0.00    -0.280 N 
ATOM     24  C   UNL     1      34.366 -16.444 -22.408  0.00  0.00    +0.249 C 
ATOM     25  H   UNL     1      33.861 -15.554 -20.651  0.00  0.00    +0.155 HD
BRANCH  24  31
ATOM     26  C   UNL     1      35.572 -19.910 -20.306  0.00  0.00    -0.043 C 
ATOM     27  C   UNL     1      34.234 -19.739 -20.630  0.00  0.00    -0.006 C 
ATOM     28  C   UNL     1      36.521 -18.961 -20.661  0.00  0.00    -0.006 C 
ATOM     29  C   UNL     1      33.837 -18.596 -21.324  0.00  0.00    +0.004 C 
ATOM     30  C   UNL     1      36.123 -17.818 -21.355  0.00  0.00    +0.004 C 
ATOM     31  C   UNL     1      34.781 -17.636 -21.687  0.00  0.00    +0.054 C 
BRANCH  26  32
ATOM     32  C   UNL     1      36.003 -21.143 -19.558  0.00  0.00    -0.050 C 
BRANCH  32  33
ATOM     33  N   UNL     1      35.292 -21.286 -18.288  0.00  0.00    +0.387 N 
ATOM     34  N   UNL     1      34.402 -22.796 -15.988  0.00  0.00    +0.383 N 
ATOM     35  C   UNL     1      36.220 -21.649 -17.210  0.00  0.00    -0.100 C 
ATOM     36  C   UNL     1      34.220 -22.282 -18.399  0.00  0.00    -0.100 C 
ATOM     37  C   UNL     1      35.475 -21.800 -15.878  0.00  0.00    -0.101 C 
ATOM     38  C   UNL     1      33.475 -22.435 -17.069  0.00  0.00    -0.101 C 
ATOM     39  C   UNL     1      33.692 -22.936 -14.720  0.00  0.00    -0.101 C 
ATOM     40  H   UNL     1      34.872 -20.385 -18.061  0.00  0.00    -0.079 HD
ATOM     41  H   UNL     1      34.823 -23.697 -16.215  0.00  0.00    -0.080 HD
ENDBRANCH  32  33
ENDBRANCH  26  32
ENDBRANCH  24  31
ENDBRANCH   1  23
TORSDOF 6
ENDMDL
