MODEL 1
REMARK VINA RESULT:     -10.1      0.000      0.000
REMARK  Name = 25229537
REMARK  4 active torsions:
REMARK  status: ('A' for Active; 'I' for Inactive)
REMARK    1  A    between atoms: N_1  and  S_15
REMARK    2  A    between atoms: C_8  and  C_12
REMARK    3  A    between atoms: S_15  and  C_18
REMARK    4  A    between atoms: C_19  and  N_26
REMARK                            x       y       z     vdW  Elec       q    Type
REMARK                         _______ _______ _______ _____ _____    ______ ____
ROOT
ATOM      1  N   UNL     1      34.498 -18.107 -22.735  0.00  0.00    -0.166 N 
ATOM      2  N   UNL     1      33.122 -15.787 -25.009  0.00  0.00    -0.242 NA
ATOM      3  C   UNL     1      34.139 -16.825 -23.075  0.00  0.00    +0.091 C 
ATOM      4  C   UNL     1      33.588 -16.882 -24.355  0.00  0.00    +0.098 C 
ATOM      5  C   UNL     1      34.192 -18.965 -23.759  0.00  0.00    +0.090 C 
ATOM      6  C   UNL     1      33.625 -18.233 -24.778  0.00  0.00    +0.038 C 
ATOM      7  C   UNL     1      34.242 -15.618 -22.385  0.00  0.00    +0.024 C 
ATOM      8  C   UNL     1      33.768 -14.489 -23.045  0.00  0.00    +0.074 C 
ATOM      9  C   UNL     1      33.234 -14.629 -24.320  0.00  0.00    +0.103 C 
ENDROOT
BRANCH   8  12
ATOM     10  O   UNL     1      33.975 -13.069 -21.179  0.00  0.00    -0.270 OA
ATOM     11  N   UNL     1      33.745 -12.060 -23.225  0.00  0.00    -0.325 N 
ATOM     12  C   UNL     1      33.831 -13.185 -22.410  0.00  0.00    +0.244 C 
ATOM     13  H   UNL     1      33.785 -11.160 -22.829  0.00  0.00    +0.145 HD
ATOM     14  H   UNL     1      33.644 -12.165 -24.199  0.00  0.00    +0.145 HD
ENDBRANCH   8  12
BRANCH   1  15
ATOM     15  S   UNL     1      35.203 -18.572 -21.300  0.00  0.00    +0.082 S 
ATOM     16  O   UNL     1      35.360 -17.432 -20.360  0.00  0.00    -0.149 OA
ATOM     17  O   UNL     1      36.423 -19.361 -21.584  0.00  0.00    -0.149 OA
BRANCH  15  18
ATOM     18  C   UNL     1      34.123 -19.684 -20.384  0.00  0.00    +0.148 C 
ATOM     19  C   UNL     1      34.630 -20.618 -19.481  0.00  0.00    +0.162 C 
ATOM     20  C   UNL     1      32.747 -19.596 -20.597  0.00  0.00    +0.022 C 
ATOM     21  C   UNL     1      33.763 -21.463 -18.789  0.00  0.00    +0.025 C 
ATOM     22  C   UNL     1      31.879 -20.440 -19.905  0.00  0.00    +0.001 C 
ATOM     23  C   UNL     1      32.386 -21.374 -19.002  0.00  0.00    +0.002 C 
BRANCH  19  26
ATOM     24  O   UNL     1      36.568 -19.950 -18.423  0.00  0.00    -0.126 OA
ATOM     25  O   UNL     1      36.678 -21.611 -19.855  0.00  0.00    -0.126 OA
ATOM     26  N   UNL     1      36.028 -20.732 -19.241  0.00  0.00    +0.059 N 
ENDBRANCH  19  26
ENDBRANCH  15  18
ENDBRANCH   1  15
TORSDOF 4
ENDMDL
MODEL 2
REMARK VINA RESULT:     -10.0      6.260      9.490
REMARK  Name = 25229537
REMARK  4 active torsions:
REMARK  status: ('A' for Active; 'I' for Inactive)
REMARK    1  A    between atoms: N_1  and  S_15
REMARK    2  A    between atoms: C_8  and  C_12
REMARK    3  A    between atoms: S_15  and  C_18
REMARK    4  A    between atoms: C_19  and  N_26
REMARK                            x       y       z     vdW  Elec       q    Type
REMARK                         _______ _______ _______ _____ _____    ______ ____
ROOT
ATOM      1  N   UNL     1      33.422 -23.370 -14.118  0.00  0.00    -0.166 N 
ATOM      2  N   UNL     1      31.897 -22.635 -17.212  0.00  0.00    -0.242 NA
ATOM      3  C   UNL     1      33.487 -22.910 -15.411  0.00  0.00    +0.091 C 
ATOM      4  C   UNL     1      32.202 -23.006 -15.943  0.00  0.00    +0.098 C 
ATOM      5  C   UNL     1      32.138 -23.751 -13.821  0.00  0.00    +0.090 C 
ATOM      6  C   UNL     1      31.359 -23.536 -14.936  0.00  0.00    +0.038 C 
ATOM      7  C   UNL     1      34.548 -22.418 -16.169  0.00  0.00    +0.024 C 
ATOM      8  C   UNL     1      34.249 -22.035 -17.472  0.00  0.00    +0.074 C 
ATOM      9  C   UNL     1      32.943 -22.162 -17.928  0.00  0.00    +0.103 C 
ENDROOT
BRANCH   8  12
ATOM     10  O   UNL     1      36.432 -21.273 -17.915  0.00  0.00    -0.270 OA
ATOM     11  N   UNL     1      34.967 -21.294 -19.679  0.00  0.00    -0.325 N 
ATOM     12  C   UNL     1      35.287 -21.509 -18.341  0.00  0.00    +0.244 C 
ATOM     13  H   UNL     1      35.646 -20.940 -20.297  0.00  0.00    +0.145 HD
ATOM     14  H   UNL     1      34.061 -21.497 -20.007  0.00  0.00    +0.145 HD
ENDBRANCH   8  12
BRANCH   1  15
ATOM     15  S   UNL     1      34.698 -23.460 -13.051  0.00  0.00    +0.082 S 
ATOM     16  O   UNL     1      34.279 -23.984 -11.725  0.00  0.00    -0.149 OA
ATOM     17  O   UNL     1      35.428 -22.173 -13.048  0.00  0.00    -0.149 OA
BRANCH  15  18
ATOM     18  C   UNL     1      35.900 -24.687 -13.590  0.00  0.00    +0.148 C 
ATOM     19  C   UNL     1      37.140 -24.819 -12.965  0.00  0.00    +0.162 C 
ATOM     20  C   UNL     1      35.567 -25.515 -14.661  0.00  0.00    +0.022 C 
ATOM     21  C   UNL     1      38.047 -25.781 -13.410  0.00  0.00    +0.025 C 
ATOM     22  C   UNL     1      36.473 -26.479 -15.107  0.00  0.00    +0.001 C 
ATOM     23  C   UNL     1      37.712 -26.611 -14.482  0.00  0.00    +0.002 C 
BRANCH  19  26
ATOM     24  O   UNL     1      37.171 -24.330 -10.712  0.00  0.00    -0.126 OA
ATOM     25  O   UNL     1      38.163 -22.944 -12.096  0.00  0.00    -0.126 OA
ATOM     26  N   UNL     1      37.509 -23.990 -11.870  0.00  0.00    +0.059 N 
ENDBRANCH  19  26
ENDBRANCH  15  18
ENDBRANCH   1  15
TORSDOF 4
ENDMDL
MODEL 3
REMARK VINA RESULT:      -9.9      6.836     11.065
REMARK  Name = 25229537
REMARK  4 active torsions:
REMARK  status: ('A' for Active; 'I' for Inactive)
REMARK    1  A    between atoms: N_1  and  S_15
REMARK    2  A    between atoms: C_8  and  C_12
REMARK    3  A    between atoms: S_15  and  C_18
REMARK    4  A    between atoms: C_19  and  N_26
REMARK                            x       y       z     vdW  Elec       q    Type
REMARK                         _______ _______ _______ _____ _____    ______ ____
ROOT
ATOM      1  N   UNL     1      34.869 -23.700 -13.610  0.00  0.00    -0.166 N 
ATOM      2  N   UNL     1      37.460 -24.136 -11.256  0.00  0.00    -0.242 NA
ATOM      3  C   UNL     1      36.152 -24.073 -13.289  0.00  0.00    +0.091 C 
ATOM      4  C   UNL     1      36.306 -23.870 -11.918  0.00  0.00    +0.098 C 
ATOM      5  C   UNL     1      34.213 -23.271 -12.485  0.00  0.00    +0.090 C 
ATOM      6  C   UNL     1      35.080 -23.366 -11.420  0.00  0.00    +0.038 C 
ATOM      7  C   UNL     1      37.196 -24.568 -14.068  0.00  0.00    +0.024 C 
ATOM      8  C   UNL     1      38.385 -24.844 -13.401  0.00  0.00    +0.074 C 
ATOM      9  C   UNL     1      38.458 -24.615 -12.033  0.00  0.00    +0.103 C 
ENDROOT
BRANCH   8  12
ATOM     10  O   UNL     1      40.379 -26.085 -13.567  0.00  0.00    -0.270 OA
ATOM     11  N   UNL     1      39.646 -25.046 -15.476  0.00  0.00    -0.325 N 
ATOM     12  C   UNL     1      39.532 -25.365 -14.125  0.00  0.00    +0.244 C 
ATOM     13  H   UNL     1      40.409 -25.382 -15.998  0.00  0.00    +0.145 HD
ATOM     14  H   UNL     1      38.962 -24.485 -15.909  0.00  0.00    +0.145 HD
ENDBRANCH   8  12
BRANCH   1  15
ATOM     15  S   UNL     1      34.190 -23.753 -15.129  0.00  0.00    +0.082 S 
ATOM     16  O   UNL     1      32.782 -23.279 -15.127  0.00  0.00    -0.149 OA
ATOM     17  O   UNL     1      34.433 -25.084 -15.731  0.00  0.00    -0.149 OA
BRANCH  15  18
ATOM     18  C   UNL     1      34.994 -22.580 -16.233  0.00  0.00    +0.148 C 
ATOM     19  C   UNL     1      34.435 -22.233 -17.464  0.00  0.00    +0.162 C 
ATOM     20  C   UNL     1      36.204 -22.015 -15.833  0.00  0.00    +0.022 C 
ATOM     21  C   UNL     1      35.086 -21.319 -18.292  0.00  0.00    +0.025 C 
ATOM     22  C   UNL     1      36.856 -21.101 -16.660  0.00  0.00    +0.001 C 
ATOM     23  C   UNL     1      36.298 -20.754 -17.890  0.00  0.00    +0.002 C 
BRANCH  19  26
ATOM     24  O   UNL     1      32.142 -22.154 -17.694  0.00  0.00    -0.126 OA
ATOM     25  O   UNL     1      33.212 -23.903 -18.479  0.00  0.00    -0.126 OA
ATOM     26  N   UNL     1      33.202 -22.791 -17.900  0.00  0.00    +0.059 N 
ENDBRANCH  19  26
ENDBRANCH  15  18
ENDBRANCH   1  15
TORSDOF 4
ENDMDL
MODEL 4
REMARK VINA RESULT:      -9.8      5.595      8.768
REMARK  Name = 25229537
REMARK  4 active torsions:
REMARK  status: ('A' for Active; 'I' for Inactive)
REMARK    1  A    between atoms: N_1  and  S_15
REMARK    2  A    between atoms: C_8  and  C_12
REMARK    3  A    between atoms: S_15  and  C_18
REMARK    4  A    between atoms: C_19  and  N_26
REMARK                            x       y       z     vdW  Elec       q    Type
REMARK                         _______ _______ _______ _____ _____    ______ ____
ROOT
ATOM      1  N   UNL     1      33.875 -23.584 -15.461  0.00  0.00    -0.166 N 
ATOM      2  N   UNL     1      31.402 -21.988 -17.405  0.00  0.00    -0.242 NA
ATOM      3  C   UNL     1      33.501 -22.831 -16.548  0.00  0.00    +0.091 C 
ATOM      4  C   UNL     1      32.116 -22.681 -16.482  0.00  0.00    +0.098 C 
ATOM      5  C   UNL     1      32.771 -23.912 -14.717  0.00  0.00    +0.090 C 
ATOM      6  C   UNL     1      31.665 -23.364 -15.326  0.00  0.00    +0.038 C 
ATOM      7  C   UNL     1      34.241 -22.265 -17.584  0.00  0.00    +0.024 C 
ATOM      8  C   UNL     1      33.521 -21.552 -18.537  0.00  0.00    +0.074 C 
ATOM      9  C   UNL     1      32.142 -21.448 -18.401  0.00  0.00    +0.103 C 
ENDROOT
BRANCH   8  12
ATOM     10  O   UNL     1      35.367 -21.235 -19.963  0.00  0.00    -0.270 OA
ATOM     11  N   UNL     1      33.501 -19.972 -20.391  0.00  0.00    -0.325 N 
ATOM     12  C   UNL     1      34.202 -20.924 -19.656  0.00  0.00    +0.244 C 
ATOM     13  H   UNL     1      33.931 -19.527 -21.156  0.00  0.00    +0.145 HD
ATOM     14  H   UNL     1      32.575 -19.744 -20.146  0.00  0.00    +0.145 HD
ENDBRANCH   8  12
BRANCH   1  15
ATOM     15  S   UNL     1      35.431 -24.044 -15.084  0.00  0.00    +0.082 S 
ATOM     16  O   UNL     1      36.441 -23.120 -15.663  0.00  0.00    -0.149 OA
ATOM     17  O   UNL     1      35.606 -25.482 -15.389  0.00  0.00    -0.149 OA
BRANCH  15  18
ATOM     18  C   UNL     1      35.735 -23.893 -13.316  0.00  0.00    +0.148 C 
ATOM     19  C   UNL     1      36.954 -24.267 -12.749  0.00  0.00    +0.162 C 
ATOM     20  C   UNL     1      34.716 -23.390 -12.509  0.00  0.00    +0.022 C 
ATOM     21  C   UNL     1      37.153 -24.135 -11.375  0.00  0.00    +0.025 C 
ATOM     22  C   UNL     1      34.914 -23.257 -11.135  0.00  0.00    +0.001 C 
ATOM     23  C   UNL     1      36.132 -23.631 -10.568  0.00  0.00    +0.002 C 
BRANCH  19  26
ATOM     24  O   UNL     1      38.824 -23.982 -14.068  0.00  0.00    -0.126 OA
ATOM     25  O   UNL     1      38.105 -26.023 -13.701  0.00  0.00    -0.126 OA
ATOM     26  N   UNL     1      38.013 -24.783 -13.546  0.00  0.00    +0.059 N 
ENDBRANCH  19  26
ENDBRANCH  15  18
ENDBRANCH   1  15
TORSDOF 4
ENDMDL
MODEL 5
REMARK VINA RESULT:      -9.8      7.563      9.709
REMARK  Name = 25229537
REMARK  4 active torsions:
REMARK  status: ('A' for Active; 'I' for Inactive)
REMARK    1  A    between atoms: N_1  and  S_15
REMARK    2  A    between atoms: C_8  and  C_12
REMARK    3  A    between atoms: S_15  and  C_18
REMARK    4  A    between atoms: C_19  and  N_26
REMARK                            x       y       z     vdW  Elec       q    Type
REMARK                         _______ _______ _______ _____ _____    ______ ____
ROOT
ATOM      1  N   UNL     1      35.721 -22.596 -15.438  0.00  0.00    -0.166 N 
ATOM      2  N   UNL     1      33.602 -21.724 -18.120  0.00  0.00    -0.242 NA
ATOM      3  C   UNL     1      34.476 -22.535 -16.016  0.00  0.00    +0.091 C 
ATOM      4  C   UNL     1      34.636 -21.943 -17.269  0.00  0.00    +0.098 C 
ATOM      5  C   UNL     1      36.657 -22.062 -16.287  0.00  0.00    +0.090 C 
ATOM      6  C   UNL     1      36.012 -21.649 -17.431  0.00  0.00    +0.038 C 
ATOM      7  C   UNL     1      33.222 -22.940 -15.563  0.00  0.00    +0.024 C 
ATOM      8  C   UNL     1      32.154 -22.721 -16.427  0.00  0.00    +0.074 C 
ATOM      9  C   UNL     1      32.396 -22.126 -17.659  0.00  0.00    +0.103 C 
ENDROOT
BRANCH   8  12
ATOM     10  O   UNL     1      30.602 -24.038 -15.243  0.00  0.00    -0.270 OA
ATOM     11  N   UNL     1      29.746 -22.395 -16.595  0.00  0.00    -0.325 N 
ATOM     12  C   UNL     1      30.807 -23.110 -16.046  0.00  0.00    +0.244 C 
ATOM     13  H   UNL     1      28.820 -22.630 -16.359  0.00  0.00    +0.145 HD
ATOM     14  H   UNL     1      29.922 -21.654 -17.219  0.00  0.00    +0.145 HD
ENDBRANCH   8  12
BRANCH   1  15
ATOM     15  S   UNL     1      36.067 -23.219 -13.933  0.00  0.00    +0.082 S 
ATOM     16  O   UNL     1      35.094 -24.266 -13.527  0.00  0.00    -0.149 OA
ATOM     17  O   UNL     1      36.273 -22.108 -12.977  0.00  0.00    -0.149 OA
BRANCH  15  18
ATOM     18  C   UNL     1      37.624 -24.122 -13.954  0.00  0.00    +0.148 C 
ATOM     19  C   UNL     1      38.037 -24.893 -12.867  0.00  0.00    +0.162 C 
ATOM     20  C   UNL     1      38.424 -24.037 -15.093  0.00  0.00    +0.022 C 
ATOM     21  C   UNL     1      39.250 -25.579 -12.920  0.00  0.00    +0.025 C 
ATOM     22  C   UNL     1      39.637 -24.724 -15.147  0.00  0.00    +0.001 C 
ATOM     23  C   UNL     1      40.050 -25.494 -14.061  0.00  0.00    +0.002 C 
BRANCH  19  26
ATOM     24  O   UNL     1      37.283 -24.075 -10.848  0.00  0.00    -0.126 OA
ATOM     25  O   UNL     1      36.527 -26.017 -11.536  0.00  0.00    -0.126 OA
ATOM     26  N   UNL     1      37.243 -25.000 -11.692  0.00  0.00    +0.059 N 
ENDBRANCH  19  26
ENDBRANCH  15  18
ENDBRANCH   1  15
TORSDOF 4
ENDMDL
MODEL 6
REMARK VINA RESULT:      -9.6      7.789     11.227
REMARK  Name = 25229537
REMARK  4 active torsions:
REMARK  status: ('A' for Active; 'I' for Inactive)
REMARK    1  A    between atoms: N_1  and  S_15
REMARK    2  A    between atoms: C_8  and  C_12
REMARK    3  A    between atoms: S_15  and  C_18
REMARK    4  A    between atoms: C_19  and  N_26
REMARK                            x       y       z     vdW  Elec       q    Type
REMARK                         _______ _______ _______ _____ _____    ______ ____
ROOT
ATOM      1  N   UNL     1      35.008 -23.663 -13.602  0.00  0.00    -0.166 N 
ATOM      2  N   UNL     1      37.198 -25.144 -11.267  0.00  0.00    -0.242 NA
ATOM      3  C   UNL     1      36.211 -24.245 -13.284  0.00  0.00    +0.091 C 
ATOM      4  C   UNL     1      36.168 -24.554 -11.924  0.00  0.00    +0.098 C 
ATOM      5  C   UNL     1      34.211 -23.597 -12.488  0.00  0.00    +0.090 C 
ATOM      6  C   UNL     1      34.905 -24.143 -11.431  0.00  0.00    +0.038 C 
ATOM      7  C   UNL     1      37.336 -24.532 -14.055  0.00  0.00    +0.024 C 
ATOM      8  C   UNL     1      38.399 -25.137 -13.392  0.00  0.00    +0.074 C 
ATOM      9  C   UNL     1      38.278 -25.412 -12.036  0.00  0.00    +0.103 C 
ENDROOT
BRANCH   8  12
ATOM     10  O   UNL     1      40.518 -26.147 -13.576  0.00  0.00    -0.270 OA
ATOM     11  N   UNL     1      39.736 -25.040 -15.426  0.00  0.00    -0.325 N 
ATOM     12  C   UNL     1      39.616 -25.476 -14.109  0.00  0.00    +0.244 C 
ATOM     13  H   UNL     1      40.547 -25.252 -15.942  0.00  0.00    +0.145 HD
ATOM     14  H   UNL     1      39.010 -24.521 -15.841  0.00  0.00    +0.145 HD
ENDBRANCH   8  12
BRANCH   1  15
ATOM     15  S   UNL     1      34.561 -23.113 -15.109  0.00  0.00    +0.082 S 
ATOM     16  O   UNL     1      34.820 -24.120 -16.170  0.00  0.00    -0.149 OA
ATOM     17  O   UNL     1      35.132 -21.765 -15.329  0.00  0.00    -0.149 OA
BRANCH  15  18
ATOM     18  C   UNL     1      32.777 -22.894 -15.209  0.00  0.00    +0.148 C 
ATOM     19  C   UNL     1      32.130 -22.711 -16.432  0.00  0.00    +0.162 C 
ATOM     20  C   UNL     1      32.039 -22.909 -14.026  0.00  0.00    +0.022 C 
ATOM     21  C   UNL     1      30.745 -22.545 -16.471  0.00  0.00    +0.025 C 
ATOM     22  C   UNL     1      30.655 -22.744 -14.064  0.00  0.00    +0.001 C 
ATOM     23  C   UNL     1      30.008 -22.562 -15.286  0.00  0.00    +0.002 C 
BRANCH  19  26
ATOM     24  O   UNL     1      33.343 -21.608 -18.052  0.00  0.00    -0.126 OA
ATOM     25  O   UNL     1      32.981 -23.758 -18.302  0.00  0.00    -0.126 OA
ATOM     26  N   UNL     1      32.853 -22.691 -17.656  0.00  0.00    +0.059 N 
ENDBRANCH  19  26
ENDBRANCH  15  18
ENDBRANCH   1  15
TORSDOF 4
ENDMDL
MODEL 7
REMARK VINA RESULT:      -9.3      5.574      8.539
REMARK  Name = 25229537
REMARK  4 active torsions:
REMARK  status: ('A' for Active; 'I' for Inactive)
REMARK    1  A    between atoms: N_1  and  S_15
REMARK    2  A    between atoms: C_8  and  C_12
REMARK    3  A    between atoms: S_15  and  C_18
REMARK    4  A    between atoms: C_19  and  N_26
REMARK                            x       y       z     vdW  Elec       q    Type
REMARK                         _______ _______ _______ _____ _____    ______ ____
ROOT
ATOM      1  N   UNL     1      35.617 -22.627 -15.761  0.00  0.00    -0.166 N 
ATOM      2  N   UNL     1      36.447 -20.508 -18.456  0.00  0.00    -0.242 NA
ATOM      3  C   UNL     1      35.289 -21.985 -16.929  0.00  0.00    +0.091 C 
ATOM      4  C   UNL     1      36.415 -21.267 -17.331  0.00  0.00    +0.098 C 
ATOM      5  C   UNL     1      36.912 -22.336 -15.415  0.00  0.00    +0.090 C 
ATOM      6  C   UNL     1      37.432 -21.494 -16.372  0.00  0.00    +0.038 C 
ATOM      7  C   UNL     1      34.112 -21.961 -17.677  0.00  0.00    +0.024 C 
ATOM      8  C   UNL     1      34.133 -21.187 -18.832  0.00  0.00    +0.074 C 
ATOM      9  C   UNL     1      35.294 -20.501 -19.164  0.00  0.00    +0.103 C 
ENDROOT
BRANCH   8  12
ATOM     10  O   UNL     1      32.017 -21.908 -19.572  0.00  0.00    -0.270 OA
ATOM     11  N   UNL     1      32.899 -20.062 -20.607  0.00  0.00    -0.325 N 
ATOM     12  C   UNL     1      32.955 -21.098 -19.679  0.00  0.00    +0.244 C 
ATOM     13  H   UNL     1      32.117 -19.971 -21.197  0.00  0.00    +0.145 HD
ATOM     14  H   UNL     1      33.643 -19.420 -20.673  0.00  0.00    +0.145 HD
ENDBRANCH   8  12
BRANCH   1  15
ATOM     15  S   UNL     1      34.610 -23.616 -14.877  0.00  0.00    +0.082 S 
ATOM     16  O   UNL     1      34.363 -24.913 -15.559  0.00  0.00    -0.149 OA
ATOM     17  O   UNL     1      33.411 -22.853 -14.463  0.00  0.00    -0.149 OA
BRANCH  15  18
ATOM     18  C   UNL     1      35.399 -24.129 -13.342  0.00  0.00    +0.148 C 
ATOM     19  C   UNL     1      36.341 -25.158 -13.312  0.00  0.00    +0.162 C 
ATOM     20  C   UNL     1      35.047 -23.471 -12.164  0.00  0.00    +0.022 C 
ATOM     21  C   UNL     1      36.932 -25.528 -12.104  0.00  0.00    +0.025 C 
ATOM     22  C   UNL     1      35.638 -23.840 -10.955  0.00  0.00    +0.001 C 
ATOM     23  C   UNL     1      36.579 -24.868 -10.925  0.00  0.00    +0.002 C 
BRANCH  19  26
ATOM     24  O   UNL     1      37.749 -25.476 -15.110  0.00  0.00    -0.126 OA
ATOM     25  O   UNL     1      36.018 -26.807 -14.890  0.00  0.00    -0.126 OA
ATOM     26  N   UNL     1      36.721 -25.848 -14.496  0.00  0.00    +0.059 N 
ENDBRANCH  19  26
ENDBRANCH  15  18
ENDBRANCH   1  15
TORSDOF 4
ENDMDL
MODEL 8
REMARK VINA RESULT:      -9.3      7.687     10.218
REMARK  Name = 25229537
REMARK  4 active torsions:
REMARK  status: ('A' for Active; 'I' for Inactive)
REMARK    1  A    between atoms: N_1  and  S_15
REMARK    2  A    between atoms: C_8  and  C_12
REMARK    3  A    between atoms: S_15  and  C_18
REMARK    4  A    between atoms: C_19  and  N_26
REMARK                            x       y       z     vdW  Elec       q    Type
REMARK                         _______ _______ _______ _____ _____    ______ ____
ROOT
ATOM      1  N   UNL     1      34.665 -22.583 -15.414  0.00  0.00    -0.166 N 
ATOM      2  N   UNL     1      31.401 -22.774 -16.740  0.00  0.00    -0.242 NA
ATOM      3  C   UNL     1      33.324 -22.848 -15.275  0.00  0.00    +0.091 C 
ATOM      4  C   UNL     1      32.729 -22.611 -16.513  0.00  0.00    +0.098 C 
ATOM      5  C   UNL     1      34.931 -22.186 -16.700  0.00  0.00    +0.090 C 
ATOM      6  C   UNL     1      33.748 -22.194 -17.405  0.00  0.00    +0.038 C 
ATOM      7  C   UNL     1      32.572 -23.275 -14.181  0.00  0.00    +0.024 C 
ATOM      8  C   UNL     1      31.209 -23.446 -14.401  0.00  0.00    +0.074 C 
ATOM      9  C   UNL     1      30.693 -23.188 -15.664  0.00  0.00    +0.103 C 
ENDROOT
BRANCH   8  12
ATOM     10  O   UNL     1      30.314 -23.299 -12.228  0.00  0.00    -0.270 OA
ATOM     11  N   UNL     1      29.518 -24.987 -13.561  0.00  0.00    -0.325 N 
ATOM     12  C   UNL     1      30.340 -23.888 -13.324  0.00  0.00    +0.244 C 
ATOM     13  H   UNL     1      28.917 -25.313 -12.855  0.00  0.00    +0.145 HD
ATOM     14  H   UNL     1      29.540 -25.437 -14.437  0.00  0.00    +0.145 HD
ENDBRANCH   8  12
BRANCH   1  15
ATOM     15  S   UNL     1      35.814 -22.714 -14.217  0.00  0.00    +0.082 S 
ATOM     16  O   UNL     1      35.254 -22.423 -12.872  0.00  0.00    -0.149 OA
ATOM     17  O   UNL     1      37.019 -21.948 -14.606  0.00  0.00    -0.149 OA
BRANCH  15  18
ATOM     18  C   UNL     1      36.371 -24.418 -14.045  0.00  0.00    +0.148 C 
ATOM     19  C   UNL     1      37.127 -24.833 -12.949  0.00  0.00    +0.162 C 
ATOM     20  C   UNL     1      36.028 -25.331 -15.042  0.00  0.00    +0.022 C 
ATOM     21  C   UNL     1      37.540 -26.161 -12.849  0.00  0.00    +0.025 C 
ATOM     22  C   UNL     1      36.440 -26.660 -14.943  0.00  0.00    +0.001 C 
ATOM     23  C   UNL     1      37.197 -27.075 -13.847  0.00  0.00    +0.002 C 
BRANCH  19  26
ATOM     24  O   UNL     1      38.433 -23.123 -12.118  0.00  0.00    -0.126 OA
ATOM     25  O   UNL     1      36.861 -23.956 -10.833  0.00  0.00    -0.126 OA
ATOM     26  N   UNL     1      37.492 -23.926 -11.915  0.00  0.00    +0.059 N 
ENDBRANCH  19  26
ENDBRANCH  15  18
ENDBRANCH   1  15
TORSDOF 4
ENDMDL
MODEL 9
REMARK VINA RESULT:      -9.0      8.672     10.877
REMARK  Name = 25229537
REMARK  4 active torsions:
REMARK  status: ('A' for Active; 'I' for Inactive)
REMARK    1  A    between atoms: N_1  and  S_15
REMARK    2  A    between atoms: C_8  and  C_12
REMARK    3  A    between atoms: S_15  and  C_18
REMARK    4  A    between atoms: C_19  and  N_26
REMARK                            x       y       z     vdW  Elec       q    Type
REMARK                         _______ _______ _______ _____ _____    ______ ____
ROOT
ATOM      1  N   UNL     1      34.972 -23.279 -14.344  0.00  0.00    -0.166 N 
ATOM      2  N   UNL     1      32.005 -22.824 -16.197  0.00  0.00    -0.242 NA
ATOM      3  C   UNL     1      33.611 -23.400 -14.482  0.00  0.00    +0.091 C 
ATOM      4  C   UNL     1      33.278 -22.869 -15.728  0.00  0.00    +0.098 C 
ATOM      5  C   UNL     1      35.505 -22.690 -15.462  0.00  0.00    +0.090 C 
ATOM      6  C   UNL     1      34.477 -22.425 -16.338  0.00  0.00    +0.038 C 
ATOM      7  C   UNL     1      32.635 -23.923 -13.635  0.00  0.00    +0.024 C 
ATOM      8  C   UNL     1      31.326 -23.883 -14.106  0.00  0.00    +0.074 C 
ATOM      9  C   UNL     1      31.077 -23.338 -15.358  0.00  0.00    +0.103 C 
ENDROOT
BRANCH   8  12
ATOM     10  O   UNL     1      30.103 -24.080 -12.103  0.00  0.00    -0.270 OA
ATOM     11  N   UNL     1      29.332 -25.269 -13.906  0.00  0.00    -0.325 N 
ATOM     12  C   UNL     1      30.238 -24.404 -13.297  0.00  0.00    +0.244 C 
ATOM     13  H   UNL     1      28.582 -25.641 -13.389  0.00  0.00    +0.145 HD
ATOM     14  H   UNL     1      29.442 -25.508 -14.855  0.00  0.00    +0.145 HD
ENDBRANCH   8  12
BRANCH   1  15
ATOM     15  S   UNL     1      35.864 -23.767 -13.025  0.00  0.00    +0.082 S 
ATOM     16  O   UNL     1      35.225 -24.902 -12.309  0.00  0.00    -0.149 OA
ATOM     17  O   UNL     1      36.214 -22.586 -12.204  0.00  0.00    -0.149 OA
BRANCH  15  18
ATOM     18  C   UNL     1      37.439 -24.471 -13.540  0.00  0.00    +0.148 C 
ATOM     19  C   UNL     1      37.507 -25.656 -14.273  0.00  0.00    +0.162 C 
ATOM     20  C   UNL     1      38.611 -23.801 -13.188  0.00  0.00    +0.022 C 
ATOM     21  C   UNL     1      38.746 -26.170 -14.655  0.00  0.00    +0.025 C 
ATOM     22  C   UNL     1      39.850 -24.314 -13.571  0.00  0.00    +0.001 C 
ATOM     23  C   UNL     1      39.918 -25.499 -14.303  0.00  0.00    +0.002 C 
BRANCH  19  26
ATOM     24  O   UNL     1      35.955 -27.329 -13.944  0.00  0.00    -0.126 OA
ATOM     25  O   UNL     1      35.703 -25.995 -15.669  0.00  0.00    -0.126 OA
ATOM     26  N   UNL     1      36.330 -26.362 -14.647  0.00  0.00    +0.059 N 
ENDBRANCH  19  26
ENDBRANCH  15  18
ENDBRANCH   1  15
TORSDOF 4
ENDMDL
