MODEL 1
REMARK VINA RESULT:     -12.6      0.000      0.000
REMARK  Name = 445841
REMARK  2 active torsions:
REMARK  status: ('A' for Active; 'I' for Inactive)
REMARK    1  A    between atoms: N_2  and  C_22
REMARK    2  A    between atoms: C_6  and  C_27
REMARK                            x       y       z     vdW  Elec       q    Type
REMARK                         _______ _______ _______ _____ _____    ______ ____
ROOT
ATOM      1  O   UNL     1      33.739 -20.588 -20.549  0.00  0.00    -0.252 OA
ATOM      2  N   UNL     1      35.201 -18.922 -21.307  0.00  0.00    -0.268 N 
ATOM      3  N   UNL     1      34.925 -22.404 -16.956  0.00  0.00    -0.241 N 
ATOM      4  N   UNL     1      35.669 -20.045 -19.343  0.00  0.00    -0.252 N 
ATOM      5  N   UNL     1      34.600 -21.784 -18.103  0.00  0.00    -0.166 NA
ATOM      6  C   UNL     1      36.083 -21.954 -16.394  0.00  0.00    +0.026 C 
ATOM      7  C   UNL     1      36.549 -20.970 -17.233  0.00  0.00    +0.046 C 
ATOM      8  C   UNL     1      35.595 -20.920 -18.253  0.00  0.00    +0.154 C 
ATOM      9  C   UNL     1      34.762 -19.926 -20.407  0.00  0.00    +0.309 C 
ATOM     10  H   UNL     1      36.043 -18.472 -21.065  0.00  0.00    +0.156 HD
ATOM     11  H   UNL     1      34.377 -23.118 -16.557  0.00  0.00    +0.174 HD
ATOM     12  H   UNL     1      36.448 -19.443 -19.364  0.00  0.00    +0.158 HD
ENDROOT
BRANCH   2  22
ATOM     13  O   UNL     1      33.020 -14.623 -24.732  0.00  0.00    -0.270 OA
ATOM     14  N   UNL     1      34.158 -14.872 -22.683  0.00  0.00    -0.274 N 
ATOM     15  C   UNL     1      34.717 -15.961 -21.899  0.00  0.00    +0.100 C 
ATOM     16  C   UNL     1      34.046 -15.754 -20.549  0.00  0.00    +0.026 C 
ATOM     17  C   UNL     1      34.018 -14.221 -20.441  0.00  0.00    +0.024 C 
ATOM     18  C   UNL     1      33.741 -13.746 -21.872  0.00  0.00    +0.094 C 
ATOM     19  C   UNL     1      34.377 -17.145 -22.731  0.00  0.00    +0.014 C 
ATOM     20  C   UNL     1      33.790 -16.733 -23.934  0.00  0.00    +0.052 C 
ATOM     21  C   UNL     1      33.614 -15.272 -23.892  0.00  0.00    +0.249 C 
ATOM     22  C   UNL     1      34.601 -18.487 -22.486  0.00  0.00    +0.049 C 
ATOM     23  C   UNL     1      33.398 -17.623 -24.914  0.00  0.00    +0.004 C 
ATOM     24  C   UNL     1      34.218 -19.407 -23.468  0.00  0.00    +0.014 C 
ATOM     25  C   UNL     1      33.623 -18.979 -24.671  0.00  0.00    +0.001 C 
ENDBRANCH   2  22
BRANCH   6  27
ATOM     26  N   UNL     1      35.740 -23.551 -14.541  0.00  0.00    +0.388 N 
ATOM     27  C   UNL     1      36.625 -22.518 -15.101  0.00  0.00    -0.023 C 
ATOM     28  C   UNL     1      37.994 -23.192 -15.260  0.00  0.00    -0.018 C 
ATOM     29  C   UNL     1      37.803 -24.600 -14.716  0.00  0.00    -0.025 C 
ATOM     30  C   UNL     1      36.600 -24.472 -13.805  0.00  0.00    -0.081 C 
ATOM     31  H   UNL     1      35.254 -24.045 -15.291  0.00  0.00    -0.084 HD
ATOM     32  H   UNL     1      35.027 -23.143 -13.935  0.00  0.00    -0.084 HD
ENDBRANCH   6  27
TORSDOF 2
ENDMDL
MODEL 2
REMARK VINA RESULT:     -11.6      2.860     10.519
REMARK  Name = 445841
REMARK  2 active torsions:
REMARK  status: ('A' for Active; 'I' for Inactive)
REMARK    1  A    between atoms: N_2  and  C_22
REMARK    2  A    between atoms: C_6  and  C_27
REMARK                            x       y       z     vdW  Elec       q    Type
REMARK                         _______ _______ _______ _____ _____    ______ ____
ROOT
ATOM      1  O   UNL     1      33.679 -22.289 -16.899  0.00  0.00    -0.252 OA
ATOM      2  N   UNL     1      35.750 -22.342 -15.807  0.00  0.00    -0.268 N 
ATOM      3  N   UNL     1      33.731 -20.264 -20.575  0.00  0.00    -0.241 N 
ATOM      4  N   UNL     1      35.563 -21.278 -17.849  0.00  0.00    -0.252 N 
ATOM      5  N   UNL     1      33.779 -20.899 -19.392  0.00  0.00    -0.166 NA
ATOM      6  C   UNL     1      34.926 -19.739 -20.969  0.00  0.00    +0.026 C 
ATOM      7  C   UNL     1      35.819 -20.051 -19.973  0.00  0.00    +0.046 C 
ATOM      8  C   UNL     1      35.051 -20.759 -19.044  0.00  0.00    +0.154 C 
ATOM      9  C   UNL     1      34.870 -21.997 -16.863  0.00  0.00    +0.309 C 
ATOM     10  H   UNL     1      36.682 -22.040 -15.913  0.00  0.00    +0.156 HD
ATOM     11  H   UNL     1      32.908 -20.186 -21.110  0.00  0.00    +0.174 HD
ATOM     12  H   UNL     1      36.520 -21.120 -17.681  0.00  0.00    +0.158 HD
ENDROOT
BRANCH   2  22
ATOM     13  O   UNL     1      37.460 -25.759 -11.293  0.00  0.00    -0.270 OA
ATOM     14  N   UNL     1      38.405 -24.594 -13.111  0.00  0.00    -0.274 N 
ATOM     15  C   UNL     1      37.939 -23.723 -14.177  0.00  0.00    +0.100 C 
ATOM     16  C   UNL     1      38.484 -24.420 -15.415  0.00  0.00    +0.026 C 
ATOM     17  C   UNL     1      39.850 -24.922 -14.921  0.00  0.00    +0.024 C 
ATOM     18  C   UNL     1      39.597 -25.337 -13.468  0.00  0.00    +0.094 C 
ATOM     19  C   UNL     1      36.476 -23.682 -13.924  0.00  0.00    +0.014 C 
ATOM     20  C   UNL     1      36.174 -24.371 -12.742  0.00  0.00    +0.052 C 
ATOM     21  C   UNL     1      37.409 -24.990 -12.235  0.00  0.00    +0.249 C 
ATOM     22  C   UNL     1      35.475 -23.051 -14.640  0.00  0.00    +0.049 C 
ATOM     23  C   UNL     1      34.889 -24.470 -12.246  0.00  0.00    +0.004 C 
ATOM     24  C   UNL     1      34.166 -23.133 -14.153  0.00  0.00    +0.014 C 
ATOM     25  C   UNL     1      33.877 -23.835 -12.966  0.00  0.00    +0.001 C 
ENDBRANCH   2  22
BRANCH   6  27
ATOM     26  N   UNL     1      33.802 -18.817 -22.967  0.00  0.00    +0.388 N 
ATOM     27  C   UNL     1      35.087 -18.987 -22.270  0.00  0.00    -0.023 C 
ATOM     28  C   UNL     1      35.645 -17.569 -22.086  0.00  0.00    -0.018 C 
ATOM     29  C   UNL     1      34.627 -16.658 -22.757  0.00  0.00    -0.025 C 
ATOM     30  C   UNL     1      33.908 -17.575 -23.724  0.00  0.00    -0.081 C 
ATOM     31  H   UNL     1      33.039 -18.754 -22.291  0.00  0.00    -0.084 HD
ATOM     32  H   UNL     1      33.602 -19.609 -23.578  0.00  0.00    -0.084 HD
ENDBRANCH   6  27
TORSDOF 2
ENDMDL
MODEL 3
REMARK VINA RESULT:     -11.5      2.990      9.904
REMARK  Name = 445841
REMARK  2 active torsions:
REMARK  status: ('A' for Active; 'I' for Inactive)
REMARK    1  A    between atoms: N_2  and  C_22
REMARK    2  A    between atoms: C_6  and  C_27
REMARK                            x       y       z     vdW  Elec       q    Type
REMARK                         _______ _______ _______ _____ _____    ______ ____
ROOT
ATOM      1  O   UNL     1      36.888 -20.363 -17.226  0.00  0.00    -0.252 OA
ATOM      2  N   UNL     1      35.390 -22.136 -16.914  0.00  0.00    -0.268 N 
ATOM      3  N   UNL     1      36.402 -18.329 -20.866  0.00  0.00    -0.241 N 
ATOM      4  N   UNL     1      35.289 -20.884 -18.852  0.00  0.00    -0.252 N 
ATOM      5  N   UNL     1      36.507 -19.020 -19.718  0.00  0.00    -0.166 NA
ATOM      6  C   UNL     1      35.412 -18.776 -21.690  0.00  0.00    +0.026 C 
ATOM      7  C   UNL     1      34.828 -19.834 -21.036  0.00  0.00    +0.046 C 
ATOM      8  C   UNL     1      35.546 -19.926 -19.841  0.00  0.00    +0.154 C 
ATOM      9  C   UNL     1      35.955 -21.049 -17.628  0.00  0.00    +0.309 C 
ATOM     10  H   UNL     1      34.644 -22.598 -17.361  0.00  0.00    +0.156 HD
ATOM     11  H   UNL     1      36.985 -17.569 -21.091  0.00  0.00    +0.174 HD
ATOM     12  H   UNL     1      34.555 -21.514 -19.038  0.00  0.00    +0.158 HD
ENDROOT
BRANCH   2  22
ATOM     13  O   UNL     1      33.982 -24.469 -11.665  0.00  0.00    -0.270 OA
ATOM     14  N   UNL     1      32.938 -23.859 -13.688  0.00  0.00    -0.274 N 
ATOM     15  C   UNL     1      33.342 -23.324 -14.978  0.00  0.00    +0.100 C 
ATOM     16  C   UNL     1      32.443 -22.105 -15.110  0.00  0.00    +0.026 C 
ATOM     17  C   UNL     1      31.130 -22.610 -14.490  0.00  0.00    +0.024 C 
ATOM     18  C   UNL     1      31.580 -23.503 -13.329  0.00  0.00    +0.094 C 
ATOM     19  C   UNL     1      34.808 -23.157 -14.796  0.00  0.00    +0.014 C 
ATOM     20  C   UNL     1      35.199 -23.674 -13.554  0.00  0.00    +0.052 C 
ATOM     21  C   UNL     1      33.993 -24.093 -12.823  0.00  0.00    +0.249 C 
ATOM     22  C   UNL     1      35.749 -22.638 -15.664  0.00  0.00    +0.049 C 
ATOM     23  C   UNL     1      36.513 -23.679 -13.131  0.00  0.00    +0.004 C 
ATOM     24  C   UNL     1      37.088 -22.638 -15.259  0.00  0.00    +0.014 C 
ATOM     25  C   UNL     1      37.467 -23.155 -14.005  0.00  0.00    +0.001 C 
ENDBRANCH   2  22
BRANCH   6  27
ATOM     26  N   UNL     1      33.845 -18.590 -23.591  0.00  0.00    +0.388 N 
ATOM     27  C   UNL     1      35.126 -18.135 -23.028  0.00  0.00    -0.023 C 
ATOM     28  C   UNL     1      35.024 -16.605 -22.959  0.00  0.00    -0.018 C 
ATOM     29  C   UNL     1      33.662 -16.276 -23.552  0.00  0.00    -0.025 C 
ATOM     30  C   UNL     1      33.340 -17.487 -24.402  0.00  0.00    -0.081 C 
ATOM     31  H   UNL     1      33.187 -18.806 -22.842  0.00  0.00    -0.084 HD
ATOM     32  H   UNL     1      33.962 -19.437 -24.147  0.00  0.00    -0.084 HD
ENDBRANCH   6  27
TORSDOF 2
ENDMDL
MODEL 4
REMARK VINA RESULT:     -11.4      0.956      1.213
REMARK  Name = 445841
REMARK  2 active torsions:
REMARK  status: ('A' for Active; 'I' for Inactive)
REMARK    1  A    between atoms: N_2  and  C_22
REMARK    2  A    between atoms: C_6  and  C_27
REMARK                            x       y       z     vdW  Elec       q    Type
REMARK                         _______ _______ _______ _____ _____    ______ ____
ROOT
ATOM      1  O   UNL     1      33.057 -19.981 -20.843  0.00  0.00    -0.252 OA
ATOM      2  N   UNL     1      34.870 -18.792 -21.730  0.00  0.00    -0.268 N 
ATOM      3  N   UNL     1      34.002 -22.276 -17.458  0.00  0.00    -0.241 N 
ATOM      4  N   UNL     1      35.176 -20.117 -19.862  0.00  0.00    -0.252 N 
ATOM      5  N   UNL     1      33.763 -21.521 -18.544  0.00  0.00    -0.166 NA
ATOM      6  C   UNL     1      35.295 -22.229 -17.028  0.00  0.00    +0.026 C 
ATOM      7  C   UNL     1      35.949 -21.385 -17.893  0.00  0.00    +0.046 C 
ATOM      8  C   UNL     1      34.953 -20.991 -18.791  0.00  0.00    +0.154 C 
ATOM      9  C   UNL     1      34.242 -19.668 -20.808  0.00  0.00    +0.309 C 
ATOM     10  H   UNL     1      35.830 -18.632 -21.579  0.00  0.00    +0.156 HD
ATOM     11  H   UNL     1      33.308 -22.813 -17.014  0.00  0.00    +0.174 HD
ATOM     12  H   UNL     1      36.095 -19.777 -19.962  0.00  0.00    +0.158 HD
ENDROOT
BRANCH   2  22
ATOM     13  O   UNL     1      33.035 -13.845 -24.400  0.00  0.00    -0.270 OA
ATOM     14  N   UNL     1      34.139 -14.507 -22.426  0.00  0.00    -0.274 N 
ATOM     15  C   UNL     1      34.610 -15.747 -21.832  0.00  0.00    +0.100 C 
ATOM     16  C   UNL     1      33.949 -15.712 -20.462  0.00  0.00    +0.026 C 
ATOM     17  C   UNL     1      34.034 -14.219 -20.107  0.00  0.00    +0.024 C 
ATOM     18  C   UNL     1      33.802 -13.499 -21.440  0.00  0.00    +0.094 C 
ATOM     19  C   UNL     1      34.188 -16.752 -22.842  0.00  0.00    +0.014 C 
ATOM     20  C   UNL     1      33.640 -16.108 -23.959  0.00  0.00    +0.052 C 
ATOM     21  C   UNL     1      33.574 -14.665 -23.680  0.00  0.00    +0.249 C 
ATOM     22  C   UNL     1      34.311 -18.128 -22.820  0.00  0.00    +0.049 C 
ATOM     23  C   UNL     1      33.190 -16.796 -25.068  0.00  0.00    +0.004 C 
ATOM     24  C   UNL     1      33.866 -18.846 -23.935  0.00  0.00    +0.014 C 
ATOM     25  C   UNL     1      33.312 -18.186 -25.049  0.00  0.00    +0.001 C 
ENDBRANCH   2  22
BRANCH   6  27
ATOM     26  N   UNL     1      37.199 -22.771 -15.549  0.00  0.00    +0.388 N 
ATOM     27  C   UNL     1      35.772 -23.005 -15.821  0.00  0.00    -0.023 C 
ATOM     28  C   UNL     1      35.039 -22.625 -14.528  0.00  0.00    -0.018 C 
ATOM     29  C   UNL     1      36.140 -22.231 -13.555  0.00  0.00    -0.025 C 
ATOM     30  C   UNL     1      37.370 -22.921 -14.108  0.00  0.00    -0.081 C 
ATOM     31  H   UNL     1      37.464 -21.829 -15.839  0.00  0.00    -0.084 HD
ATOM     32  H   UNL     1      37.788 -23.425 -16.064  0.00  0.00    -0.084 HD
ENDBRANCH   6  27
TORSDOF 2
ENDMDL
MODEL 5
REMARK VINA RESULT:     -11.1      3.192     10.137
REMARK  Name = 445841
REMARK  2 active torsions:
REMARK  status: ('A' for Active; 'I' for Inactive)
REMARK    1  A    between atoms: N_2  and  C_22
REMARK    2  A    between atoms: C_6  and  C_27
REMARK                            x       y       z     vdW  Elec       q    Type
REMARK                         _______ _______ _______ _____ _____    ______ ____
ROOT
ATOM      1  O   UNL     1      31.887 -21.686 -17.762  0.00  0.00    -0.252 OA
ATOM      2  N   UNL     1      33.788 -22.405 -16.599  0.00  0.00    -0.268 N 
ATOM      3  N   UNL     1      32.729 -19.627 -21.321  0.00  0.00    -0.241 N 
ATOM      4  N   UNL     1      34.032 -21.253 -18.587  0.00  0.00    -0.252 N 
ATOM      5  N   UNL     1      32.525 -20.293 -20.172  0.00  0.00    -0.166 NA
ATOM      6  C   UNL     1      34.045 -19.471 -21.642  0.00  0.00    +0.026 C 
ATOM      7  C   UNL     1      34.752 -20.078 -20.632  0.00  0.00    +0.046 C 
ATOM      8  C   UNL     1      33.761 -20.557 -19.771  0.00  0.00    +0.154 C 
ATOM      9  C   UNL     1      33.107 -21.768 -17.667  0.00  0.00    +0.309 C 
ATOM     10  H   UNL     1      34.772 -22.394 -16.655  0.00  0.00    +0.156 HD
ATOM     11  H   UNL     1      31.996 -19.282 -21.880  0.00  0.00    +0.174 HD
ATOM     12  H   UNL     1      34.983 -21.398 -18.376  0.00  0.00    +0.158 HD
ENDROOT
BRANCH   2  22
ATOM     13  O   UNL     1      34.347 -24.679 -11.168  0.00  0.00    -0.270 OA
ATOM     14  N   UNL     1      35.622 -23.471 -12.741  0.00  0.00    -0.274 N 
ATOM     15  C   UNL     1      35.420 -22.892 -14.058  0.00  0.00    +0.100 C 
ATOM     16  C   UNL     1      36.558 -23.513 -14.854  0.00  0.00    +0.026 C 
ATOM     17  C   UNL     1      37.695 -23.528 -13.820  0.00  0.00    +0.024 C 
ATOM     18  C   UNL     1      36.998 -23.852 -12.495  0.00  0.00    +0.094 C 
ATOM     19  C   UNL     1      34.011 -23.268 -14.347  0.00  0.00    +0.014 C 
ATOM     20  C   UNL     1      33.443 -23.895 -13.230  0.00  0.00    +0.052 C 
ATOM     21  C   UNL     1      34.488 -24.059 -12.207  0.00  0.00    +0.249 C 
ATOM     22  C   UNL     1      33.254 -23.043 -15.482  0.00  0.00    +0.049 C 
ATOM     23  C   UNL     1      32.132 -24.326 -13.205  0.00  0.00    +0.004 C 
ATOM     24  C   UNL     1      31.921 -23.466 -15.477  0.00  0.00    +0.014 C 
ATOM     25  C   UNL     1      31.365 -24.100 -14.349  0.00  0.00    +0.001 C 
ENDBRANCH   2  22
BRANCH   6  27
ATOM     26  N   UNL     1      33.362 -18.482 -23.800  0.00  0.00    +0.388 N 
ATOM     27  C   UNL     1      34.490 -18.752 -22.895  0.00  0.00    -0.023 C 
ATOM     28  C   UNL     1      35.129 -17.386 -22.615  0.00  0.00    -0.018 C 
ATOM     29  C   UNL     1      34.324 -16.399 -23.447  0.00  0.00    -0.025 C 
ATOM     30  C   UNL     1      33.703 -17.263 -24.526  0.00  0.00    -0.081 C 
ATOM     31  H   UNL     1      32.504 -18.345 -23.265  0.00  0.00    -0.084 HD
ATOM     32  H   UNL     1      33.202 -19.261 -24.438  0.00  0.00    -0.084 HD
ENDBRANCH   6  27
TORSDOF 2
ENDMDL
MODEL 6
REMARK VINA RESULT:     -11.0      3.688      9.824
REMARK  Name = 445841
REMARK  2 active torsions:
REMARK  status: ('A' for Active; 'I' for Inactive)
REMARK    1  A    between atoms: N_2  and  C_22
REMARK    2  A    between atoms: C_6  and  C_27
REMARK                            x       y       z     vdW  Elec       q    Type
REMARK                         _______ _______ _______ _____ _____    ______ ____
ROOT
ATOM      1  O   UNL     1      35.734 -20.993 -17.680  0.00  0.00    -0.252 OA
ATOM      2  N   UNL     1      33.709 -22.134 -17.396  0.00  0.00    -0.268 N 
ATOM      3  N   UNL     1      35.951 -18.736 -21.212  0.00  0.00    -0.241 N 
ATOM      4  N   UNL     1      34.032 -20.830 -19.276  0.00  0.00    -0.252 N 
ATOM      5  N   UNL     1      35.820 -19.477 -20.098  0.00  0.00    -0.166 NA
ATOM      6  C   UNL     1      34.855 -18.760 -22.023  0.00  0.00    +0.026 C 
ATOM      7  C   UNL     1      33.943 -19.575 -21.397  0.00  0.00    +0.046 C 
ATOM      8  C   UNL     1      34.598 -19.976 -20.230  0.00  0.00    +0.154 C 
ATOM      9  C   UNL     1      34.612 -21.282 -18.081  0.00  0.00    +0.309 C 
ATOM     10  H   UNL     1      32.841 -22.278 -17.839  0.00  0.00    +0.156 HD
ATOM     11  H   UNL     1      36.763 -18.221 -21.423  0.00  0.00    +0.174 HD
ATOM     12  H   UNL     1      33.119 -21.148 -19.465  0.00  0.00    +0.158 HD
ENDROOT
BRANCH   2  22
ATOM     13  O   UNL     1      31.542 -24.944 -12.665  0.00  0.00    -0.270 OA
ATOM     14  N   UNL     1      30.791 -24.047 -14.711  0.00  0.00    -0.274 N 
ATOM     15  C   UNL     1      31.379 -23.399 -15.871  0.00  0.00    +0.100 C 
ATOM     16  C   UNL     1      30.563 -22.118 -15.965  0.00  0.00    +0.026 C 
ATOM     17  C   UNL     1      29.161 -22.606 -15.569  0.00  0.00    +0.024 C 
ATOM     18  C   UNL     1      29.417 -23.649 -14.476  0.00  0.00    +0.094 C 
ATOM     19  C   UNL     1      32.816 -23.346 -15.499  0.00  0.00    +0.014 C 
ATOM     20  C   UNL     1      33.023 -24.021 -14.289  0.00  0.00    +0.052 C 
ATOM     21  C   UNL     1      31.716 -24.443 -13.761  0.00  0.00    +0.249 C 
ATOM     22  C   UNL     1      33.884 -22.793 -16.181  0.00  0.00    +0.049 C 
ATOM     23  C   UNL     1      34.272 -24.157 -13.717  0.00  0.00    +0.004 C 
ATOM     24  C   UNL     1      35.160 -22.923 -15.623  0.00  0.00    +0.014 C 
ATOM     25  C   UNL     1      35.352 -23.599 -14.403  0.00  0.00    +0.001 C 
ENDBRANCH   2  22
BRANCH   6  27
ATOM     26  N   UNL     1      33.539 -18.233 -24.046  0.00  0.00    +0.388 N 
ATOM     27  C   UNL     1      34.797 -17.992 -23.323  0.00  0.00    -0.023 C 
ATOM     28  C   UNL     1      34.876 -16.471 -23.133  0.00  0.00    -0.018 C 
ATOM     29  C   UNL     1      33.638 -15.925 -23.827  0.00  0.00    -0.025 C 
ATOM     30  C   UNL     1      33.264 -17.019 -24.806  0.00  0.00    -0.081 C 
ATOM     31  H   UNL     1      32.782 -18.416 -23.387  0.00  0.00    -0.084 HD
ATOM     32  H   UNL     1      33.611 -19.047 -24.658  0.00  0.00    -0.084 HD
ENDBRANCH   6  27
TORSDOF 2
ENDMDL
MODEL 7
REMARK VINA RESULT:     -10.6      4.462      9.823
REMARK  Name = 445841
REMARK  2 active torsions:
REMARK  status: ('A' for Active; 'I' for Inactive)
REMARK    1  A    between atoms: N_2  and  C_22
REMARK    2  A    between atoms: C_6  and  C_27
REMARK                            x       y       z     vdW  Elec       q    Type
REMARK                         _______ _______ _______ _____ _____    ______ ____
ROOT
ATOM      1  O   UNL     1      32.674 -22.924 -17.908  0.00  0.00    -0.252 OA
ATOM      2  N   UNL     1      30.682 -21.936 -17.174  0.00  0.00    -0.268 N 
ATOM      3  N   UNL     1      34.782 -20.641 -20.730  0.00  0.00    -0.241 N 
ATOM      4  N   UNL     1      31.995 -20.840 -18.727  0.00  0.00    -0.252 N 
ATOM      5  N   UNL     1      34.061 -21.324 -19.825  0.00  0.00    -0.166 NA
ATOM      6  C   UNL     1      34.230 -19.446 -21.088  0.00  0.00    +0.026 C 
ATOM      7  C   UNL     1      33.065 -19.340 -20.366  0.00  0.00    +0.046 C 
ATOM      8  C   UNL     1      33.026 -20.520 -19.618  0.00  0.00    +0.154 C 
ATOM      9  C   UNL     1      31.874 -21.995 -17.939  0.00  0.00    +0.309 C 
ATOM     10  H   UNL     1      30.134 -21.127 -17.301  0.00  0.00    +0.156 HD
ATOM     11  H   UNL     1      35.631 -20.972 -21.101  0.00  0.00    +0.174 HD
ATOM     12  H   UNL     1      31.271 -20.178 -18.645  0.00  0.00    +0.158 HD
ENDROOT
BRANCH   2  22
ATOM     13  O   UNL     1      31.188 -25.156 -12.239  0.00  0.00    -0.270 OA
ATOM     14  N   UNL     1      32.349 -23.462 -13.396  0.00  0.00    -0.274 N 
ATOM     15  C   UNL     1      32.156 -22.665 -14.596  0.00  0.00    +0.100 C 
ATOM     16  C   UNL     1      33.451 -22.917 -15.354  0.00  0.00    +0.026 C 
ATOM     17  C   UNL     1      34.482 -22.961 -14.215  0.00  0.00    +0.024 C 
ATOM     18  C   UNL     1      33.747 -23.658 -13.066  0.00  0.00    +0.094 C 
ATOM     19  C   UNL     1      30.869 -23.195 -15.114  0.00  0.00    +0.014 C 
ATOM     20  C   UNL     1      30.333 -24.121 -14.209  0.00  0.00    +0.052 C 
ATOM     21  C   UNL     1      31.301 -24.322 -13.119  0.00  0.00    +0.249 C 
ATOM     22  C   UNL     1      30.181 -22.867 -16.267  0.00  0.00    +0.049 C 
ATOM     23  C   UNL     1      29.124 -24.753 -14.420  0.00  0.00    +0.004 C 
ATOM     24  C   UNL     1      28.951 -23.492 -16.500  0.00  0.00    +0.014 C 
ATOM     25  C   UNL     1      28.427 -24.425 -15.584  0.00  0.00    +0.001 C 
ENDBRANCH   2  22
BRANCH   6  27
ATOM     26  N   UNL     1      33.982 -18.206 -23.210  0.00  0.00    +0.388 N 
ATOM     27  C   UNL     1      34.883 -18.524 -22.091  0.00  0.00    -0.023 C 
ATOM     28  C   UNL     1      35.290 -17.170 -21.495  0.00  0.00    -0.018 C 
ATOM     29  C   UNL     1      34.609 -16.134 -22.375  0.00  0.00    -0.025 C 
ATOM     30  C   UNL     1      34.358 -16.874 -23.672  0.00  0.00    -0.081 C 
ATOM     31  H   UNL     1      33.012 -18.210 -22.895  0.00  0.00    -0.084 HD
ATOM     32  H   UNL     1      34.061 -18.895 -23.959  0.00  0.00    -0.084 HD
ENDBRANCH   6  27
TORSDOF 2
ENDMDL
MODEL 8
REMARK VINA RESULT:     -10.1      2.543      4.558
REMARK  Name = 445841
REMARK  2 active torsions:
REMARK  status: ('A' for Active; 'I' for Inactive)
REMARK    1  A    between atoms: N_2  and  C_22
REMARK    2  A    between atoms: C_6  and  C_27
REMARK                            x       y       z     vdW  Elec       q    Type
REMARK                         _______ _______ _______ _____ _____    ______ ____
ROOT
ATOM      1  O   UNL     1      35.369 -15.577 -22.540  0.00  0.00    -0.252 OA
ATOM      2  N   UNL     1      33.186 -15.673 -23.383  0.00  0.00    -0.268 N 
ATOM      3  N   UNL     1      36.453 -18.894 -20.208  0.00  0.00    -0.241 N 
ATOM      4  N   UNL     1      33.982 -17.403 -22.076  0.00  0.00    -0.252 N 
ATOM      5  N   UNL     1      36.046 -17.860 -20.964  0.00  0.00    -0.166 NA
ATOM      6  C   UNL     1      35.510 -19.866 -20.048  0.00  0.00    +0.026 C 
ATOM      7  C   UNL     1      34.408 -19.437 -20.747  0.00  0.00    +0.046 C 
ATOM      8  C   UNL     1      34.806 -18.208 -21.280  0.00  0.00    +0.154 C 
ATOM      9  C   UNL     1      34.296 -16.162 -22.650  0.00  0.00    +0.309 C 
ATOM     10  H   UNL     1      32.388 -16.251 -23.384  0.00  0.00    +0.156 HD
ATOM     11  H   UNL     1      37.351 -18.946 -19.807  0.00  0.00    +0.174 HD
ATOM     12  H   UNL     1      33.077 -17.749 -22.253  0.00  0.00    +0.158 HD
ENDROOT
BRANCH   2  22
ATOM     13  O   UNL     1      32.431  -9.813 -23.629  0.00  0.00    -0.270 OA
ATOM     14  N   UNL     1      32.716 -11.513 -22.022  0.00  0.00    -0.274 N 
ATOM     15  C   UNL     1      32.944 -12.948 -22.016  0.00  0.00    +0.100 C 
ATOM     16  C   UNL     1      31.815 -13.444 -21.126  0.00  0.00    +0.026 C 
ATOM     17  C   UNL     1      31.739 -12.337 -20.063  0.00  0.00    +0.024 C 
ATOM     18  C   UNL     1      32.019 -11.046 -20.840  0.00  0.00    +0.094 C 
ATOM     19  C   UNL     1      32.948 -13.264 -23.468  0.00  0.00    +0.014 C 
ATOM     20  C   UNL     1      32.855 -12.084 -24.217  0.00  0.00    +0.052 C 
ATOM     21  C   UNL     1      32.669 -10.957 -23.289  0.00  0.00    +0.249 C 
ATOM     22  C   UNL     1      33.071 -14.486 -24.103  0.00  0.00    +0.049 C 
ATOM     23  C   UNL     1      32.866 -12.075 -25.597  0.00  0.00    +0.004 C 
ATOM     24  C   UNL     1      33.090 -14.501 -25.502  0.00  0.00    +0.014 C 
ATOM     25  C   UNL     1      32.990 -13.306 -26.242  0.00  0.00    +0.001 C 
ENDBRANCH   2  22
BRANCH   6  27
ATOM     26  N   UNL     1      36.320 -20.799 -17.909  0.00  0.00    +0.388 N 
ATOM     27  C   UNL     1      35.767 -21.114 -19.235  0.00  0.00    -0.023 C 
ATOM     28  C   UNL     1      34.499 -21.935 -18.967  0.00  0.00    -0.018 C 
ATOM     29  C   UNL     1      34.439 -22.078 -17.453  0.00  0.00    -0.025 C 
ATOM     30  C   UNL     1      35.872 -21.861 -17.015  0.00  0.00    -0.081 C 
ATOM     31  H   UNL     1      35.972 -19.896 -17.586  0.00  0.00    -0.084 HD
ATOM     32  H   UNL     1      37.339 -20.739 -17.935  0.00  0.00    -0.084 HD
ENDBRANCH   6  27
TORSDOF 2
ENDMDL
MODEL 9
REMARK VINA RESULT:     -10.0      6.987     11.559
REMARK  Name = 445841
REMARK  2 active torsions:
REMARK  status: ('A' for Active; 'I' for Inactive)
REMARK    1  A    between atoms: N_2  and  C_22
REMARK    2  A    between atoms: C_6  and  C_27
REMARK                            x       y       z     vdW  Elec       q    Type
REMARK                         _______ _______ _______ _____ _____    ______ ____
ROOT
ATOM      1  O   UNL     1      31.560  -9.898 -21.408  0.00  0.00    -0.252 OA
ATOM      2  N   UNL     1      32.154  -8.327 -23.040  0.00  0.00    -0.268 N 
ATOM      3  N   UNL     1      33.023 -13.764 -22.137  0.00  0.00    -0.241 N 
ATOM      4  N   UNL     1      32.861 -10.515 -23.251  0.00  0.00    -0.252 N 
ATOM      5  N   UNL     1      32.584 -12.506 -21.960  0.00  0.00    -0.166 NA
ATOM      6  C   UNL     1      33.767 -13.934 -23.267  0.00  0.00    +0.026 C 
ATOM      7  C   UNL     1      33.820 -12.702 -23.871  0.00  0.00    +0.046 C 
ATOM      8  C   UNL     1      33.077 -11.879 -23.020  0.00  0.00    +0.154 C 
ATOM      9  C   UNL     1      32.134  -9.618 -22.455  0.00  0.00    +0.309 C 
ATOM     10  H   UNL     1      32.655  -8.249 -23.884  0.00  0.00    +0.156 HD
ATOM     11  H   UNL     1      32.825 -14.495 -21.509  0.00  0.00    +0.174 HD
ATOM     12  H   UNL     1      33.269 -10.143 -24.067  0.00  0.00    +0.158 HD
ENDROOT
BRANCH   2  22
ATOM     13  O   UNL     1      30.234  -2.802 -23.916  0.00  0.00    -0.270 OA
ATOM     14  N   UNL     1      31.124  -4.602 -25.150  0.00  0.00    -0.274 N 
ATOM     15  C   UNL     1      31.543  -5.969 -24.890  0.00  0.00    +0.100 C 
ATOM     16  C   UNL     1      32.962  -5.975 -25.440  0.00  0.00    +0.026 C 
ATOM     17  C   UNL     1      32.823  -5.083 -26.684  0.00  0.00    +0.024 C 
ATOM     18  C   UNL     1      31.830  -3.996 -26.261  0.00  0.00    +0.094 C 
ATOM     19  C   UNL     1      31.306  -6.091 -23.428  0.00  0.00    +0.014 C 
ATOM     20  C   UNL     1      30.691  -4.930 -22.944  0.00  0.00    +0.052 C 
ATOM     21  C   UNL     1      30.605  -3.955 -24.042  0.00  0.00    +0.249 C 
ATOM     22  C   UNL     1      31.561  -7.152 -22.580  0.00  0.00    +0.049 C 
ATOM     23  C   UNL     1      30.326  -4.778 -21.621  0.00  0.00    +0.004 C 
ATOM     24  C   UNL     1      31.196  -7.023 -21.236  0.00  0.00    +0.014 C 
ATOM     25  C   UNL     1      30.583  -5.846 -20.761  0.00  0.00    +0.001 C 
ENDBRANCH   2  22
BRANCH   6  27
ATOM     26  N   UNL     1      34.333 -16.222 -22.527  0.00  0.00    +0.388 N 
ATOM     27  C   UNL     1      34.357 -15.272 -23.650  0.00  0.00    -0.023 C 
ATOM     28  C   UNL     1      33.597 -15.965 -24.789  0.00  0.00    -0.018 C 
ATOM     29  C   UNL     1      33.221 -17.331 -24.235  0.00  0.00    -0.025 C 
ATOM     30  C   UNL     1      34.218 -17.552 -23.117  0.00  0.00    -0.081 C 
ATOM     31  H   UNL     1      33.533 -16.035 -21.921  0.00  0.00    -0.084 HD
ATOM     32  H   UNL     1      35.174 -16.141 -21.953  0.00  0.00    -0.084 HD
ENDBRANCH   6  27
TORSDOF 2
ENDMDL
