MODEL 1
REMARK VINA RESULT:     -12.1      0.000      0.000
REMARK  Name = 5287459
REMARK  5 active torsions:
REMARK  status: ('A' for Active; 'I' for Inactive)
REMARK    1  A    between atoms: C_1  and  C_7
REMARK    2  A    between atoms: C_4  and  C_21
REMARK    3  A    between atoms: C_5  and  C_25
REMARK    4  A    between atoms: C_8  and  C_13
REMARK    5  A    between atoms: C_25  and  O_26
REMARK                            x       y       z     vdW  Elec       q    Type
REMARK                         _______ _______ _______ _____ _____    ______ ____
ROOT
ATOM      1  C   UNL     1      36.826 -23.475 -14.741  0.00  0.00    +0.000 C 
ATOM      2  C   UNL     1      36.267 -23.428 -13.464  0.00  0.00    +0.005 C 
ATOM      3  C   UNL     1      38.019 -24.163 -14.955  0.00  0.00    +0.006 C 
ATOM      4  C   UNL     1      36.901 -24.072 -12.402  0.00  0.00    +0.053 C 
ATOM      5  C   UNL     1      38.654 -24.807 -13.893  0.00  0.00    +0.076 C 
ATOM      6  C   UNL     1      38.094 -24.761 -12.616  0.00  0.00    +0.011 C 
ENDROOT
BRANCH   1   7
ATOM      7  C   UNL     1      36.168 -22.806 -15.843  0.00  0.00    +0.000 C 
ATOM      8  C   UNL     1      34.900 -21.519 -17.968  0.00  0.00    +0.000 C 
ATOM      9  C   UNL     1      34.817 -23.043 -16.096  0.00  0.00    +0.000 C 
ATOM     10  C   UNL     1      36.885 -21.926 -16.653  0.00  0.00    +0.000 C 
ATOM     11  C   UNL     1      34.183 -22.400 -17.159  0.00  0.00    +0.000 C 
ATOM     12  C   UNL     1      36.251 -21.282 -17.716  0.00  0.00    +0.000 C 
BRANCH   8  13
ATOM     13  C   UNL     1      34.243 -20.852 -19.072  0.00  0.00    +0.000 C 
ATOM     14  C   UNL     1      32.852 -20.870 -19.170  0.00  0.00    +0.000 C 
ATOM     15  C   UNL     1      35.002 -20.190 -20.036  0.00  0.00    +0.000 C 
ATOM     16  C   UNL     1      32.219 -20.226 -20.234  0.00  0.00    +0.000 C 
ATOM     17  C   UNL     1      34.370 -19.546 -21.100  0.00  0.00    +0.000 C 
ATOM     18  C   UNL     1      32.979 -19.564 -21.199  0.00  0.00    +0.000 C 
ENDBRANCH   8  13
ENDBRANCH   1   7
BRANCH   4  21
ATOM     19  O   UNL     1      35.741 -25.011 -10.579  0.00  0.00    -0.270 OA
ATOM     20  N   UNL     1      36.441 -22.839 -10.351  0.00  0.00    -0.325 N 
ATOM     21  C   UNL     1      36.318 -24.024 -11.070  0.00  0.00    +0.243 C 
ATOM     22  H   UNL     1      36.058 -22.769  -9.446  0.00  0.00    +0.145 HD
ATOM     23  H   UNL     1      36.911 -22.070 -10.747  0.00  0.00    +0.145 HD
ENDBRANCH   4  21
BRANCH   5  25
ATOM     24  O   UNL     1      40.570 -26.084 -13.243  0.00  0.00    -0.245 OA
ATOM     25  C   UNL     1      39.899 -25.525 -14.116  0.00  0.00    +0.338 C 
BRANCH  25  26
ATOM     26  O   UNL     1      40.270 -25.526 -15.426  0.00  0.00    -0.477 OA
ATOM     27  H   UNL     1      40.948 -24.951 -15.722  0.00  0.00    +0.295 HD
ENDBRANCH  25  26
ENDBRANCH   5  25
TORSDOF 5
ENDMDL
MODEL 2
REMARK VINA RESULT:     -11.7      2.380      4.347
REMARK  Name = 5287459
REMARK  5 active torsions:
REMARK  status: ('A' for Active; 'I' for Inactive)
REMARK    1  A    between atoms: C_1  and  C_7
REMARK    2  A    between atoms: C_4  and  C_21
REMARK    3  A    between atoms: C_5  and  C_25
REMARK    4  A    between atoms: C_8  and  C_13
REMARK    5  A    between atoms: C_25  and  O_26
REMARK                            x       y       z     vdW  Elec       q    Type
REMARK                         _______ _______ _______ _____ _____    ______ ____
ROOT
ATOM      1  C   UNL     1      34.761 -22.958 -15.765  0.00  0.00    +0.000 C 
ATOM      2  C   UNL     1      35.862 -23.699 -15.337  0.00  0.00    +0.005 C 
ATOM      3  C   UNL     1      33.570 -22.998 -15.043  0.00  0.00    +0.006 C 
ATOM      4  C   UNL     1      35.771 -24.479 -14.183  0.00  0.00    +0.053 C 
ATOM      5  C   UNL     1      33.478 -23.778 -13.890  0.00  0.00    +0.076 C 
ATOM      6  C   UNL     1      34.580 -24.518 -13.461  0.00  0.00    +0.011 C 
ENDROOT
BRANCH   1   7
ATOM      7  C   UNL     1      34.855 -22.149 -16.961  0.00  0.00    +0.000 C 
ATOM      8  C   UNL     1      35.037 -20.589 -19.267  0.00  0.00    +0.000 C 
ATOM      9  C   UNL     1      36.044 -21.482 -17.261  0.00  0.00    +0.000 C 
ATOM     10  C   UNL     1      33.758 -22.036 -17.815  0.00  0.00    +0.000 C 
ATOM     11  C   UNL     1      36.134 -20.702 -18.413  0.00  0.00    +0.000 C 
ATOM     12  C   UNL     1      33.849 -21.255 -18.968  0.00  0.00    +0.000 C 
BRANCH   8  13
ATOM     13  C   UNL     1      35.130 -19.779 -20.463  0.00  0.00    +0.000 C 
ATOM     14  C   UNL     1      36.295 -19.061 -20.730  0.00  0.00    +0.000 C 
ATOM     15  C   UNL     1      34.054 -19.717 -21.347  0.00  0.00    +0.000 C 
ATOM     16  C   UNL     1      36.385 -18.281 -21.884  0.00  0.00    +0.000 C 
ATOM     17  C   UNL     1      34.143 -18.937 -22.500  0.00  0.00    +0.000 C 
ATOM     18  C   UNL     1      35.308 -18.218 -22.769  0.00  0.00    +0.000 C 
ENDBRANCH   8  13
ENDBRANCH   1   7
BRANCH   4  21
ATOM     19  O   UNL     1      38.069 -24.777 -13.762  0.00  0.00    -0.270 OA
ATOM     20  N   UNL     1      36.689 -26.538 -13.260  0.00  0.00    -0.325 N 
ATOM     21  C   UNL     1      36.919 -25.251 -13.736  0.00  0.00    +0.243 C 
ATOM     22  H   UNL     1      37.443 -27.091 -12.950  0.00  0.00    +0.145 HD
ATOM     23  H   UNL     1      35.772 -26.896 -13.233  0.00  0.00    +0.145 HD
ENDBRANCH   4  21
BRANCH   5  25
ATOM     24  O   UNL     1      31.530 -24.820 -12.971  0.00  0.00    -0.245 OA
ATOM     25  C   UNL     1      32.235 -23.819 -13.136  0.00  0.00    +0.338 C 
BRANCH  25  26
ATOM     26  O   UNL     1      31.906 -22.608 -12.608  0.00  0.00    -0.477 OA
ATOM     27  H   UNL     1      32.477 -22.195 -11.991  0.00  0.00    +0.295 HD
ENDBRANCH  25  26
ENDBRANCH   5  25
TORSDOF 5
ENDMDL
MODEL 3
REMARK VINA RESULT:     -11.5      2.622      4.248
REMARK  Name = 5287459
REMARK  5 active torsions:
REMARK  status: ('A' for Active; 'I' for Inactive)
REMARK    1  A    between atoms: C_1  and  C_7
REMARK    2  A    between atoms: C_4  and  C_21
REMARK    3  A    between atoms: C_5  and  C_25
REMARK    4  A    between atoms: C_8  and  C_13
REMARK    5  A    between atoms: C_25  and  O_26
REMARK                            x       y       z     vdW  Elec       q    Type
REMARK                         _______ _______ _______ _____ _____    ______ ____
ROOT
ATOM      1  C   UNL     1      34.735 -21.915 -17.278  0.00  0.00    +0.000 C 
ATOM      2  C   UNL     1      33.598 -22.475 -16.698  0.00  0.00    +0.005 C 
ATOM      3  C   UNL     1      35.987 -22.125 -16.702  0.00  0.00    +0.006 C 
ATOM      4  C   UNL     1      33.713 -23.248 -15.542  0.00  0.00    +0.053 C 
ATOM      5  C   UNL     1      36.103 -22.897 -15.546  0.00  0.00    +0.076 C 
ATOM      6  C   UNL     1      34.965 -23.458 -14.966  0.00  0.00    +0.011 C 
ENDROOT
BRANCH   1   7
ATOM      7  C   UNL     1      34.616 -21.114 -18.477  0.00  0.00    +0.000 C 
ATOM      8  C   UNL     1      34.388 -19.569 -20.789  0.00  0.00    +0.000 C 
ATOM      9  C   UNL     1      35.758 -20.582 -19.077  0.00  0.00    +0.000 C 
ATOM     10  C   UNL     1      33.360 -20.874 -19.035  0.00  0.00    +0.000 C 
ATOM     11  C   UNL     1      35.644 -19.809 -20.232  0.00  0.00    +0.000 C 
ATOM     12  C   UNL     1      33.246 -20.101 -20.190  0.00  0.00    +0.000 C 
BRANCH   8  13
ATOM     13  C   UNL     1      34.269 -18.766 -21.988  0.00  0.00    +0.000 C 
ATOM     14  C   UNL     1      34.776 -17.468 -22.012  0.00  0.00    +0.000 C 
ATOM     15  C   UNL     1      33.645 -19.293 -23.118  0.00  0.00    +0.000 C 
ATOM     16  C   UNL     1      34.662 -16.695 -23.168  0.00  0.00    +0.000 C 
ATOM     17  C   UNL     1      33.530 -18.521 -24.274  0.00  0.00    +0.000 C 
ATOM     18  C   UNL     1      34.037 -17.222 -24.299  0.00  0.00    +0.000 C 
ENDBRANCH   8  13
ENDBRANCH   1   7
BRANCH   4  21
ATOM     19  O   UNL     1      31.393 -23.634 -15.412  0.00  0.00    -0.270 OA
ATOM     20  N   UNL     1      32.699 -24.637 -13.816  0.00  0.00    -0.325 N 
ATOM     21  C   UNL     1      32.526 -23.832 -14.937  0.00  0.00    +0.243 C 
ATOM     22  H   UNL     1      31.919 -25.049 -13.379  0.00  0.00    +0.145 HD
ATOM     23  H   UNL     1      33.603 -24.795 -13.458  0.00  0.00    +0.145 HD
ENDBRANCH   4  21
BRANCH   5  25
ATOM     24  O   UNL     1      37.610 -23.483 -13.783  0.00  0.00    -0.245 OA
ATOM     25  C   UNL     1      37.409 -23.116 -14.945  0.00  0.00    +0.338 C 
BRANCH  25  26
ATOM     26  O   UNL     1      38.429 -22.871 -15.813  0.00  0.00    -0.477 OA
ATOM     27  H   UNL     1      39.159 -22.351 -15.545  0.00  0.00    +0.295 HD
ENDBRANCH  25  26
ENDBRANCH   5  25
TORSDOF 5
ENDMDL
MODEL 4
REMARK VINA RESULT:     -11.5      2.316      3.299
REMARK  Name = 5287459
REMARK  5 active torsions:
REMARK  status: ('A' for Active; 'I' for Inactive)
REMARK    1  A    between atoms: C_1  and  C_7
REMARK    2  A    between atoms: C_4  and  C_21
REMARK    3  A    between atoms: C_5  and  C_25
REMARK    4  A    between atoms: C_8  and  C_13
REMARK    5  A    between atoms: C_25  and  O_26
REMARK                            x       y       z     vdW  Elec       q    Type
REMARK                         _______ _______ _______ _____ _____    ______ ____
ROOT
ATOM      1  C   UNL     1      34.690 -22.903 -15.870  0.00  0.00    +0.000 C 
ATOM      2  C   UNL     1      33.491 -22.931 -15.158  0.00  0.00    +0.005 C 
ATOM      3  C   UNL     1      35.780 -23.653 -15.430  0.00  0.00    +0.006 C 
ATOM      4  C   UNL     1      33.382 -23.712 -14.008  0.00  0.00    +0.053 C 
ATOM      5  C   UNL     1      35.671 -24.434 -14.279  0.00  0.00    +0.076 C 
ATOM      6  C   UNL     1      34.471 -24.462 -13.568  0.00  0.00    +0.011 C 
ENDROOT
BRANCH   1   7
ATOM      7  C   UNL     1      34.804 -22.093 -17.064  0.00  0.00    +0.000 C 
ATOM      8  C   UNL     1      35.025 -20.532 -19.365  0.00  0.00    +0.000 C 
ATOM      9  C   UNL     1      36.004 -21.442 -17.353  0.00  0.00    +0.000 C 
ATOM     10  C   UNL     1      33.715 -21.964 -17.926  0.00  0.00    +0.000 C 
ATOM     11  C   UNL     1      36.114 -20.661 -18.503  0.00  0.00    +0.000 C 
ATOM     12  C   UNL     1      33.825 -21.183 -19.076  0.00  0.00    +0.000 C 
BRANCH   8  13
ATOM     13  C   UNL     1      35.138 -19.721 -20.559  0.00  0.00    +0.000 C 
ATOM     14  C   UNL     1      34.083 -19.668 -21.469  0.00  0.00    +0.000 C 
ATOM     15  C   UNL     1      36.303 -18.993 -20.797  0.00  0.00    +0.000 C 
ATOM     16  C   UNL     1      34.192 -18.885 -22.618  0.00  0.00    +0.000 C 
ATOM     17  C   UNL     1      36.413 -18.211 -21.947  0.00  0.00    +0.000 C 
ATOM     18  C   UNL     1      35.358 -18.157 -22.858  0.00  0.00    +0.000 C 
ENDBRANCH   8  13
ENDBRANCH   1   7
BRANCH   4  21
ATOM     19  O   UNL     1      31.663 -24.808 -12.827  0.00  0.00    -0.270 OA
ATOM     20  N   UNL     1      31.479 -22.532 -13.044  0.00  0.00    -0.325 N 
ATOM     21  C   UNL     1      32.131 -23.741 -13.265  0.00  0.00    +0.243 C 
ATOM     22  H   UNL     1      30.630 -22.513 -12.547  0.00  0.00    +0.145 HD
ATOM     23  H   UNL     1      31.868 -21.694 -13.386  0.00  0.00    +0.145 HD
ENDBRANCH   4  21
BRANCH   5  25
ATOM     24  O   UNL     1      37.992 -24.975 -14.073  0.00  0.00    -0.245 OA
ATOM     25  C   UNL     1      36.808 -25.216 -13.820  0.00  0.00    +0.338 C 
BRANCH  25  26
ATOM     26  O   UNL     1      36.433 -26.279 -13.056  0.00  0.00    -0.477 OA
ATOM     27  H   UNL     1      37.008 -26.607 -12.395  0.00  0.00    +0.295 HD
ENDBRANCH  25  26
ENDBRANCH   5  25
TORSDOF 5
ENDMDL
MODEL 5
REMARK VINA RESULT:     -11.1      3.115      5.361
REMARK  Name = 5287459
REMARK  5 active torsions:
REMARK  status: ('A' for Active; 'I' for Inactive)
REMARK    1  A    between atoms: C_1  and  C_7
REMARK    2  A    between atoms: C_4  and  C_21
REMARK    3  A    between atoms: C_5  and  C_25
REMARK    4  A    between atoms: C_8  and  C_13
REMARK    5  A    between atoms: C_25  and  O_26
REMARK                            x       y       z     vdW  Elec       q    Type
REMARK                         _______ _______ _______ _____ _____    ______ ____
ROOT
ATOM      1  C   UNL     1      33.343 -22.487 -16.990  0.00  0.00    +0.000 C 
ATOM      2  C   UNL     1      34.431 -23.107 -16.376  0.00  0.00    +0.005 C 
ATOM      3  C   UNL     1      32.053 -22.709 -16.511  0.00  0.00    +0.006 C 
ATOM      4  C   UNL     1      34.228 -23.946 -15.281  0.00  0.00    +0.053 C 
ATOM      5  C   UNL     1      31.849 -23.549 -15.417  0.00  0.00    +0.076 C 
ATOM      6  C   UNL     1      32.938 -24.168 -14.802  0.00  0.00    +0.011 C 
ENDROOT
BRANCH   1   7
ATOM      7  C   UNL     1      33.554 -21.616 -18.126  0.00  0.00    +0.000 C 
ATOM      8  C   UNL     1      33.958 -19.936 -20.317  0.00  0.00    +0.000 C 
ATOM      9  C   UNL     1      32.460 -21.061 -18.791  0.00  0.00    +0.000 C 
ATOM     10  C   UNL     1      34.849 -21.330 -18.556  0.00  0.00    +0.000 C 
ATOM     11  C   UNL     1      32.662 -20.222 -19.887  0.00  0.00    +0.000 C 
ATOM     12  C   UNL     1      35.051 -20.491 -19.652  0.00  0.00    +0.000 C 
BRANCH   8  13
ATOM     13  C   UNL     1      34.168 -19.066 -21.454  0.00  0.00    +0.000 C 
ATOM     14  C   UNL     1      33.514 -19.321 -22.658  0.00  0.00    +0.000 C 
ATOM     15  C   UNL     1      35.026 -17.972 -21.343  0.00  0.00    +0.000 C 
ATOM     16  C   UNL     1      33.717 -18.481 -23.754  0.00  0.00    +0.000 C 
ATOM     17  C   UNL     1      35.229 -17.132 -22.438  0.00  0.00    +0.000 C 
ATOM     18  C   UNL     1      34.575 -17.386 -23.644  0.00  0.00    +0.000 C 
ENDBRANCH   8  13
ENDBRANCH   1   7
BRANCH   4  21
ATOM     19  O   UNL     1      36.216 -23.935 -14.018  0.00  0.00    -0.270 OA
ATOM     20  N   UNL     1      35.456 -25.978 -14.730  0.00  0.00    -0.325 N 
ATOM     21  C   UNL     1      35.363 -24.592 -14.640  0.00  0.00    +0.243 C 
ATOM     22  H   UNL     1      36.211 -26.450 -14.309  0.00  0.00    +0.145 HD
ATOM     23  H   UNL     1      34.767 -26.487 -15.215  0.00  0.00    +0.145 HD
ENDBRANCH   4  21
BRANCH   5  25
ATOM     24  O   UNL     1      29.571 -24.263 -15.567  0.00  0.00    -0.245 OA
ATOM     25  C   UNL     1      30.503 -23.780 -14.917  0.00  0.00    +0.338 C 
BRANCH  25  26
ATOM     26  O   UNL     1      30.359 -23.401 -13.617  0.00  0.00    -0.477 OA
ATOM     27  H   UNL     1      31.099 -23.406 -13.042  0.00  0.00    +0.295 HD
ENDBRANCH  25  26
ENDBRANCH   5  25
TORSDOF 5
ENDMDL
MODEL 6
REMARK VINA RESULT:     -11.1      2.963      4.324
REMARK  Name = 5287459
REMARK  5 active torsions:
REMARK  status: ('A' for Active; 'I' for Inactive)
REMARK    1  A    between atoms: C_1  and  C_7
REMARK    2  A    between atoms: C_4  and  C_21
REMARK    3  A    between atoms: C_5  and  C_25
REMARK    4  A    between atoms: C_8  and  C_13
REMARK    5  A    between atoms: C_25  and  O_26
REMARK                            x       y       z     vdW  Elec       q    Type
REMARK                         _______ _______ _______ _____ _____    ______ ____
ROOT
ATOM      1  C   UNL     1      33.519 -22.768 -16.465  0.00  0.00    +0.000 C 
ATOM      2  C   UNL     1      32.205 -22.992 -16.057  0.00  0.00    +0.005 C 
ATOM      3  C   UNL     1      34.577 -23.340 -15.759  0.00  0.00    +0.006 C 
ATOM      4  C   UNL     1      31.948 -23.791 -14.943  0.00  0.00    +0.053 C 
ATOM      5  C   UNL     1      34.320 -24.137 -14.644  0.00  0.00    +0.076 C 
ATOM      6  C   UNL     1      33.005 -24.363 -14.236  0.00  0.00    +0.011 C 
ENDROOT
BRANCH   1   7
ATOM      7  C   UNL     1      33.786 -21.939 -17.622  0.00  0.00    +0.000 C 
ATOM      8  C   UNL     1      34.300 -20.343 -19.851  0.00  0.00    +0.000 C 
ATOM      9  C   UNL     1      32.729 -21.463 -18.397  0.00  0.00    +0.000 C 
ATOM     10  C   UNL     1      35.100 -21.617 -17.960  0.00  0.00    +0.000 C 
ATOM     11  C   UNL     1      32.986 -20.665 -19.512  0.00  0.00    +0.000 C 
ATOM     12  C   UNL     1      35.357 -20.819 -19.076  0.00  0.00    +0.000 C 
BRANCH   8  13
ATOM     13  C   UNL     1      34.567 -19.515 -21.008  0.00  0.00    +0.000 C 
ATOM     14  C   UNL     1      33.626 -19.424 -22.033  0.00  0.00    +0.000 C 
ATOM     15  C   UNL     1      35.766 -18.810 -21.097  0.00  0.00    +0.000 C 
ATOM     16  C   UNL     1      33.884 -18.625 -23.147  0.00  0.00    +0.000 C 
ATOM     17  C   UNL     1      36.025 -18.012 -22.211  0.00  0.00    +0.000 C 
ATOM     18  C   UNL     1      35.084 -17.919 -23.237  0.00  0.00    +0.000 C 
ENDBRANCH   8  13
ENDBRANCH   1   7
BRANCH   4  21
ATOM     19  O   UNL     1      29.612 -23.704 -15.234  0.00  0.00    -0.270 OA
ATOM     20  N   UNL     1      30.377 -24.638 -13.284  0.00  0.00    -0.325 N 
ATOM     21  C   UNL     1      30.577 -24.025 -14.517  0.00  0.00    +0.243 C 
ATOM     22  H   UNL     1      29.463 -24.812 -12.962  0.00  0.00    +0.145 HD
ATOM     23  H   UNL     1      31.150 -24.898 -12.732  0.00  0.00    +0.145 HD
ENDBRANCH   4  21
BRANCH   5  25
ATOM     24  O   UNL     1      36.098 -24.165 -13.043  0.00  0.00    -0.245 OA
ATOM     25  C   UNL     1      35.423 -24.734 -13.907  0.00  0.00    +0.338 C 
BRANCH  25  26
ATOM     26  O   UNL     1      35.651 -26.027 -14.268  0.00  0.00    -0.477 OA
ATOM     27  H   UNL     1      36.306 -26.529 -13.826  0.00  0.00    +0.295 HD
ENDBRANCH  25  26
ENDBRANCH   5  25
TORSDOF 5
ENDMDL
MODEL 7
REMARK VINA RESULT:     -10.3     11.156     14.805
REMARK  Name = 5287459
REMARK  5 active torsions:
REMARK  status: ('A' for Active; 'I' for Inactive)
REMARK    1  A    between atoms: C_1  and  C_7
REMARK    2  A    between atoms: C_4  and  C_21
REMARK    3  A    between atoms: C_5  and  C_25
REMARK    4  A    between atoms: C_8  and  C_13
REMARK    5  A    between atoms: C_25  and  O_26
REMARK                            x       y       z     vdW  Elec       q    Type
REMARK                         _______ _______ _______ _____ _____    ______ ____
ROOT
ATOM      1  C   UNL     1      32.765 -12.327 -22.580  0.00  0.00    +0.000 C 
ATOM      2  C   UNL     1      33.184 -13.119 -21.511  0.00  0.00    +0.005 C 
ATOM      3  C   UNL     1      32.753 -12.850 -23.872  0.00  0.00    +0.006 C 
ATOM      4  C   UNL     1      33.590 -14.434 -21.735  0.00  0.00    +0.053 C 
ATOM      5  C   UNL     1      33.159 -14.166 -24.097  0.00  0.00    +0.076 C 
ATOM      6  C   UNL     1      33.578 -14.957 -23.027  0.00  0.00    +0.011 C 
ENDROOT
BRANCH   1   7
ATOM      7  C   UNL     1      32.343 -10.962 -22.348  0.00  0.00    +0.000 C 
ATOM      8  C   UNL     1      31.533  -8.330 -21.902  0.00  0.00    +0.000 C 
ATOM      9  C   UNL     1      32.789  -9.943 -23.190  0.00  0.00    +0.000 C 
ATOM     10  C   UNL     1      31.492 -10.666 -21.284  0.00  0.00    +0.000 C 
ATOM     11  C   UNL     1      32.384  -8.627 -22.966  0.00  0.00    +0.000 C 
ATOM     12  C   UNL     1      31.087  -9.350 -21.061  0.00  0.00    +0.000 C 
BRANCH   8  13
ATOM     13  C   UNL     1      31.112  -6.965 -21.669  0.00  0.00    +0.000 C 
ATOM     14  C   UNL     1      31.411  -6.340 -20.459  0.00  0.00    +0.000 C 
ATOM     15  C   UNL     1      30.409  -6.276 -22.656  0.00  0.00    +0.000 C 
ATOM     16  C   UNL     1      31.006  -5.024 -20.236  0.00  0.00    +0.000 C 
ATOM     17  C   UNL     1      30.004  -4.960 -22.433  0.00  0.00    +0.000 C 
ATOM     18  C   UNL     1      30.302  -4.333 -21.223  0.00  0.00    +0.000 C 
ENDBRANCH   8  13
ENDBRANCH   1   7
BRANCH   4  21
ATOM     19  O   UNL     1      33.849 -14.903 -19.441  0.00  0.00    -0.270 OA
ATOM     20  N   UNL     1      34.638 -16.475 -20.913  0.00  0.00    -0.325 N 
ATOM     21  C   UNL     1      34.027 -15.260 -20.620  0.00  0.00    +0.243 C 
ATOM     22  H   UNL     1      34.948 -17.060 -20.184  0.00  0.00    +0.145 HD
ATOM     23  H   UNL     1      34.761 -16.750 -21.851  0.00  0.00    +0.145 HD
ENDBRANCH   4  21
BRANCH   5  25
ATOM     24  O   UNL     1      33.139 -14.047 -26.487  0.00  0.00    -0.245 OA
ATOM     25  C   UNL     1      33.147 -14.711 -25.445  0.00  0.00    +0.338 C 
BRANCH  25  26
ATOM     26  O   UNL     1      33.147 -16.073 -25.455  0.00  0.00    -0.477 OA
ATOM     27  H   UNL     1      33.944 -16.543 -25.315  0.00  0.00    +0.295 HD
ENDBRANCH  25  26
ENDBRANCH   5  25
TORSDOF 5
ENDMDL
MODEL 8
REMARK VINA RESULT:     -10.2      8.707     12.479
REMARK  Name = 5287459
REMARK  5 active torsions:
REMARK  status: ('A' for Active; 'I' for Inactive)
REMARK    1  A    between atoms: C_1  and  C_7
REMARK    2  A    between atoms: C_4  and  C_21
REMARK    3  A    between atoms: C_5  and  C_25
REMARK    4  A    between atoms: C_8  and  C_13
REMARK    5  A    between atoms: C_25  and  O_26
REMARK                            x       y       z     vdW  Elec       q    Type
REMARK                         _______ _______ _______ _____ _____    ______ ____
ROOT
ATOM      1  C   UNL     1      33.873 -15.509 -23.120  0.00  0.00    +0.000 C 
ATOM      2  C   UNL     1      34.871 -16.018 -22.290  0.00  0.00    +0.005 C 
ATOM      3  C   UNL     1      33.177 -16.361 -23.977  0.00  0.00    +0.006 C 
ATOM      4  C   UNL     1      35.172 -17.380 -22.315  0.00  0.00    +0.053 C 
ATOM      5  C   UNL     1      33.478 -17.723 -24.003  0.00  0.00    +0.076 C 
ATOM      6  C   UNL     1      34.476 -18.232 -23.172  0.00  0.00    +0.011 C 
ENDROOT
BRANCH   1   7
ATOM      7  C   UNL     1      33.561 -14.096 -23.094  0.00  0.00    +0.000 C 
ATOM      8  C   UNL     1      32.959 -11.373 -23.043  0.00  0.00    +0.000 C 
ATOM      9  C   UNL     1      33.654 -13.383 -21.899  0.00  0.00    +0.000 C 
ATOM     10  C   UNL     1      33.167 -13.447 -24.264  0.00  0.00    +0.000 C 
ATOM     11  C   UNL     1      33.353 -12.022 -21.873  0.00  0.00    +0.000 C 
ATOM     12  C   UNL     1      32.866 -12.085 -24.239  0.00  0.00    +0.000 C 
BRANCH   8  13
ATOM     13  C   UNL     1      32.645  -9.960 -23.017  0.00  0.00    +0.000 C 
ATOM     14  C   UNL     1      31.385  -9.532 -22.601  0.00  0.00    +0.000 C 
ATOM     15  C   UNL     1      33.605  -9.027 -23.408  0.00  0.00    +0.000 C 
ATOM     16  C   UNL     1      31.084  -8.171 -22.576  0.00  0.00    +0.000 C 
ATOM     17  C   UNL     1      33.304  -7.665 -23.384  0.00  0.00    +0.000 C 
ATOM     18  C   UNL     1      32.044  -7.236 -22.968  0.00  0.00    +0.000 C 
ENDBRANCH   8  13
ENDBRANCH   1   7
BRANCH   4  21
ATOM     19  O   UNL     1      36.000 -18.136 -20.243  0.00  0.00    -0.270 OA
ATOM     20  N   UNL     1      37.456 -18.176 -22.015  0.00  0.00    -0.325 N 
ATOM     21  C   UNL     1      36.213 -17.910 -21.449  0.00  0.00    +0.243 C 
ATOM     22  H   UNL     1      38.184 -18.535 -21.459  0.00  0.00    +0.145 HD
ATOM     23  H   UNL     1      37.606 -18.005 -22.973  0.00  0.00    +0.145 HD
ENDBRANCH   4  21
BRANCH   5  25
ATOM     24  O   UNL     1      31.658 -18.369 -25.415  0.00  0.00    -0.245 OA
ATOM     25  C   UNL     1      32.753 -18.611 -24.897  0.00  0.00    +0.338 C 
BRANCH  25  26
ATOM     26  O   UNL     1      33.416 -19.779 -25.121  0.00  0.00    -0.477 OA
ATOM     27  H   UNL     1      34.327 -19.848 -24.914  0.00  0.00    +0.295 HD
ENDBRANCH  25  26
ENDBRANCH   5  25
TORSDOF 5
ENDMDL
MODEL 9
REMARK VINA RESULT:     -10.2     12.382     16.308
REMARK  Name = 5287459
REMARK  5 active torsions:
REMARK  status: ('A' for Active; 'I' for Inactive)
REMARK    1  A    between atoms: C_1  and  C_7
REMARK    2  A    between atoms: C_4  and  C_21
REMARK    3  A    between atoms: C_5  and  C_25
REMARK    4  A    between atoms: C_8  and  C_13
REMARK    5  A    between atoms: C_25  and  O_26
REMARK                            x       y       z     vdW  Elec       q    Type
REMARK                         _______ _______ _______ _____ _____    ______ ____
ROOT
ATOM      1  C   UNL     1      31.944  -9.197 -22.476  0.00  0.00    +0.000 C 
ATOM      2  C   UNL     1      31.897  -8.490 -21.276  0.00  0.00    +0.005 C 
ATOM      3  C   UNL     1      31.550  -8.583 -23.664  0.00  0.00    +0.006 C 
ATOM      4  C   UNL     1      31.457  -7.166 -21.263  0.00  0.00    +0.053 C 
ATOM      5  C   UNL     1      31.108  -7.260 -23.652  0.00  0.00    +0.076 C 
ATOM      6  C   UNL     1      31.062  -6.552 -22.451  0.00  0.00    +0.011 C 
ENDROOT
BRANCH   1   7
ATOM      7  C   UNL     1      32.401 -10.570 -22.489  0.00  0.00    +0.000 C 
ATOM      8  C   UNL     1      33.282 -13.218 -22.513  0.00  0.00    +0.000 C 
ATOM      9  C   UNL     1      32.048 -11.433 -21.451  0.00  0.00    +0.000 C 
ATOM     10  C   UNL     1      33.194 -11.032 -23.539  0.00  0.00    +0.000 C 
ATOM     11  C   UNL     1      32.489 -12.756 -21.462  0.00  0.00    +0.000 C 
ATOM     12  C   UNL     1      33.635 -12.355 -23.551  0.00  0.00    +0.000 C 
BRANCH   8  13
ATOM     13  C   UNL     1      33.740 -14.590 -22.525  0.00  0.00    +0.000 C 
ATOM     14  C   UNL     1      33.791 -15.298 -23.725  0.00  0.00    +0.000 C 
ATOM     15  C   UNL     1      34.131 -15.204 -21.336  0.00  0.00    +0.000 C 
ATOM     16  C   UNL     1      34.233 -16.621 -23.737  0.00  0.00    +0.000 C 
ATOM     17  C   UNL     1      34.573 -16.527 -21.347  0.00  0.00    +0.000 C 
ATOM     18  C   UNL     1      34.624 -17.236 -22.547  0.00  0.00    +0.000 C 
ENDBRANCH   8  13
ENDBRANCH   1   7
BRANCH   4  21
ATOM     19  O   UNL     1      31.447  -7.012 -18.913  0.00  0.00    -0.270 OA
ATOM     20  N   UNL     1      31.332  -5.040 -20.079  0.00  0.00    -0.325 N 
ATOM     21  C   UNL     1      31.407  -6.428 -20.011  0.00  0.00    +0.243 C 
ATOM     22  H   UNL     1      31.296  -4.507 -19.252  0.00  0.00    +0.145 HD
ATOM     23  H   UNL     1      31.314  -4.590 -20.955  0.00  0.00    +0.145 HD
ENDBRANCH   4  21
BRANCH   5  25
ATOM     24  O   UNL     1      30.656  -7.162 -26.000  0.00  0.00    -0.245 OA
ATOM     25  C   UNL     1      30.696  -6.619 -24.891  0.00  0.00    +0.338 C 
BRANCH  25  26
ATOM     26  O   UNL     1      30.345  -5.316 -24.710  0.00  0.00    -0.477 OA
ATOM     27  H   UNL     1      29.475  -5.033 -24.909  0.00  0.00    +0.295 HD
ENDBRANCH  25  26
ENDBRANCH   5  25
TORSDOF 5
ENDMDL
