MODEL 1
REMARK VINA RESULT:     -13.5      0.000      0.000
REMARK  Name = 24864821
REMARK  5 active torsions:
REMARK  status: ('A' for Active; 'I' for Inactive)
REMARK    1  A    between atoms: C_5  and  C_16
REMARK    2  A    between atoms: C_7  and  C_10
REMARK    3  A    between atoms: C_16  and  O_17
REMARK    4  A    between atoms: O_17  and  C_20
REMARK    5  A    between atoms: C_25  and  O_28
REMARK                            x       y       z     vdW  Elec       q    Type
REMARK                         _______ _______ _______ _____ _____    ______ ____
ROOT
ATOM      1  N   UNL     1      35.853 -22.564 -15.438  0.00  0.00    -0.191 N 
ATOM      2  N   UNL     1      34.515 -22.369 -15.538  0.00  0.00    -0.163 NA
ATOM      3  N   UNL     1      38.011 -22.359 -15.758  0.00  0.00    -0.128 NA
ATOM      4  N   UNL     1      37.808 -23.347 -14.817  0.00  0.00    -0.127 NA
ATOM      5  C   UNL     1      36.833 -21.903 -16.119  0.00  0.00    +0.208 A 
ATOM      6  C   UNL     1      36.511 -23.463 -14.630  0.00  0.00    +0.186 A 
ATOM      7  C   UNL     1      33.810 -23.140 -14.758  0.00  0.00    +0.101 C 
ATOM      8  C   UNL     1      35.723 -24.295 -13.812  0.00  0.00    +0.042 C 
ATOM      9  C   UNL     1      34.389 -24.174 -13.841  0.00  0.00    +0.024 C 
ENDROOT
BRANCH   7  10
ATOM     10  C   UNL     1      32.329 -23.018 -14.773  0.00  0.00    +0.019 C 
ATOM     11  C   UNL     1      31.605 -23.158 -13.589  0.00  0.00    +0.002 C 
ATOM     12  C   UNL     1      31.663 -22.761 -15.971  0.00  0.00    +0.002 C 
ATOM     13  C   UNL     1      30.216 -23.042 -13.603  0.00  0.00    +0.000 C 
ATOM     14  C   UNL     1      30.274 -22.644 -15.985  0.00  0.00    +0.000 C 
ATOM     15  C   UNL     1      29.549 -22.785 -14.802  0.00  0.00    +0.000 C 
ENDBRANCH   7  10
BRANCH   5  16
ATOM     16  C   UNL     1      36.550 -20.821 -17.119  0.00  0.00    +0.272 C 
BRANCH  16  17
ATOM     17  O   UNL     1      36.304 -21.417 -18.391  0.00  0.00    -0.467 OA
BRANCH  17  20
ATOM     18  N   UNL     1      32.782 -20.355 -20.305  0.00  0.00    -0.248 NA
ATOM     19  C   UNL     1      35.151 -20.040 -20.004  0.00  0.00    +0.030 C 
ATOM     20  C   UNL     1      35.157 -21.051 -19.033  0.00  0.00    +0.138 C 
ATOM     21  C   UNL     1      33.925 -19.720 -20.622  0.00  0.00    +0.066 C 
ATOM     22  C   UNL     1      36.326 -19.355 -20.360  0.00  0.00    +0.059 C 
ATOM     23  C   UNL     1      33.920 -18.715 -21.586  0.00  0.00    +0.109 C 
ATOM     24  C   UNL     1      33.981 -21.708 -18.704  0.00  0.00    +0.057 C 
ATOM     25  C   UNL     1      35.087 -18.034 -21.941  0.00  0.00    +0.118 C 
ATOM     26  C   UNL     1      36.292 -18.355 -21.327  0.00  0.00    +0.011 C 
ATOM     27  C   UNL     1      32.829 -21.326 -19.364  0.00  0.00    +0.102 C 
BRANCH  25  28
ATOM     28  O   UNL     1      35.043 -17.058 -22.888  0.00  0.00    -0.476 OA
ATOM     29  C   UNL     1      34.551 -15.781 -22.483  0.00  0.00    +0.252 C 
ENDBRANCH  25  28
ENDBRANCH  17  20
ENDBRANCH  16  17
ENDBRANCH   5  16
TORSDOF 5
ENDMDL
MODEL 2
REMARK VINA RESULT:     -12.5      8.108     14.061
REMARK  Name = 24864821
REMARK  5 active torsions:
REMARK  status: ('A' for Active; 'I' for Inactive)
REMARK    1  A    between atoms: C_5  and  C_16
REMARK    2  A    between atoms: C_7  and  C_10
REMARK    3  A    between atoms: C_16  and  O_17
REMARK    4  A    between atoms: O_17  and  C_20
REMARK    5  A    between atoms: C_25  and  O_28
REMARK                            x       y       z     vdW  Elec       q    Type
REMARK                         _______ _______ _______ _____ _____    ______ ____
ROOT
ATOM      1  N   UNL     1      31.715  -8.915 -21.305  0.00  0.00    -0.191 N 
ATOM      2  N   UNL     1      32.063  -8.053 -22.293  0.00  0.00    -0.163 NA
ATOM      3  N   UNL     1      31.230 -10.771 -20.245  0.00  0.00    -0.128 NA
ATOM      4  N   UNL     1      31.142  -9.726 -19.348  0.00  0.00    -0.127 NA
ATOM      5  C   UNL     1      31.572 -10.268 -21.409  0.00  0.00    +0.208 A 
ATOM      6  C   UNL     1      31.435  -8.618 -19.992  0.00  0.00    +0.186 A 
ATOM      7  C   UNL     1      32.132  -6.810 -21.905  0.00  0.00    +0.101 C 
ATOM      8  C   UNL     1      31.500  -7.264 -19.607  0.00  0.00    +0.042 C 
ATOM      9  C   UNL     1      31.837  -6.338 -20.514  0.00  0.00    +0.024 C 
ENDROOT
BRANCH   7  10
ATOM     10  C   UNL     1      32.509  -5.768 -22.895  0.00  0.00    +0.019 C 
ATOM     11  C   UNL     1      31.620  -4.736 -23.196  0.00  0.00    +0.002 C 
ATOM     12  C   UNL     1      33.754  -5.821 -23.523  0.00  0.00    +0.002 C 
ATOM     13  C   UNL     1      31.975  -3.758 -24.124  0.00  0.00    +0.000 C 
ATOM     14  C   UNL     1      34.109  -4.842 -24.451  0.00  0.00    +0.000 C 
ATOM     15  C   UNL     1      33.220  -3.810 -24.752  0.00  0.00    +0.000 C 
ENDBRANCH   7  10
BRANCH   5  16
ATOM     16  C   UNL     1      31.790 -11.020 -22.690  0.00  0.00    +0.272 C 
BRANCH  16  17
ATOM     17  O   UNL     1      32.829 -11.977 -22.496  0.00  0.00    -0.467 OA
BRANCH  17  20
ATOM     18  N   UNL     1      33.299 -14.788 -25.507  0.00  0.00    -0.248 NA
ATOM     19  C   UNL     1      33.523 -14.184 -23.186  0.00  0.00    +0.030 C 
ATOM     20  C   UNL     1      32.993 -12.917 -23.470  0.00  0.00    +0.138 C 
ATOM     21  C   UNL     1      33.660 -15.100 -24.249  0.00  0.00    +0.066 C 
ATOM     22  C   UNL     1      33.911 -14.544 -21.884  0.00  0.00    +0.059 C 
ATOM     23  C   UNL     1      34.187 -16.358 -23.966  0.00  0.00    +0.109 C 
ATOM     24  C   UNL     1      32.619 -12.592 -24.766  0.00  0.00    +0.057 C 
ATOM     25  C   UNL     1      34.573 -16.716 -22.672  0.00  0.00    +0.118 C 
ATOM     26  C   UNL     1      34.435 -15.807 -21.630  0.00  0.00    +0.011 C 
ATOM     27  C   UNL     1      32.791 -13.556 -25.741  0.00  0.00    +0.102 C 
BRANCH  25  28
ATOM     28  O   UNL     1      35.082 -17.955 -22.433  0.00  0.00    -0.476 OA
ATOM     29  C   UNL     1      36.169 -18.044 -21.513  0.00  0.00    +0.252 C 
ENDBRANCH  25  28
ENDBRANCH  17  20
ENDBRANCH  16  17
ENDBRANCH   5  16
TORSDOF 5
ENDMDL
MODEL 3
REMARK VINA RESULT:     -12.2      4.324     10.442
REMARK  Name = 24864821
REMARK  5 active torsions:
REMARK  status: ('A' for Active; 'I' for Inactive)
REMARK    1  A    between atoms: C_5  and  C_16
REMARK    2  A    between atoms: C_7  and  C_10
REMARK    3  A    between atoms: C_16  and  O_17
REMARK    4  A    between atoms: O_17  and  C_20
REMARK    5  A    between atoms: C_25  and  O_28
REMARK                            x       y       z     vdW  Elec       q    Type
REMARK                         _______ _______ _______ _____ _____    ______ ____
ROOT
ATOM      1  N   UNL     1      33.302 -14.424 -23.583  0.00  0.00    -0.191 N 
ATOM      2  N   UNL     1      32.950 -13.578 -22.582  0.00  0.00    -0.163 NA
ATOM      3  N   UNL     1      34.073 -16.180 -24.642  0.00  0.00    -0.128 NA
ATOM      4  N   UNL     1      33.608 -15.281 -25.580  0.00  0.00    -0.127 NA
ATOM      5  C   UNL     1      33.883 -15.651 -23.455  0.00  0.00    +0.208 A 
ATOM      6  C   UNL     1      33.147 -14.232 -24.936  0.00  0.00    +0.186 A 
ATOM      7  C   UNL     1      32.402 -12.471 -22.998  0.00  0.00    +0.101 C 
ATOM      8  C   UNL     1      32.568 -13.018 -25.356  0.00  0.00    +0.042 C 
ATOM      9  C   UNL     1      32.187 -12.120 -24.438  0.00  0.00    +0.024 C 
ENDROOT
BRANCH   7  10
ATOM     10  C   UNL     1      31.968 -11.463 -21.995  0.00  0.00    +0.019 C 
ATOM     11  C   UNL     1      31.912 -11.803 -20.644  0.00  0.00    +0.002 C 
ATOM     12  C   UNL     1      31.619 -10.177 -22.406  0.00  0.00    +0.002 C 
ATOM     13  C   UNL     1      31.506 -10.856 -19.703  0.00  0.00    +0.000 C 
ATOM     14  C   UNL     1      31.213  -9.230 -21.465  0.00  0.00    +0.000 C 
ATOM     15  C   UNL     1      31.156  -9.569 -20.113  0.00  0.00    +0.000 C 
ENDBRANCH   7  10
BRANCH   5  16
ATOM     16  C   UNL     1      34.230 -16.260 -22.128  0.00  0.00    +0.272 C 
BRANCH  16  17
ATOM     17  O   UNL     1      33.923 -17.652 -22.160  0.00  0.00    -0.467 OA
BRANCH  17  20
ATOM     18  N   UNL     1      36.236 -20.095 -19.737  0.00  0.00    -0.248 NA
ATOM     19  C   UNL     1      34.070 -19.483 -20.594  0.00  0.00    +0.030 C 
ATOM     20  C   UNL     1      34.664 -18.467 -21.356  0.00  0.00    +0.138 C 
ATOM     21  C   UNL     1      34.905 -20.283 -19.787  0.00  0.00    +0.066 C 
ATOM     22  C   UNL     1      32.683 -19.708 -20.622  0.00  0.00    +0.059 C 
ATOM     23  C   UNL     1      34.314 -21.291 -19.030  0.00  0.00    +0.109 C 
ATOM     24  C   UNL     1      36.036 -18.270 -21.307  0.00  0.00    +0.057 C 
ATOM     25  C   UNL     1      32.935 -21.515 -19.058  0.00  0.00    +0.118 C 
ATOM     26  C   UNL     1      32.118 -20.722 -19.855  0.00  0.00    +0.011 C 
ATOM     27  C   UNL     1      36.771 -19.105 -20.488  0.00  0.00    +0.102 C 
BRANCH  25  28
ATOM     28  O   UNL     1      32.393 -22.511 -18.305  0.00  0.00    -0.476 OA
ATOM     29  C   UNL     1      32.916 -22.688 -16.989  0.00  0.00    +0.252 C 
ENDBRANCH  25  28
ENDBRANCH  17  20
ENDBRANCH  16  17
ENDBRANCH   5  16
TORSDOF 5
ENDMDL
MODEL 4
REMARK VINA RESULT:     -12.2      2.575      5.514
REMARK  Name = 24864821
REMARK  5 active torsions:
REMARK  status: ('A' for Active; 'I' for Inactive)
REMARK    1  A    between atoms: C_5  and  C_16
REMARK    2  A    between atoms: C_7  and  C_10
REMARK    3  A    between atoms: C_16  and  O_17
REMARK    4  A    between atoms: O_17  and  C_20
REMARK    5  A    between atoms: C_25  and  O_28
REMARK                            x       y       z     vdW  Elec       q    Type
REMARK                         _______ _______ _______ _____ _____    ______ ____
ROOT
ATOM      1  N   UNL     1      33.928 -20.745 -19.190  0.00  0.00    -0.191 N 
ATOM      2  N   UNL     1      34.951 -21.101 -18.373  0.00  0.00    -0.163 NA
ATOM      3  N   UNL     1      32.802 -19.808 -20.819  0.00  0.00    -0.128 NA
ATOM      4  N   UNL     1      31.930 -20.584 -20.084  0.00  0.00    -0.127 NA
ATOM      5  C   UNL     1      33.991 -19.915 -20.271  0.00  0.00    +0.208 A 
ATOM      6  C   UNL     1      32.614 -21.143 -19.110  0.00  0.00    +0.186 A 
ATOM      7  C   UNL     1      34.603 -21.919 -17.420  0.00  0.00    +0.101 C 
ATOM      8  C   UNL     1      32.264 -22.013 -18.058  0.00  0.00    +0.042 C 
ATOM      9  C   UNL     1      33.209 -22.421 -17.201  0.00  0.00    +0.024 C 
ENDROOT
BRANCH   7  10
ATOM     10  C   UNL     1      35.638 -22.387 -16.461  0.00  0.00    +0.019 C 
ATOM     11  C   UNL     1      35.300 -23.298 -15.460  0.00  0.00    +0.002 C 
ATOM     12  C   UNL     1      36.947 -21.916 -16.563  0.00  0.00    +0.002 C 
ATOM     13  C   UNL     1      36.272 -23.738 -14.562  0.00  0.00    +0.000 C 
ATOM     14  C   UNL     1      37.918 -22.356 -15.664  0.00  0.00    +0.000 C 
ATOM     15  C   UNL     1      37.581 -23.267 -14.663  0.00  0.00    +0.000 C 
ENDBRANCH   7  10
BRANCH   5  16
ATOM     16  C   UNL     1      35.258 -19.250 -20.723  0.00  0.00    +0.272 C 
BRANCH  16  17
ATOM     17  O   UNL     1      35.072 -17.836 -20.709  0.00  0.00    -0.467 OA
BRANCH  17  20
ATOM     18  N   UNL     1      33.949 -16.122 -24.313  0.00  0.00    -0.248 NA
ATOM     19  C   UNL     1      34.256 -15.922 -21.932  0.00  0.00    +0.030 C 
ATOM     20  C   UNL     1      34.698 -17.252 -21.883  0.00  0.00    +0.138 C 
ATOM     21  C   UNL     1      33.886 -15.391 -23.185  0.00  0.00    +0.066 C 
ATOM     22  C   UNL     1      34.178 -15.129 -20.774  0.00  0.00    +0.059 C 
ATOM     23  C   UNL     1      33.448 -14.070 -23.233  0.00  0.00    +0.109 C 
ATOM     24  C   UNL     1      34.763 -18.008 -23.044  0.00  0.00    +0.057 C 
ATOM     25  C   UNL     1      33.370 -13.282 -22.082  0.00  0.00    +0.118 C 
ATOM     26  C   UNL     1      33.736 -13.812 -20.851  0.00  0.00    +0.011 C 
ATOM     27  C   UNL     1      34.380 -17.401 -24.224  0.00  0.00    +0.102 C 
BRANCH  25  28
ATOM     28  O   UNL     1      32.938 -11.994 -22.168  0.00  0.00    -0.476 OA
ATOM     29  C   UNL     1      33.126 -11.328 -23.417  0.00  0.00    +0.252 C 
ENDBRANCH  25  28
ENDBRANCH  17  20
ENDBRANCH  16  17
ENDBRANCH   5  16
TORSDOF 5
ENDMDL
MODEL 5
REMARK VINA RESULT:     -11.9      3.011      8.489
REMARK  Name = 24864821
REMARK  5 active torsions:
REMARK  status: ('A' for Active; 'I' for Inactive)
REMARK    1  A    between atoms: C_5  and  C_16
REMARK    2  A    between atoms: C_7  and  C_10
REMARK    3  A    between atoms: C_16  and  O_17
REMARK    4  A    between atoms: O_17  and  C_20
REMARK    5  A    between atoms: C_25  and  O_28
REMARK                            x       y       z     vdW  Elec       q    Type
REMARK                         _______ _______ _______ _____ _____    ______ ____
ROOT
ATOM      1  N   UNL     1      34.945 -21.696 -17.825  0.00  0.00    -0.191 N 
ATOM      2  N   UNL     1      35.369 -20.841 -18.789  0.00  0.00    -0.163 NA
ATOM      3  N   UNL     1      34.941 -23.015 -16.074  0.00  0.00    -0.128 NA
ATOM      4  N   UNL     1      33.666 -22.994 -16.601  0.00  0.00    -0.127 NA
ATOM      5  C   UNL     1      35.692 -22.234 -16.818  0.00  0.00    +0.208 A 
ATOM      6  C   UNL     1      33.677 -22.200 -17.650  0.00  0.00    +0.186 A 
ATOM      7  C   UNL     1      34.432 -20.480 -19.620  0.00  0.00    +0.101 C 
ATOM      8  C   UNL     1      32.690 -21.806 -18.574  0.00  0.00    +0.042 C 
ATOM      9  C   UNL     1      33.014 -20.962 -19.562  0.00  0.00    +0.024 C 
ENDROOT
BRANCH   7  10
ATOM     10  C   UNL     1      34.770 -19.540 -20.721  0.00  0.00    +0.019 C 
ATOM     11  C   UNL     1      36.007 -18.895 -20.732  0.00  0.00    +0.002 C 
ATOM     12  C   UNL     1      33.851 -19.304 -21.743  0.00  0.00    +0.002 C 
ATOM     13  C   UNL     1      36.325 -18.015 -21.766  0.00  0.00    +0.000 C 
ATOM     14  C   UNL     1      34.169 -18.424 -22.777  0.00  0.00    +0.000 C 
ATOM     15  C   UNL     1      35.406 -17.778 -22.789  0.00  0.00    +0.000 C 
ENDBRANCH   7  10
BRANCH   5  16
ATOM     16  C   UNL     1      37.153 -21.942 -16.634  0.00  0.00    +0.272 C 
BRANCH  16  17
ATOM     17  O   UNL     1      37.451 -21.924 -15.239  0.00  0.00    -0.467 OA
BRANCH  17  20
ATOM     18  N   UNL     1      38.401 -25.573 -13.516  0.00  0.00    -0.248 NA
ATOM     19  C   UNL     1      37.073 -23.563 -13.508  0.00  0.00    +0.030 C 
ATOM     20  C   UNL     1      37.747 -23.120 -14.655  0.00  0.00    +0.138 C 
ATOM     21  C   UNL     1      37.438 -24.812 -12.964  0.00  0.00    +0.066 C 
ATOM     22  C   UNL     1      36.062 -22.794 -12.906  0.00  0.00    +0.059 C 
ATOM     23  C   UNL     1      36.769 -25.250 -11.825  0.00  0.00    +0.109 C 
ATOM     24  C   UNL     1      38.740 -23.902 -15.226  0.00  0.00    +0.057 C 
ATOM     25  C   UNL     1      35.764 -24.487 -11.226  0.00  0.00    +0.118 C 
ATOM     26  C   UNL     1      35.410 -23.257 -11.768  0.00  0.00    +0.011 C 
ATOM     27  C   UNL     1      39.027 -25.111 -14.622  0.00  0.00    +0.102 C 
BRANCH  25  28
ATOM     28  O   UNL     1      35.130 -24.949 -10.114  0.00  0.00    -0.476 OA
ATOM     29  C   UNL     1      35.004 -24.046  -9.016  0.00  0.00    +0.252 C 
ENDBRANCH  25  28
ENDBRANCH  17  20
ENDBRANCH  16  17
ENDBRANCH   5  16
TORSDOF 5
ENDMDL
MODEL 6
REMARK VINA RESULT:     -11.6      2.809      6.690
REMARK  Name = 24864821
REMARK  5 active torsions:
REMARK  status: ('A' for Active; 'I' for Inactive)
REMARK    1  A    between atoms: C_5  and  C_16
REMARK    2  A    between atoms: C_7  and  C_10
REMARK    3  A    between atoms: C_16  and  O_17
REMARK    4  A    between atoms: O_17  and  C_20
REMARK    5  A    between atoms: C_25  and  O_28
REMARK                            x       y       z     vdW  Elec       q    Type
REMARK                         _______ _______ _______ _____ _____    ______ ____
ROOT
ATOM      1  N   UNL     1      35.685 -22.983 -15.480  0.00  0.00    -0.191 N 
ATOM      2  N   UNL     1      34.883 -22.555 -16.486  0.00  0.00    -0.163 NA
ATOM      3  N   UNL     1      36.387 -24.028 -13.686  0.00  0.00    -0.128 NA
ATOM      4  N   UNL     1      37.431 -23.274 -14.182  0.00  0.00    -0.127 NA
ATOM      5  C   UNL     1      35.352 -23.842 -14.473  0.00  0.00    +0.208 A 
ATOM      6  C   UNL     1      37.001 -22.652 -15.258  0.00  0.00    +0.186 A 
ATOM      7  C   UNL     1      35.471 -21.740 -17.317  0.00  0.00    +0.101 C 
ATOM      8  C   UNL     1      37.604 -21.755 -16.161  0.00  0.00    +0.042 C 
ATOM      9  C   UNL     1      36.891 -21.279 -17.190  0.00  0.00    +0.024 C 
ENDROOT
BRANCH   7  10
ATOM     10  C   UNL     1      34.697 -21.204 -18.467  0.00  0.00    +0.019 C 
ATOM     11  C   UNL     1      33.322 -21.421 -18.545  0.00  0.00    +0.002 C 
ATOM     12  C   UNL     1      35.347 -20.481 -19.468  0.00  0.00    +0.002 C 
ATOM     13  C   UNL     1      32.596 -20.916 -19.623  0.00  0.00    +0.000 C 
ATOM     14  C   UNL     1      34.621 -19.976 -20.546  0.00  0.00    +0.000 C 
ATOM     15  C   UNL     1      33.245 -20.193 -20.625  0.00  0.00    +0.000 C 
ENDBRANCH   7  10
BRANCH   5  16
ATOM     16  C   UNL     1      33.989 -24.455 -14.335  0.00  0.00    +0.272 C 
BRANCH  16  17
ATOM     17  O   UNL     1      33.007 -23.423 -14.397  0.00  0.00    -0.467 OA
BRANCH  17  20
ATOM     18  N   UNL     1      29.114 -24.548 -13.519  0.00  0.00    -0.248 NA
ATOM     19  C   UNL     1      30.653 -23.337 -14.922  0.00  0.00    +0.030 C 
ATOM     20  C   UNL     1      31.719 -23.780 -14.127  0.00  0.00    +0.138 C 
ATOM     21  C   UNL     1      29.349 -23.751 -14.577  0.00  0.00    +0.066 C 
ATOM     22  C   UNL     1      30.861 -22.504 -16.035  0.00  0.00    +0.059 C 
ATOM     23  C   UNL     1      28.291 -23.310 -15.367  0.00  0.00    +0.109 C 
ATOM     24  C   UNL     1      31.479 -24.602 -13.035  0.00  0.00    +0.057 C 
ATOM     25  C   UNL     1      28.498 -22.482 -16.473  0.00  0.00    +0.118 C 
ATOM     26  C   UNL     1      29.785 -22.078 -16.807  0.00  0.00    +0.011 C 
ATOM     27  C   UNL     1      30.169 -24.955 -12.776  0.00  0.00    +0.102 C 
BRANCH  25  28
ATOM     28  O   UNL     1      27.439 -22.073 -17.224  0.00  0.00    -0.476 OA
ATOM     29  C   UNL     1      26.290 -21.601 -16.521  0.00  0.00    +0.252 C 
ENDBRANCH  25  28
ENDBRANCH  17  20
ENDBRANCH  16  17
ENDBRANCH   5  16
TORSDOF 5
ENDMDL
MODEL 7
REMARK VINA RESULT:     -11.6      5.876     10.550
REMARK  Name = 24864821
REMARK  5 active torsions:
REMARK  status: ('A' for Active; 'I' for Inactive)
REMARK    1  A    between atoms: C_5  and  C_16
REMARK    2  A    between atoms: C_7  and  C_10
REMARK    3  A    between atoms: C_16  and  O_17
REMARK    4  A    between atoms: O_17  and  C_20
REMARK    5  A    between atoms: C_25  and  O_28
REMARK                            x       y       z     vdW  Elec       q    Type
REMARK                         _______ _______ _______ _____ _____    ______ ____
ROOT
ATOM      1  N   UNL     1      33.741 -15.854 -23.473  0.00  0.00    -0.191 N 
ATOM      2  N   UNL     1      34.187 -16.548 -22.396  0.00  0.00    -0.163 NA
ATOM      3  N   UNL     1      33.129 -14.193 -24.764  0.00  0.00    -0.128 NA
ATOM      4  N   UNL     1      32.995 -15.365 -25.479  0.00  0.00    -0.127 NA
ATOM      5  C   UNL     1      33.575 -14.503 -23.568  0.00  0.00    +0.208 A 
ATOM      6  C   UNL     1      33.364 -16.356 -24.697  0.00  0.00    +0.186 A 
ATOM      7  C   UNL     1      34.254 -17.836 -22.591  0.00  0.00    +0.101 C 
ATOM      8  C   UNL     1      33.430 -17.752 -24.872  0.00  0.00    +0.042 C 
ATOM      9  C   UNL     1      33.860 -18.522 -23.864  0.00  0.00    +0.024 C 
ENDROOT
BRANCH   7  10
ATOM     10  C   UNL     1      34.733 -18.706 -21.486  0.00  0.00    +0.019 C 
ATOM     11  C   UNL     1      33.871 -19.637 -20.908  0.00  0.00    +0.002 C 
ATOM     12  C   UNL     1      36.046 -18.593 -21.029  0.00  0.00    +0.002 C 
ATOM     13  C   UNL     1      34.321 -20.455 -19.872  0.00  0.00    +0.000 C 
ATOM     14  C   UNL     1      36.496 -19.411 -19.993  0.00  0.00    +0.000 C 
ATOM     15  C   UNL     1      35.634 -20.342 -19.413  0.00  0.00    +0.000 C 
ENDBRANCH   7  10
BRANCH   5  16
ATOM     16  C   UNL     1      33.876 -13.559 -22.442  0.00  0.00    +0.272 C 
BRANCH  16  17
ATOM     17  O   UNL     1      33.790 -12.219 -22.923  0.00  0.00    -0.467 OA
BRANCH  17  20
ATOM     18  N   UNL     1      30.538 -10.019 -21.591  0.00  0.00    -0.248 NA
ATOM     19  C   UNL     1      32.674 -10.090 -22.703  0.00  0.00    +0.030 C 
ATOM     20  C   UNL     1      32.731 -11.475 -22.494  0.00  0.00    +0.138 C 
ATOM     21  C   UNL     1      31.544  -9.392 -22.228  0.00  0.00    +0.066 C 
ATOM     22  C   UNL     1      33.706  -9.403 -23.364  0.00  0.00    +0.059 C 
ATOM     23  C   UNL     1      31.489  -8.016 -22.436  0.00  0.00    +0.109 C 
ATOM     24  C   UNL     1      31.695 -12.124 -21.837  0.00  0.00    +0.057 C 
ATOM     25  C   UNL     1      32.515  -7.333 -23.093  0.00  0.00    +0.118 C 
ATOM     26  C   UNL     1      33.625  -8.028 -23.558  0.00  0.00    +0.011 C 
ATOM     27  C   UNL     1      30.630 -11.356 -21.409  0.00  0.00    +0.102 C 
BRANCH  25  28
ATOM     28  O   UNL     1      32.425  -5.988 -23.279  0.00  0.00    -0.476 OA
ATOM     29  C   UNL     1      32.253  -5.181 -22.114  0.00  0.00    +0.252 C 
ENDBRANCH  25  28
ENDBRANCH  17  20
ENDBRANCH  16  17
ENDBRANCH   5  16
TORSDOF 5
ENDMDL
MODEL 8
REMARK VINA RESULT:     -11.4      1.870      4.287
REMARK  Name = 24864821
REMARK  5 active torsions:
REMARK  status: ('A' for Active; 'I' for Inactive)
REMARK    1  A    between atoms: C_5  and  C_16
REMARK    2  A    between atoms: C_7  and  C_10
REMARK    3  A    between atoms: C_16  and  O_17
REMARK    4  A    between atoms: O_17  and  C_20
REMARK    5  A    between atoms: C_25  and  O_28
REMARK                            x       y       z     vdW  Elec       q    Type
REMARK                         _______ _______ _______ _____ _____    ______ ____
ROOT
ATOM      1  N   UNL     1      33.123 -22.950 -16.612  0.00  0.00    -0.191 N 
ATOM      2  N   UNL     1      34.318 -23.467 -16.232  0.00  0.00    -0.163 NA
ATOM      3  N   UNL     1      31.540 -22.068 -17.844  0.00  0.00    -0.128 NA
ATOM      4  N   UNL     1      31.043 -22.251 -16.569  0.00  0.00    -0.127 NA
ATOM      5  C   UNL     1      32.784 -22.490 -17.850  0.00  0.00    +0.208 A 
ATOM      6  C   UNL     1      31.999 -22.781 -15.838  0.00  0.00    +0.186 A 
ATOM      7  C   UNL     1      34.358 -23.837 -14.982  0.00  0.00    +0.101 C 
ATOM      8  C   UNL     1      32.077 -23.172 -14.487  0.00  0.00    +0.042 C 
ATOM      9  C   UNL     1      33.218 -23.696 -14.020  0.00  0.00    +0.024 C 
ENDROOT
BRANCH   7  10
ATOM     10  C   UNL     1      35.613 -24.424 -14.445  0.00  0.00    +0.019 C 
ATOM     11  C   UNL     1      36.386 -23.705 -13.535  0.00  0.00    +0.002 C 
ATOM     12  C   UNL     1      36.017 -25.696 -14.852  0.00  0.00    +0.002 C 
ATOM     13  C   UNL     1      37.563 -24.257 -13.030  0.00  0.00    +0.000 C 
ATOM     14  C   UNL     1      37.194 -26.248 -14.347  0.00  0.00    +0.000 C 
ATOM     15  C   UNL     1      37.968 -25.529 -13.437  0.00  0.00    +0.000 C 
ENDBRANCH   7  10
BRANCH   5  16
ATOM     16  C   UNL     1      33.731 -22.493 -19.014  0.00  0.00    +0.272 C 
BRANCH  16  17
ATOM     17  O   UNL     1      33.475 -21.347 -19.825  0.00  0.00    -0.467 OA
BRANCH  17  20
ATOM     18  N   UNL     1      36.617 -18.674 -20.235  0.00  0.00    -0.248 NA
ATOM     19  C   UNL     1      34.489 -19.501 -21.003  0.00  0.00    +0.030 C 
ATOM     20  C   UNL     1      34.497 -20.458 -19.979  0.00  0.00    +0.138 C 
ATOM     21  C   UNL     1      35.584 -18.617 -21.096  0.00  0.00    +0.066 C 
ATOM     22  C   UNL     1      33.427 -19.414 -21.920  0.00  0.00    +0.059 C 
ATOM     23  C   UNL     1      35.575 -17.668 -22.114  0.00  0.00    +0.109 C 
ATOM     24  C   UNL     1      35.561 -20.519 -19.090  0.00  0.00    +0.057 C 
ATOM     25  C   UNL     1      34.520 -17.580 -23.025  0.00  0.00    +0.118 C 
ATOM     26  C   UNL     1      33.444 -18.455 -22.928  0.00  0.00    +0.011 C 
ATOM     27  C   UNL     1      36.587 -19.611 -19.260  0.00  0.00    +0.102 C 
BRANCH  25  28
ATOM     28  O   UNL     1      34.546 -16.638 -24.006  0.00  0.00    -0.476 OA
ATOM     29  C   UNL     1      33.853 -15.416 -23.750  0.00  0.00    +0.252 C 
ENDBRANCH  25  28
ENDBRANCH  17  20
ENDBRANCH  16  17
ENDBRANCH   5  16
TORSDOF 5
ENDMDL
MODEL 9
REMARK VINA RESULT:     -11.4      6.600     11.347
REMARK  Name = 24864821
REMARK  5 active torsions:
REMARK  status: ('A' for Active; 'I' for Inactive)
REMARK    1  A    between atoms: C_5  and  C_16
REMARK    2  A    between atoms: C_7  and  C_10
REMARK    3  A    between atoms: C_16  and  O_17
REMARK    4  A    between atoms: O_17  and  C_20
REMARK    5  A    between atoms: C_25  and  O_28
REMARK                            x       y       z     vdW  Elec       q    Type
REMARK                         _______ _______ _______ _____ _____    ______ ____
ROOT
ATOM      1  N   UNL     1      33.344 -14.493 -23.204  0.00  0.00    -0.191 N 
ATOM      2  N   UNL     1      33.778 -15.410 -22.303  0.00  0.00    -0.163 NA
ATOM      3  N   UNL     1      32.546 -12.641 -24.061  0.00  0.00    -0.128 NA
ATOM      4  N   UNL     1      32.818 -13.512 -25.095  0.00  0.00    -0.127 NA
ATOM      5  C   UNL     1      32.866 -13.243 -22.938  0.00  0.00    +0.208 A 
ATOM      6  C   UNL     1      33.297 -14.620 -24.572  0.00  0.00    +0.186 A 
ATOM      7  C   UNL     1      34.192 -16.522 -22.842  0.00  0.00    +0.101 C 
ATOM      8  C   UNL     1      33.734 -15.840 -25.125  0.00  0.00    +0.042 C 
ATOM      9  C   UNL     1      34.181 -16.806 -24.313  0.00  0.00    +0.024 C 
ENDROOT
BRANCH   7  10
ATOM     10  C   UNL     1      34.696 -17.606 -21.959  0.00  0.00    +0.019 C 
ATOM     11  C   UNL     1      33.822 -18.582 -21.482  0.00  0.00    +0.002 C 
ATOM     12  C   UNL     1      36.046 -17.647 -21.607  0.00  0.00    +0.002 C 
ATOM     13  C   UNL     1      34.296 -19.599 -20.655  0.00  0.00    +0.000 C 
ATOM     14  C   UNL     1      36.520 -18.664 -20.780  0.00  0.00    +0.000 C 
ATOM     15  C   UNL     1      35.646 -19.641 -20.303  0.00  0.00    +0.000 C 
ENDBRANCH   7  10
BRANCH   5  16
ATOM     16  C   UNL     1      32.746 -12.689 -21.548  0.00  0.00    +0.272 C 
BRANCH  16  17
ATOM     17  O   UNL     1      31.503 -12.000 -21.429  0.00  0.00    -0.467 OA
BRANCH  17  20
ATOM     18  N   UNL     1      31.545  -8.436 -19.310  0.00  0.00    -0.248 NA
ATOM     19  C   UNL     1      31.513  -9.586 -21.427  0.00  0.00    +0.030 C 
ATOM     20  C   UNL     1      31.517 -10.815 -20.753  0.00  0.00    +0.138 C 
ATOM     21  C   UNL     1      31.528  -8.405 -20.656  0.00  0.00    +0.066 C 
ATOM     22  C   UNL     1      31.496  -9.516 -22.830  0.00  0.00    +0.059 C 
ATOM     23  C   UNL     1      31.525  -7.185 -21.326  0.00  0.00    +0.109 C 
ATOM     24  C   UNL     1      31.534 -10.850 -19.366  0.00  0.00    +0.057 C 
ATOM     25  C   UNL     1      31.508  -7.116 -22.721  0.00  0.00    +0.118 C 
ATOM     26  C   UNL     1      31.494  -8.283 -23.474  0.00  0.00    +0.011 C 
ATOM     27  C   UNL     1      31.547  -9.642 -18.697  0.00  0.00    +0.102 C 
BRANCH  25  28
ATOM     28  O   UNL     1      31.504  -5.904 -23.341  0.00  0.00    -0.476 OA
ATOM     29  C   UNL     1      31.861  -4.769 -22.552  0.00  0.00    +0.252 C 
ENDBRANCH  25  28
ENDBRANCH  17  20
ENDBRANCH  16  17
ENDBRANCH   5  16
TORSDOF 5
ENDMDL
