MODEL 1
REMARK VINA RESULT:     -13.2      0.000      0.000
REMARK  Name = 49831257
REMARK  4 active torsions:
REMARK  status: ('A' for Active; 'I' for Inactive)
REMARK    1  A    between atoms: C_1  and  C_23
REMARK    2  A    between atoms: C_4  and  C_14
REMARK    3  A    between atoms: C_12  and  C_20
REMARK    4  A    between atoms: C_23  and  N_27
REMARK                            x       y       z     vdW  Elec       q    Type
REMARK                         _______ _______ _______ _____ _____    ______ ____
ROOT
ATOM      1  C   UNL     1      34.544 -19.909 -20.835  0.00  0.00    -0.043 C 
ATOM      2  C   UNL     1      35.433 -20.570 -19.989  0.00  0.00    -0.006 C 
ATOM      3  C   UNL     1      33.174 -19.942 -20.570  0.00  0.00    -0.006 C 
ATOM      4  C   UNL     1      33.584 -21.299 -18.615  0.00  0.00    +0.016 C 
ATOM      5  C   UNL     1      34.954 -21.266 -18.879  0.00  0.00    +0.001 C 
ATOM      6  C   UNL     1      32.694 -20.637 -19.461  0.00  0.00    +0.001 C 
ENDROOT
BRANCH   4  14
ATOM      7  O   UNL     1      36.527 -24.893 -12.989  0.00  0.00    -0.274 OA
ATOM      8  N   UNL     1      36.851 -23.629 -14.953  0.00  0.00    -0.217 N 
ATOM      9  N   UNL     1      33.947 -22.638 -16.512  0.00  0.00    -0.152 N 
ATOM     10  N   UNL     1      35.307 -22.644 -16.488  0.00  0.00    -0.092 NA
ATOM     11  N   UNL     1      34.499 -23.805 -14.696  0.00  0.00    -0.319 NA
ATOM     12  C   UNL     1      37.249 -24.357 -13.818  0.00  0.00    +0.234 C 
ATOM     13  C   UNL     1      35.574 -23.353 -15.393  0.00  0.00    +0.167 C 
ATOM     14  C   UNL     1      33.077 -22.035 -17.444  0.00  0.00    +0.077 C 
ATOM     15  C   UNL     1      33.484 -23.353 -15.398  0.00  0.00    +0.219 C 
ATOM     16  C   UNL     1      31.746 -22.156 -17.251  0.00  0.00    +0.017 C 
ATOM     17  C   UNL     1      32.079 -23.465 -15.217  0.00  0.00    +0.051 C 
ATOM     18  C   UNL     1      31.246 -22.892 -16.102  0.00  0.00    +0.005 C 
ATOM     19  H   UNL     1      37.581 -23.269 -15.508  0.00  0.00    +0.167 HD
BRANCH  12  20
ATOM     20  C   UNL     1      38.732 -24.464 -13.642  0.00  0.00    +0.077 C 
ATOM     21  C   UNL     1      39.597 -24.657 -14.852  0.00  0.00    +0.010 C 
ATOM     22  C   UNL     1      39.403 -25.785 -13.881  0.00  0.00    +0.010 C 
ENDBRANCH  12  20
ENDBRANCH   4  14
BRANCH   1  23
ATOM     23  C   UNL     1      35.061 -19.156 -22.032  0.00  0.00    -0.050 C 
BRANCH  23  27
ATOM     24  S   UNL     1      33.819 -15.015 -23.335  0.00  0.00    -0.014 S 
ATOM     25  O   UNL     1      32.731 -14.059 -23.291  0.00  0.00    -0.173 OA
ATOM     26  O   UNL     1      35.064 -14.701 -24.009  0.00  0.00    -0.173 OA
ATOM     27  N   UNL     1      34.313 -17.916 -22.260  0.00  0.00    +0.392 N 
ATOM     28  C   UNL     1      34.122 -17.706 -23.706  0.00  0.00    -0.051 C 
ATOM     29  C   UNL     1      35.015 -16.786 -21.630  0.00  0.00    -0.051 C 
ATOM     30  C   UNL     1      34.193 -15.502 -21.668  0.00  0.00    +0.128 C 
ATOM     31  C   UNL     1      33.189 -16.537 -24.000  0.00  0.00    +0.128 C 
ATOM     32  H   UNL     1      33.390 -17.986 -21.833  0.00  0.00    -0.079 HD
ENDBRANCH  23  27
ENDBRANCH   1  23
TORSDOF 4
ENDMDL
MODEL 2
REMARK VINA RESULT:     -12.5      4.421     11.167
REMARK  Name = 49831257
REMARK  4 active torsions:
REMARK  status: ('A' for Active; 'I' for Inactive)
REMARK    1  A    between atoms: C_1  and  C_23
REMARK    2  A    between atoms: C_4  and  C_14
REMARK    3  A    between atoms: C_12  and  C_20
REMARK    4  A    between atoms: C_23  and  N_27
REMARK                            x       y       z     vdW  Elec       q    Type
REMARK                         _______ _______ _______ _____ _____    ______ ____
ROOT
ATOM      1  C   UNL     1      35.363 -18.355 -21.421  0.00  0.00    -0.043 C 
ATOM      2  C   UNL     1      35.052 -18.555 -22.765  0.00  0.00    -0.006 C 
ATOM      3  C   UNL     1      35.122 -17.116 -20.826  0.00  0.00    -0.006 C 
ATOM      4  C   UNL     1      34.261 -16.278 -22.922  0.00  0.00    +0.016 C 
ATOM      5  C   UNL     1      34.502 -17.517 -23.516  0.00  0.00    +0.001 C 
ATOM      6  C   UNL     1      34.571 -16.077 -21.576  0.00  0.00    +0.001 C 
ENDROOT
BRANCH   4  14
ATOM      7  O   UNL     1      30.995  -9.913 -21.488  0.00  0.00    -0.274 OA
ATOM      8  N   UNL     1      32.039 -11.863 -20.668  0.00  0.00    -0.217 N 
ATOM      9  N   UNL     1      33.103 -14.048 -23.105  0.00  0.00    -0.152 N 
ATOM     10  N   UNL     1      32.992 -13.750 -21.782  0.00  0.00    -0.092 NA
ATOM     11  N   UNL     1      32.073 -12.074 -23.032  0.00  0.00    -0.319 NA
ATOM     12  C   UNL     1      31.392 -10.618 -20.570  0.00  0.00    +0.234 C 
ATOM     13  C   UNL     1      32.372 -12.572 -21.803  0.00  0.00    +0.167 C 
ATOM     14  C   UNL     1      33.681 -15.181 -23.715  0.00  0.00    +0.077 C 
ATOM     15  C   UNL     1      32.534 -13.000 -23.843  0.00  0.00    +0.219 C 
ATOM     16  C   UNL     1      33.683 -15.252 -25.064  0.00  0.00    +0.017 C 
ATOM     17  C   UNL     1      32.550 -13.098 -25.260  0.00  0.00    +0.051 C 
ATOM     18  C   UNL     1      33.101 -14.175 -25.846  0.00  0.00    +0.005 C 
ATOM     19  H   UNL     1      32.287 -12.285 -19.813  0.00  0.00    +0.167 HD
BRANCH  12  20
ATOM     20  C   UNL     1      31.187 -10.138 -19.167  0.00  0.00    +0.077 C 
ATOM     21  C   UNL     1      30.810  -8.704 -18.935  0.00  0.00    +0.010 C 
ATOM     22  C   UNL     1      32.182  -9.189 -18.566  0.00  0.00    +0.010 C 
ENDBRANCH  12  20
ENDBRANCH   4  14
BRANCH   1  23
ATOM     23  C   UNL     1      35.956 -19.476 -20.609  0.00  0.00    -0.050 C 
BRANCH  23  27
ATOM     24  S   UNL     1      33.118 -22.196 -18.386  0.00  0.00    -0.014 S 
ATOM     25  O   UNL     1      32.215 -22.259 -17.255  0.00  0.00    -0.173 OA
ATOM     26  O   UNL     1      33.317 -23.343 -19.251  0.00  0.00    -0.173 OA
ATOM     27  N   UNL     1      34.990 -20.026 -19.653  0.00  0.00    +0.392 N 
ATOM     28  C   UNL     1      35.590 -21.164 -18.935  0.00  0.00    -0.051 C 
ATOM     29  C   UNL     1      33.755 -20.411 -20.357  0.00  0.00    -0.051 C 
ATOM     30  C   UNL     1      32.644 -20.811 -19.393  0.00  0.00    +0.128 C 
ATOM     31  C   UNL     1      34.705 -21.657 -17.795  0.00  0.00    +0.128 C 
ATOM     32  H   UNL     1      34.746 -19.317 -18.962  0.00  0.00    -0.079 HD
ENDBRANCH  23  27
ENDBRANCH   1  23
TORSDOF 4
ENDMDL
MODEL 3
REMARK VINA RESULT:     -11.9      2.497      5.156
REMARK  Name = 49831257
REMARK  4 active torsions:
REMARK  status: ('A' for Active; 'I' for Inactive)
REMARK    1  A    between atoms: C_1  and  C_23
REMARK    2  A    between atoms: C_4  and  C_14
REMARK    3  A    between atoms: C_12  and  C_20
REMARK    4  A    between atoms: C_23  and  N_27
REMARK                            x       y       z     vdW  Elec       q    Type
REMARK                         _______ _______ _______ _____ _____    ______ ____
ROOT
ATOM      1  C   UNL     1      34.735 -19.914 -21.090  0.00  0.00    -0.043 C 
ATOM      2  C   UNL     1      35.854 -20.288 -20.347  0.00  0.00    -0.006 C 
ATOM      3  C   UNL     1      33.455 -20.203 -20.616  0.00  0.00    -0.006 C 
ATOM      4  C   UNL     1      34.415 -21.241 -18.657  0.00  0.00    +0.016 C 
ATOM      5  C   UNL     1      35.694 -20.951 -19.131  0.00  0.00    +0.001 C 
ATOM      6  C   UNL     1      33.294 -20.867 -19.400  0.00  0.00    +0.001 C 
ENDROOT
BRANCH   4  14
ATOM      7  O   UNL     1      28.789 -23.655 -14.688  0.00  0.00    -0.274 OA
ATOM      8  N   UNL     1      29.550 -22.583 -16.646  0.00  0.00    -0.217 N 
ATOM      9  N   UNL     1      32.971 -22.274 -16.869  0.00  0.00    -0.152 N 
ATOM     10  N   UNL     1      31.747 -22.054 -17.423  0.00  0.00    -0.092 NA
ATOM     11  N   UNL     1      31.508 -23.118 -15.416  0.00  0.00    -0.319 NA
ATOM     12  C   UNL     1      28.588 -23.103 -15.761  0.00  0.00    +0.234 C 
ATOM     13  C   UNL     1      30.922 -22.573 -16.515  0.00  0.00    +0.167 C 
ATOM     14  C   UNL     1      34.245 -21.943 -17.373  0.00  0.00    +0.077 C 
ATOM     15  C   UNL     1      32.789 -22.930 -15.644  0.00  0.00    +0.219 C 
ATOM     16  C   UNL     1      35.330 -22.275 -16.640  0.00  0.00    +0.017 C 
ATOM     17  C   UNL     1      33.946 -23.270 -14.892  0.00  0.00    +0.051 C 
ATOM     18  C   UNL     1      35.163 -22.957 -15.369  0.00  0.00    +0.005 C 
ATOM     19  H   UNL     1      29.196 -22.171 -17.468  0.00  0.00    +0.167 HD
BRANCH  12  20
ATOM     20  C   UNL     1      27.173 -22.940 -16.223  0.00  0.00    +0.077 C 
ATOM     21  C   UNL     1      26.814 -21.755 -17.070  0.00  0.00    +0.010 C 
ATOM     22  C   UNL     1      26.340 -21.832 -15.648  0.00  0.00    +0.010 C 
ENDBRANCH  12  20
ENDBRANCH   4  14
BRANCH   1  23
ATOM     23  C   UNL     1      34.907 -19.196 -22.402  0.00  0.00    -0.050 C 
BRANCH  23  27
ATOM     24  S   UNL     1      33.804 -14.860 -23.009  0.00  0.00    -0.014 S 
ATOM     25  O   UNL     1      32.755 -13.885 -22.789  0.00  0.00    -0.173 OA
ATOM     26  O   UNL     1      35.047 -14.488 -23.657  0.00  0.00    -0.173 OA
ATOM     27  N   UNL     1      34.204 -17.910 -22.415  0.00  0.00    +0.392 N 
ATOM     28  C   UNL     1      33.994 -17.468 -23.805  0.00  0.00    -0.051 C 
ATOM     29  C   UNL     1      34.962 -16.918 -21.633  0.00  0.00    -0.051 C 
ATOM     30  C   UNL     1      34.189 -15.617 -21.449  0.00  0.00    +0.128 C 
ATOM     31  C   UNL     1      33.102 -16.235 -23.889  0.00  0.00    +0.128 C 
ATOM     32  H   UNL     1      33.287 -18.013 -21.981  0.00  0.00    -0.079 HD
ENDBRANCH  23  27
ENDBRANCH   1  23
TORSDOF 4
ENDMDL
MODEL 4
REMARK VINA RESULT:     -11.2      2.429      4.875
REMARK  Name = 49831257
REMARK  4 active torsions:
REMARK  status: ('A' for Active; 'I' for Inactive)
REMARK    1  A    between atoms: C_1  and  C_23
REMARK    2  A    between atoms: C_4  and  C_14
REMARK    3  A    between atoms: C_12  and  C_20
REMARK    4  A    between atoms: C_23  and  N_27
REMARK                            x       y       z     vdW  Elec       q    Type
REMARK                         _______ _______ _______ _____ _____    ______ ____
ROOT
ATOM      1  C   UNL     1      34.586 -18.987 -21.863  0.00  0.00    -0.043 C 
ATOM      2  C   UNL     1      35.839 -19.050 -21.253  0.00  0.00    -0.006 C 
ATOM      3  C   UNL     1      33.498 -19.648 -21.292  0.00  0.00    -0.006 C 
ATOM      4  C   UNL     1      34.916 -20.435 -19.502  0.00  0.00    +0.016 C 
ATOM      5  C   UNL     1      36.004 -19.775 -20.073  0.00  0.00    +0.001 C 
ATOM      6  C   UNL     1      33.663 -20.372 -20.111  0.00  0.00    +0.001 C 
ENDROOT
BRANCH   4  14
ATOM      7  O   UNL     1      30.557 -24.034 -14.889  0.00  0.00    -0.274 OA
ATOM      8  N   UNL     1      30.778 -22.766 -16.866  0.00  0.00    -0.217 N 
ATOM      9  N   UNL     1      33.999 -21.791 -17.587  0.00  0.00    -0.152 N 
ATOM     10  N   UNL     1      32.683 -21.794 -17.932  0.00  0.00    -0.092 NA
ATOM     11  N   UNL     1      32.974 -22.954 -15.987  0.00  0.00    -0.319 NA
ATOM     12  C   UNL     1      30.086 -23.494 -15.881  0.00  0.00    +0.234 C 
ATOM     13  C   UNL     1      32.127 -22.495 -16.945  0.00  0.00    +0.167 C 
ATOM     14  C   UNL     1      35.091 -21.202 -18.256  0.00  0.00    +0.077 C 
ATOM     15  C   UNL     1      34.143 -22.513 -16.394  0.00  0.00    +0.219 C 
ATOM     16  C   UNL     1      36.323 -21.342 -17.721  0.00  0.00    +0.017 C 
ATOM     17  C   UNL     1      35.450 -22.648 -15.851  0.00  0.00    +0.051 C 
ATOM     18  C   UNL     1      36.494 -22.088 -16.486  0.00  0.00    +0.005 C 
ATOM     19  H   UNL     1      30.225 -22.402 -17.596  0.00  0.00    +0.167 HD
BRANCH  12  20
ATOM     20  C   UNL     1      28.610 -23.593 -16.110  0.00  0.00    +0.077 C 
ATOM     21  C   UNL     1      27.901 -22.462 -16.794  0.00  0.00    +0.010 C 
ATOM     22  C   UNL     1      27.688 -22.703 -15.328  0.00  0.00    +0.010 C 
ENDBRANCH  12  20
ENDBRANCH   4  14
BRANCH   1  23
ATOM     23  C   UNL     1      34.406 -18.204 -23.136  0.00  0.00    -0.050 C 
BRANCH  23  27
ATOM     24  S   UNL     1      33.610 -13.805 -22.499  0.00  0.00    -0.014 S 
ATOM     25  O   UNL     1      34.255 -12.525 -22.286  0.00  0.00    -0.173 OA
ATOM     26  O   UNL     1      32.165 -13.914 -22.560  0.00  0.00    -0.173 OA
ATOM     27  N   UNL     1      34.557 -16.762 -22.914  0.00  0.00    +0.392 N 
ATOM     28  C   UNL     1      33.918 -16.382 -21.642  0.00  0.00    -0.051 C 
ATOM     29  C   UNL     1      33.993 -16.020 -24.054  0.00  0.00    -0.051 C 
ATOM     30  C   UNL     1      34.289 -14.527 -23.973  0.00  0.00    +0.128 C 
ATOM     31  C   UNL     1      34.205 -14.934 -21.263  0.00  0.00    +0.128 C 
ATOM     32  H   UNL     1      35.546 -16.524 -22.847  0.00  0.00    -0.079 HD
ENDBRANCH  23  27
ENDBRANCH   1  23
TORSDOF 4
ENDMDL
MODEL 5
REMARK VINA RESULT:     -11.0      7.454     14.149
REMARK  Name = 49831257
REMARK  4 active torsions:
REMARK  status: ('A' for Active; 'I' for Inactive)
REMARK    1  A    between atoms: C_1  and  C_23
REMARK    2  A    between atoms: C_4  and  C_14
REMARK    3  A    between atoms: C_12  and  C_20
REMARK    4  A    between atoms: C_23  and  N_27
REMARK                            x       y       z     vdW  Elec       q    Type
REMARK                         _______ _______ _______ _____ _____    ______ ____
ROOT
ATOM      1  C   UNL     1      33.070 -13.663 -23.406  0.00  0.00    -0.043 C 
ATOM      2  C   UNL     1      33.063 -12.424 -24.047  0.00  0.00    -0.006 C 
ATOM      3  C   UNL     1      32.671 -13.761 -22.073  0.00  0.00    -0.006 C 
ATOM      4  C   UNL     1      32.259 -11.382 -22.021  0.00  0.00    +0.016 C 
ATOM      5  C   UNL     1      32.658 -11.283 -23.354  0.00  0.00    +0.001 C 
ATOM      6  C   UNL     1      32.265 -12.621 -21.380  0.00  0.00    +0.001 C 
ENDROOT
BRANCH   4  14
ATOM      7  O   UNL     1      32.308  -4.190 -23.253  0.00  0.00    -0.274 OA
ATOM      8  N   UNL     1      32.802  -6.363 -24.027  0.00  0.00    -0.217 N 
ATOM      9  N   UNL     1      31.991  -8.884 -21.829  0.00  0.00    -0.152 N 
ATOM     10  N   UNL     1      32.502  -8.516 -23.035  0.00  0.00    -0.092 NA
ATOM     11  N   UNL     1      31.859  -6.660 -21.870  0.00  0.00    -0.319 NA
ATOM     12  C   UNL     1      32.739  -4.959 -24.101  0.00  0.00    +0.234 C 
ATOM     13  C   UNL     1      32.400  -7.189 -22.999  0.00  0.00    +0.167 C 
ATOM     14  C   UNL     1      31.832 -10.177 -21.289  0.00  0.00    +0.077 C 
ATOM     15  C   UNL     1      31.603  -7.725 -21.143  0.00  0.00    +0.219 C 
ATOM     16  C   UNL     1      31.283 -10.296 -20.061  0.00  0.00    +0.017 C 
ATOM     17  C   UNL     1      31.027  -7.876 -19.852  0.00  0.00    +0.051 C 
ATOM     18  C   UNL     1      30.873  -9.107 -19.334  0.00  0.00    +0.005 C 
ATOM     19  H   UNL     1      33.185  -6.816 -24.814  0.00  0.00    +0.167 HD
BRANCH  12  20
ATOM     20  C   UNL     1      33.270  -4.384 -25.377  0.00  0.00    +0.077 C 
ATOM     21  C   UNL     1      33.895  -5.302 -26.386  0.00  0.00    +0.010 C 
ATOM     22  C   UNL     1      34.753  -4.352 -25.603  0.00  0.00    +0.010 C 
ENDBRANCH  12  20
ENDBRANCH   4  14
BRANCH   1  23
ATOM     23  C   UNL     1      33.506 -14.895 -24.154  0.00  0.00    -0.050 C 
BRANCH  23  27
ATOM     24  S   UNL     1      35.126 -18.438 -21.872  0.00  0.00    -0.014 S 
ATOM     25  O   UNL     1      34.775 -19.457 -20.903  0.00  0.00    -0.173 OA
ATOM     26  O   UNL     1      36.460 -18.372 -22.437  0.00  0.00    -0.173 OA
ATOM     27  N   UNL     1      33.651 -16.050 -23.263  0.00  0.00    +0.392 N 
ATOM     28  C   UNL     1      34.673 -15.768 -22.240  0.00  0.00    -0.051 C 
ATOM     29  C   UNL     1      33.980 -17.250 -24.051  0.00  0.00    -0.051 C 
ATOM     30  C   UNL     1      33.955 -18.519 -23.205  0.00  0.00    +0.128 C 
ATOM     31  C   UNL     1      34.734 -16.853 -21.171  0.00  0.00    +0.128 C 
ATOM     32  H   UNL     1      32.770 -16.227 -22.780  0.00  0.00    -0.079 HD
ENDBRANCH  23  27
ENDBRANCH   1  23
TORSDOF 4
ENDMDL
