MODEL 1
REMARK VINA RESULT:     -11.4      0.000      0.000
REMARK  Name = 4257
REMARK  4 active torsions:
REMARK  status: ('A' for Active; 'I' for Inactive)
REMARK    1  A    between atoms: C_1  and  N_5
REMARK    2  A    between atoms: C_1  and  C_20
REMARK    3  A    between atoms: C_20  and  C_21
REMARK    4  A    between atoms: C_21  and  N_23
REMARK                            x       y       z     vdW  Elec       q    Type
REMARK                         _______ _______ _______ _____ _____    ______ ____
ROOT
ATOM      1  C   UNL     1      34.553 -21.665 -19.064  0.00  0.00    -0.076 C 
ENDROOT
BRANCH   1   5
ATOM      2  O   UNL     1      34.244 -19.849 -23.339  0.00  0.00    -0.277 OA
ATOM      3  N   UNL     1      33.997 -16.708 -21.847  0.00  0.00    +0.407 N 
ATOM      4  N   UNL     1      34.624 -17.596 -23.816  0.00  0.00    -0.326 N 
ATOM      5  N   UNL     1      34.409 -20.294 -19.555  0.00  0.00    +0.387 N 
ATOM      6  C   UNL     1      34.214 -18.133 -21.552  0.00  0.00    +0.027 C 
ATOM      7  C   UNL     1      34.753 -16.397 -23.056  0.00  0.00    +0.018 C 
ATOM      8  C   UNL     1      32.984 -18.721 -20.842  0.00  0.00    -0.033 C 
ATOM      9  C   UNL     1      35.501 -18.430 -20.759  0.00  0.00    -0.033 C 
ATOM     10  C   UNL     1      34.190 -15.701 -20.817  0.00  0.00    -0.074 C 
ATOM     11  C   UNL     1      34.342 -18.683 -22.990  0.00  0.00    +0.203 C 
ATOM     12  C   UNL     1      34.185 -15.144 -23.703  0.00  0.00    -0.002 C 
ATOM     13  C   UNL     1      33.192 -20.164 -20.365  0.00  0.00    -0.079 C 
ATOM     14  C   UNL     1      35.596 -19.896 -20.322  0.00  0.00    -0.079 C 
ATOM     15  C   UNL     1      33.660 -14.360 -21.348  0.00  0.00    -0.023 C 
ATOM     16  C   UNL     1      34.261 -13.982 -22.708  0.00  0.00    -0.003 C 
ATOM     17  H   UNL     1      32.985 -16.628 -21.949  0.00  0.00    -0.076 HD
ATOM     18  H   UNL     1      34.722 -17.650 -24.793  0.00  0.00    +0.147 HD
ATOM     19  H   UNL     1      34.325 -19.667 -18.755  0.00  0.00    -0.080 HD
ENDBRANCH   1   5
BRANCH   1  20
ATOM     20  C   UNL     1      33.243 -22.204 -18.480  0.00  0.00    -0.001 C 
BRANCH  20  21
ATOM     21  C   UNL     1      33.399 -23.450 -17.611  0.00  0.00    +0.093 C 
BRANCH  21  23
ATOM     22 CL   UNL     1      37.865 -20.889 -16.179  0.00  0.00    -0.082 Cl
ATOM     23  N   UNL     1      33.211 -23.119 -16.189  0.00  0.00    -0.287 N 
ATOM     24  C   UNL     1      34.423 -22.870 -15.493  0.00  0.00    +0.048 C 
ATOM     25  C   UNL     1      31.879 -22.947 -15.723  0.00  0.00    +0.048 C 
ATOM     26  C   UNL     1      34.657 -23.392 -14.210  0.00  0.00    -0.008 C 
ATOM     27  C   UNL     1      31.494 -23.029 -14.363  0.00  0.00    -0.008 C 
ATOM     28  C   UNL     1      33.615 -24.234 -13.534  0.00  0.00    +0.032 C 
ATOM     29  C   UNL     1      32.399 -23.384 -13.201  0.00  0.00    +0.032 C 
ATOM     30  C   UNL     1      35.443 -22.092 -16.081  0.00  0.00    +0.026 C 
ATOM     31  C   UNL     1      30.853 -22.623 -16.651  0.00  0.00    +0.015 C 
ATOM     32  C   UNL     1      35.874 -23.137 -13.552  0.00  0.00    -0.002 C 
ATOM     33  C   UNL     1      30.151 -22.761 -13.994  0.00  0.00    -0.003 C 
ATOM     34  C   UNL     1      36.648 -21.841 -15.421  0.00  0.00    +0.059 C 
ATOM     35  C   UNL     1      29.530 -22.382 -16.271  0.00  0.00    +0.001 C 
ATOM     36  C   UNL     1      36.863 -22.366 -14.154  0.00  0.00    +0.011 C 
ATOM     37  C   UNL     1      29.179 -22.447 -14.936  0.00  0.00    -0.000 C 
ENDBRANCH  21  23
ENDBRANCH  20  21
ENDBRANCH   1  20
TORSDOF 4
ENDMDL
MODEL 2
REMARK VINA RESULT:     -11.4      1.906      4.141
REMARK  Name = 4257
REMARK  4 active torsions:
REMARK  status: ('A' for Active; 'I' for Inactive)
REMARK    1  A    between atoms: C_1  and  N_5
REMARK    2  A    between atoms: C_1  and  C_20
REMARK    3  A    between atoms: C_20  and  C_21
REMARK    4  A    between atoms: C_21  and  N_23
REMARK                            x       y       z     vdW  Elec       q    Type
REMARK                         _______ _______ _______ _____ _____    ______ ____
ROOT
ATOM      1  C   UNL     1      36.006 -21.384 -18.818  0.00  0.00    -0.076 C 
ENDROOT
BRANCH   1   5
ATOM      2  O   UNL     1      34.788 -19.947 -23.074  0.00  0.00    -0.277 OA
ATOM      3  N   UNL     1      34.191 -16.800 -21.699  0.00  0.00    +0.407 N 
ATOM      4  N   UNL     1      34.688 -17.701 -23.699  0.00  0.00    -0.326 N 
ATOM      5  N   UNL     1      35.552 -20.095 -19.341  0.00  0.00    +0.387 N 
ATOM      6  C   UNL     1      34.698 -18.142 -21.378  0.00  0.00    +0.027 C 
ATOM      7  C   UNL     1      34.705 -16.448 -23.019  0.00  0.00    +0.018 C 
ATOM      8  C   UNL     1      33.704 -18.882 -20.469  0.00  0.00    -0.033 C 
ATOM      9  C   UNL     1      36.116 -18.159 -20.773  0.00  0.00    -0.033 C 
ATOM     10  C   UNL     1      34.341 -15.705 -20.754  0.00  0.00    -0.074 C 
ATOM     11  C   UNL     1      34.723 -18.760 -22.794  0.00  0.00    +0.203 C 
ATOM     12  C   UNL     1      33.837 -15.358 -23.629  0.00  0.00    -0.002 C 
ATOM     13  C   UNL     1      34.231 -20.231 -19.966  0.00  0.00    -0.079 C 
ATOM     14  C   UNL     1      36.531 -19.554 -20.291  0.00  0.00    -0.079 C 
ATOM     15  C   UNL     1      33.511 -14.514 -21.258  0.00  0.00    -0.023 C 
ATOM     16  C   UNL     1      33.841 -14.134 -22.707  0.00  0.00    -0.003 C 
ATOM     17  H   UNL     1      33.177 -16.901 -21.653  0.00  0.00    -0.076 HD
ATOM     18  H   UNL     1      34.658 -17.804 -24.677  0.00  0.00    +0.147 HD
ATOM     19  H   UNL     1      35.469 -19.438 -18.565  0.00  0.00    -0.080 HD
ENDBRANCH   1   5
BRANCH   1  20
ATOM     20  C   UNL     1      35.473 -21.648 -17.405  0.00  0.00    -0.001 C 
BRANCH  20  21
ATOM     21  C   UNL     1      36.539 -21.635 -16.310  0.00  0.00    +0.093 C 
BRANCH  21  23
ATOM     22 CL   UNL     1      31.418 -22.950 -17.085  0.00  0.00    -0.082 Cl
ATOM     23  N   UNL     1      36.247 -22.654 -15.288  0.00  0.00    -0.287 N 
ATOM     24  C   UNL     1      34.864 -22.797 -15.001  0.00  0.00    +0.048 C 
ATOM     25  C   UNL     1      37.328 -23.454 -14.828  0.00  0.00    +0.048 C 
ATOM     26  C   UNL     1      34.394 -22.918 -13.683  0.00  0.00    -0.008 C 
ATOM     27  C   UNL     1      37.324 -24.172 -13.607  0.00  0.00    -0.008 C 
ATOM     28  C   UNL     1      35.356 -22.902 -12.532  0.00  0.00    +0.032 C 
ATOM     29  C   UNL     1      36.224 -24.150 -12.566  0.00  0.00    +0.032 C 
ATOM     30  C   UNL     1      33.911 -22.811 -16.042  0.00  0.00    +0.026 C 
ATOM     31  C   UNL     1      38.481 -23.603 -15.644  0.00  0.00    +0.015 C 
ATOM     32  C   UNL     1      33.016 -23.047 -13.430  0.00  0.00    -0.002 C 
ATOM     33  C   UNL     1      38.422 -25.006 -13.278  0.00  0.00    -0.003 C 
ATOM     34  C   UNL     1      32.545 -22.940 -15.784  0.00  0.00    +0.059 C 
ATOM     35  C   UNL     1      39.564 -24.414 -15.293  0.00  0.00    +0.001 C 
ATOM     36  C   UNL     1      32.097 -23.058 -14.475  0.00  0.00    +0.011 C 
ATOM     37  C   UNL     1      39.531 -25.122 -14.107  0.00  0.00    -0.000 C 
ENDBRANCH  21  23
ENDBRANCH  20  21
ENDBRANCH   1  20
TORSDOF 4
ENDMDL
MODEL 3
REMARK VINA RESULT:     -10.5      7.984     15.227
REMARK  Name = 4257
REMARK  4 active torsions:
REMARK  status: ('A' for Active; 'I' for Inactive)
REMARK    1  A    between atoms: C_1  and  N_5
REMARK    2  A    between atoms: C_1  and  C_20
REMARK    3  A    between atoms: C_20  and  C_21
REMARK    4  A    between atoms: C_21  and  N_23
REMARK                            x       y       z     vdW  Elec       q    Type
REMARK                         _______ _______ _______ _____ _____    ______ ____
ROOT
ATOM      1  C   UNL     1      31.578  -9.285 -22.391  0.00  0.00    -0.076 C 
ENDROOT
BRANCH   1   5
ATOM      2  O   UNL     1      32.429 -12.517 -25.630  0.00  0.00    -0.277 OA
ATOM      3  N   UNL     1      33.790 -14.501 -23.107  0.00  0.00    +0.407 N 
ATOM      4  N   UNL     1      32.856 -14.758 -25.137  0.00  0.00    -0.326 N 
ATOM      5  N   UNL     1      32.186 -10.615 -22.334  0.00  0.00    +0.387 N 
ATOM      6  C   UNL     1      33.092 -13.229 -23.351  0.00  0.00    +0.027 C 
ATOM      7  C   UNL     1      33.170 -15.506 -23.965  0.00  0.00    +0.018 C 
ATOM      8  C   UNL     1      34.049 -12.047 -23.130  0.00  0.00    -0.033 C 
ATOM      9  C   UNL     1      31.796 -13.048 -22.536  0.00  0.00    -0.033 C 
ATOM     10  C   UNL     1      33.982 -14.993 -21.753  0.00  0.00    -0.074 C 
ATOM     11  C   UNL     1      32.753 -13.398 -24.848  0.00  0.00    +0.203 C 
ATOM     12  C   UNL     1      34.131 -16.667 -24.164  0.00  0.00    -0.002 C 
ATOM     13  C   UNL     1      33.356 -10.682 -23.217  0.00  0.00    -0.079 C 
ATOM     14  C   UNL     1      31.201 -11.644 -22.687  0.00  0.00    -0.079 C 
ATOM     15  C   UNL     1      34.940 -16.193 -21.806  0.00  0.00    -0.023 C 
ATOM     16  C   UNL     1      34.485 -17.269 -22.800  0.00  0.00    -0.003 C 
ATOM     17  H   UNL     1      34.764 -14.296 -23.333  0.00  0.00    -0.076 HD
ATOM     18  H   UNL     1      32.728 -15.150 -26.030  0.00  0.00    +0.147 HD
ATOM     19  H   UNL     1      32.498 -10.791 -21.379  0.00  0.00    -0.080 HD
ENDBRANCH   1   5
BRANCH   1  20
ATOM     20  C   UNL     1      31.945  -8.543 -23.680  0.00  0.00    -0.001 C 
BRANCH  20  21
ATOM     21  C   UNL     1      33.132  -7.590 -23.551  0.00  0.00    +0.093 C 
BRANCH  21  23
ATOM     22 CL   UNL     1      32.065  -5.474 -18.762  0.00  0.00    -0.082 Cl
ATOM     23  N   UNL     1      32.720  -6.204 -23.828  0.00  0.00    -0.287 N 
ATOM     24  C   UNL     1      31.956  -5.615 -22.788  0.00  0.00    +0.048 C 
ATOM     25  C   UNL     1      33.239  -5.584 -24.997  0.00  0.00    +0.048 C 
ATOM     26  C   UNL     1      30.809  -4.849 -23.058  0.00  0.00    -0.008 C 
ATOM     27  C   UNL     1      32.661  -4.453 -25.623  0.00  0.00    -0.008 C 
ATOM     28  C   UNL     1      30.362  -4.631 -24.474  0.00  0.00    +0.032 C 
ATOM     29  C   UNL     1      31.374  -3.769 -25.210  0.00  0.00    +0.032 C 
ATOM     30  C   UNL     1      32.323  -5.791 -21.437  0.00  0.00    +0.026 C 
ATOM     31  C   UNL     1      34.442  -6.078 -25.572  0.00  0.00    +0.015 C 
ATOM     32  C   UNL     1      30.065  -4.288 -22.005  0.00  0.00    -0.002 C 
ATOM     33  C   UNL     1      33.304  -3.861 -26.739  0.00  0.00    -0.003 C 
ATOM     34  C   UNL     1      31.581  -5.230 -20.395  0.00  0.00    +0.059 C 
ATOM     35  C   UNL     1      35.049  -5.493 -26.686  0.00  0.00    +0.001 C 
ATOM     36  C   UNL     1      30.449  -4.478 -20.681  0.00  0.00    +0.011 C 
ATOM     37  C   UNL     1      34.481  -4.377 -27.269  0.00  0.00    -0.000 C 
ENDBRANCH  21  23
ENDBRANCH  20  21
ENDBRANCH   1  20
TORSDOF 4
ENDMDL
MODEL 4
REMARK VINA RESULT:     -10.4      8.172     15.583
REMARK  Name = 4257
REMARK  4 active torsions:
REMARK  status: ('A' for Active; 'I' for Inactive)
REMARK    1  A    between atoms: C_1  and  N_5
REMARK    2  A    between atoms: C_1  and  C_20
REMARK    3  A    between atoms: C_20  and  C_21
REMARK    4  A    between atoms: C_21  and  N_23
REMARK                            x       y       z     vdW  Elec       q    Type
REMARK                         _______ _______ _______ _____ _____    ______ ____
ROOT
ATOM      1  C   UNL     1      31.685  -8.843 -22.786  0.00  0.00    -0.076 C 
ENDROOT
BRANCH   1   5
ATOM      2  O   UNL     1      33.165 -12.463 -20.262  0.00  0.00    -0.277 OA
ATOM      3  N   UNL     1      33.135 -14.352 -23.192  0.00  0.00    +0.407 N 
ATOM      4  N   UNL     1      34.155 -14.363 -21.187  0.00  0.00    -0.326 N 
ATOM      5  N   UNL     1      32.006 -10.230 -23.127  0.00  0.00    +0.387 N 
ATOM      6  C   UNL     1      32.933 -12.991 -22.672  0.00  0.00    +0.027 C 
ATOM      7  C   UNL     1      34.289 -14.914 -22.495  0.00  0.00    +0.018 C 
ATOM      8  C   UNL     1      31.444 -12.615 -22.734  0.00  0.00    -0.033 C 
ATOM      9  C   UNL     1      33.802 -11.915 -23.352  0.00  0.00    -0.033 C 
ATOM     10  C   UNL     1      33.200 -14.597 -24.623  0.00  0.00    -0.074 C 
ATOM     11  C   UNL     1      33.395 -13.195 -21.212  0.00  0.00    +0.203 C 
ATOM     12  C   UNL     1      34.243 -16.431 -22.578  0.00  0.00    -0.002 C 
ATOM     13  C   UNL     1      31.171 -11.155 -22.351  0.00  0.00    -0.079 C 
ATOM     14  C   UNL     1      33.432 -10.495 -22.906  0.00  0.00    -0.079 C 
ATOM     15  C   UNL     1      33.171 -16.115 -24.856  0.00  0.00    -0.023 C 
ATOM     16  C   UNL     1      34.244 -16.858 -24.049  0.00  0.00    -0.003 C 
ATOM     17  H   UNL     1      32.253 -14.825 -22.997  0.00  0.00    -0.076 HD
ATOM     18  H   UNL     1      34.548 -14.756 -20.375  0.00  0.00    +0.147 HD
ATOM     19  H   UNL     1      31.807 -10.377 -24.116  0.00  0.00    -0.080 HD
ENDBRANCH   1   5
BRANCH   1  20
ATOM     20  C   UNL     1      31.870  -7.902 -23.981  0.00  0.00    -0.001 C 
BRANCH  20  21
ATOM     21  C   UNL     1      33.149  -7.067 -23.941  0.00  0.00    +0.093 C 
BRANCH  21  23
ATOM     22 CL   UNL     1      31.863  -6.063 -18.853  0.00  0.00    -0.082 Cl
ATOM     23  N   UNL     1      32.832  -5.630 -23.904  0.00  0.00    -0.287 N 
ATOM     24  C   UNL     1      32.029  -5.250 -22.797  0.00  0.00    +0.048 C 
ATOM     25  C   UNL     1      33.463  -4.790 -24.861  0.00  0.00    +0.048 C 
ATOM     26  C   UNL     1      30.946  -4.366 -22.940  0.00  0.00    -0.008 C 
ATOM     27  C   UNL     1      32.991  -3.508 -25.230  0.00  0.00    -0.008 C 
ATOM     28  C   UNL     1      30.610  -3.793 -24.286  0.00  0.00    +0.032 C 
ATOM     29  C   UNL     1      31.716  -2.853 -24.738  0.00  0.00    +0.032 C 
ATOM     30  C   UNL     1      32.290  -5.762 -21.508  0.00  0.00    +0.026 C 
ATOM     31  C   UNL     1      34.675  -5.217 -25.469  0.00  0.00    +0.015 C 
ATOM     32  C   UNL     1      30.161  -4.018 -21.826  0.00  0.00    -0.002 C 
ATOM     33  C   UNL     1      33.741  -2.716 -26.136  0.00  0.00    -0.003 C 
ATOM     34  C   UNL     1      31.508  -5.411 -20.406  0.00  0.00    +0.059 C 
ATOM     35  C   UNL     1      35.389  -4.430 -26.377  0.00  0.00    +0.001 C 
ATOM     36  C   UNL     1      30.441  -4.538 -20.566  0.00  0.00    +0.011 C 
ATOM     37  C   UNL     1      34.923  -3.173 -26.708  0.00  0.00    -0.000 C 
ENDBRANCH  21  23
ENDBRANCH  20  21
ENDBRANCH   1  20
TORSDOF 4
ENDMDL
MODEL 5
REMARK VINA RESULT:     -10.1      1.119      1.816
REMARK  Name = 4257
REMARK  4 active torsions:
REMARK  status: ('A' for Active; 'I' for Inactive)
REMARK    1  A    between atoms: C_1  and  N_5
REMARK    2  A    between atoms: C_1  and  C_20
REMARK    3  A    between atoms: C_20  and  C_21
REMARK    4  A    between atoms: C_21  and  N_23
REMARK                            x       y       z     vdW  Elec       q    Type
REMARK                         _______ _______ _______ _____ _____    ______ ____
ROOT
ATOM      1  C   UNL     1      34.373 -22.076 -19.457  0.00  0.00    -0.076 C 
ENDROOT
BRANCH   1   5
ATOM      2  O   UNL     1      35.822 -17.676 -19.911  0.00  0.00    -0.277 OA
ATOM      3  N   UNL     1      34.217 -17.603 -23.005  0.00  0.00    +0.407 N 
ATOM      4  N   UNL     1      34.888 -16.158 -21.418  0.00  0.00    -0.326 N 
ATOM      5  N   UNL     1      34.199 -21.075 -20.511  0.00  0.00    +0.387 N 
ATOM      6  C   UNL     1      34.435 -18.442 -21.817  0.00  0.00    +0.027 C 
ATOM      7  C   UNL     1      34.009 -16.237 -22.537  0.00  0.00    +0.018 C 
ATOM      8  C   UNL     1      35.352 -19.626 -22.164  0.00  0.00    -0.033 C 
ATOM      9  C   UNL     1      33.141 -18.929 -21.135  0.00  0.00    -0.033 C 
ATOM     10  C   UNL     1      33.238 -17.983 -24.010  0.00  0.00    -0.074 C 
ATOM     11  C   UNL     1      35.160 -17.426 -20.907  0.00  0.00    +0.203 C 
ATOM     12  C   UNL     1      34.296 -15.262 -23.668  0.00  0.00    -0.002 C 
ATOM     13  C   UNL     1      35.505 -20.631 -21.016  0.00  0.00    -0.079 C 
ATOM     14  C   UNL     1      33.414 -19.939 -20.015  0.00  0.00    -0.079 C 
ATOM     15  C   UNL     1      33.410 -17.059 -25.226  0.00  0.00    -0.023 C 
ATOM     16  C   UNL     1      33.371 -15.572 -24.849  0.00  0.00    -0.003 C 
ATOM     17  H   UNL     1      35.062 -17.736 -23.560  0.00  0.00    -0.076 HD
ATOM     18  H   UNL     1      35.254 -15.320 -21.055  0.00  0.00    +0.147 HD
ATOM     19  H   UNL     1      33.688 -21.499 -21.284  0.00  0.00    -0.080 HD
ENDBRANCH   1   5
BRANCH   1  20
ATOM     20  C   UNL     1      33.261 -21.998 -18.406  0.00  0.00    -0.001 C 
BRANCH  20  21
ATOM     21  C   UNL     1      33.024 -23.294 -17.632  0.00  0.00    +0.093 C 
BRANCH  21  23
ATOM     22 CL   UNL     1      37.594 -20.928 -16.195  0.00  0.00    -0.082 Cl
ATOM     23  N   UNL     1      32.877 -23.022 -16.193  0.00  0.00    -0.287 N 
ATOM     24  C   UNL     1      34.111 -22.839 -15.516  0.00  0.00    +0.048 C 
ATOM     25  C   UNL     1      31.562 -22.832 -15.688  0.00  0.00    +0.048 C 
ATOM     26  C   UNL     1      34.359 -23.423 -14.263  0.00  0.00    -0.008 C 
ATOM     27  C   UNL     1      31.205 -22.964 -14.324  0.00  0.00    -0.008 C 
ATOM     28  C   UNL     1      33.308 -24.265 -13.600  0.00  0.00    +0.032 C 
ATOM     29  C   UNL     1      32.126 -23.396 -13.202  0.00  0.00    +0.032 C 
ATOM     30  C   UNL     1      35.141 -22.065 -16.093  0.00  0.00    +0.026 C 
ATOM     31  C   UNL     1      30.526 -22.438 -16.577  0.00  0.00    +0.015 C 
ATOM     32  C   UNL     1      35.597 -23.233 -13.623  0.00  0.00    -0.002 C 
ATOM     33  C   UNL     1      29.879 -22.674 -13.913  0.00  0.00    -0.003 C 
ATOM     34  C   UNL     1      36.367 -21.878 -15.452  0.00  0.00    +0.059 C 
ATOM     35  C   UNL     1      29.219 -22.177 -16.156  0.00  0.00    +0.001 C 
ATOM     36  C   UNL     1      36.595 -22.465 -14.214  0.00  0.00    +0.011 C 
ATOM     37  C   UNL     1      28.896 -22.290 -14.817  0.00  0.00    -0.000 C 
ENDBRANCH  21  23
ENDBRANCH  20  21
ENDBRANCH   1  20
TORSDOF 4
ENDMDL
MODEL 6
REMARK VINA RESULT:      -9.7      2.067      3.851
REMARK  Name = 4257
REMARK  4 active torsions:
REMARK  status: ('A' for Active; 'I' for Inactive)
REMARK    1  A    between atoms: C_1  and  N_5
REMARK    2  A    between atoms: C_1  and  C_20
REMARK    3  A    between atoms: C_20  and  C_21
REMARK    4  A    between atoms: C_21  and  N_23
REMARK                            x       y       z     vdW  Elec       q    Type
REMARK                         _______ _______ _______ _____ _____    ______ ____
ROOT
ATOM      1  C   UNL     1      34.793 -21.799 -18.839  0.00  0.00    -0.076 C 
ENDROOT
BRANCH   1   5
ATOM      2  O   UNL     1      34.403 -20.063 -23.140  0.00  0.00    -0.277 OA
ATOM      3  N   UNL     1      34.067 -16.908 -21.695  0.00  0.00    +0.407 N 
ATOM      4  N   UNL     1      34.710 -17.807 -23.654  0.00  0.00    -0.326 N 
ATOM      5  N   UNL     1      34.604 -20.441 -19.350  0.00  0.00    +0.387 N 
ATOM      6  C   UNL     1      34.330 -18.320 -21.379  0.00  0.00    +0.027 C 
ATOM      7  C   UNL     1      34.806 -16.593 -22.914  0.00  0.00    +0.018 C 
ATOM      8  C   UNL     1      33.123 -18.934 -20.653  0.00  0.00    -0.033 C 
ATOM      9  C   UNL     1      35.630 -18.564 -20.590  0.00  0.00    -0.033 C 
ATOM     10  C   UNL     1      34.235 -15.878 -20.683  0.00  0.00    -0.074 C 
ATOM     11  C   UNL     1      34.466 -18.888 -22.809  0.00  0.00    +0.203 C 
ATOM     12  C   UNL     1      34.195 -15.368 -23.577  0.00  0.00    -0.002 C 
ATOM     13  C   UNL     1      33.378 -20.362 -20.155  0.00  0.00    -0.079 C 
ATOM     14  C   UNL     1      35.773 -20.020 -20.131  0.00  0.00    -0.079 C 
ATOM     15  C   UNL     1      33.660 -14.563 -21.231  0.00  0.00    -0.023 C 
ATOM     16  C   UNL     1      34.242 -14.189 -22.601  0.00  0.00    -0.003 C 
ATOM     17  H   UNL     1      33.053 -16.860 -21.793  0.00  0.00    -0.076 HD
ATOM     18  H   UNL     1      34.803 -17.873 -24.631  0.00  0.00    +0.147 HD
ATOM     19  H   UNL     1      34.505 -19.805 -18.560  0.00  0.00    -0.080 HD
ENDBRANCH   1   5
BRANCH   1  20
ATOM     20  C   UNL     1      34.263 -21.951 -17.409  0.00  0.00    -0.001 C 
BRANCH  20  21
ATOM     21  C   UNL     1      33.055 -22.877 -17.273  0.00  0.00    +0.093 C 
BRANCH  21  23
ATOM     22 CL   UNL     1      27.810 -23.890 -17.136  0.00  0.00    -0.082 Cl
ATOM     23  N   UNL     1      32.752 -23.132 -15.856  0.00  0.00    -0.287 N 
ATOM     24  C   UNL     1      31.383 -22.957 -15.522  0.00  0.00    +0.048 C 
ATOM     25  C   UNL     1      33.795 -23.649 -15.041  0.00  0.00    +0.048 C 
ATOM     26  C   UNL     1      30.989 -22.287 -14.351  0.00  0.00    -0.008 C 
ATOM     27  C   UNL     1      33.814 -23.573 -13.627  0.00  0.00    -0.008 C 
ATOM     28  C   UNL     1      32.021 -21.736 -13.412  0.00  0.00    +0.032 C 
ATOM     29  C   UNL     1      32.787 -22.875 -12.759  0.00  0.00    +0.032 C 
ATOM     30  C   UNL     1      30.368 -23.446 -16.371  0.00  0.00    +0.026 C 
ATOM     31  C   UNL     1      34.880 -24.334 -15.651  0.00  0.00    +0.015 C 
ATOM     32  C   UNL     1      29.625 -22.119 -14.055  0.00  0.00    -0.002 C 
ATOM     33  C   UNL     1      34.865 -24.193 -12.903  0.00  0.00    -0.003 C 
ATOM     34  C   UNL     1      29.014 -23.278 -16.070  0.00  0.00    +0.059 C 
ATOM     35  C   UNL     1      35.918 -24.921 -14.922  0.00  0.00    +0.001 C 
ATOM     36  C   UNL     1      28.643 -22.612 -14.910  0.00  0.00    +0.011 C 
ATOM     37  C   UNL     1      35.907 -24.854 -13.542  0.00  0.00    -0.000 C 
ENDBRANCH  21  23
ENDBRANCH  20  21
ENDBRANCH   1  20
TORSDOF 4
ENDMDL
MODEL 7
REMARK VINA RESULT:      -9.5     10.457     15.268
REMARK  Name = 4257
REMARK  4 active torsions:
REMARK  status: ('A' for Active; 'I' for Inactive)
REMARK    1  A    between atoms: C_1  and  N_5
REMARK    2  A    between atoms: C_1  and  C_20
REMARK    3  A    between atoms: C_20  and  C_21
REMARK    4  A    between atoms: C_21  and  N_23
REMARK                            x       y       z     vdW  Elec       q    Type
REMARK                         _______ _______ _______ _____ _____    ______ ____
ROOT
ATOM      1  C   UNL     1      30.486  -6.682 -25.225  0.00  0.00    -0.076 C 
ENDROOT
BRANCH   1   5
ATOM      2  O   UNL     1      31.585  -2.746 -27.454  0.00  0.00    -0.277 OA
ATOM      3  N   UNL     1      34.932  -3.451 -26.778  0.00  0.00    +0.407 N 
ATOM      4  N   UNL     1      33.722  -2.276 -28.266  0.00  0.00    -0.326 N 
ATOM      5  N   UNL     1      31.762  -6.025 -25.514  0.00  0.00    +0.387 N 
ATOM      6  C   UNL     1      33.571  -3.993 -26.651  0.00  0.00    +0.027 C 
ATOM      7  C   UNL     1      35.026  -2.825 -28.094  0.00  0.00    +0.018 C 
ATOM      8  C   UNL     1      33.131  -3.982 -25.178  0.00  0.00    -0.033 C 
ATOM      9  C   UNL     1      33.381  -5.391 -27.272  0.00  0.00    -0.033 C 
ATOM     10  C   UNL     1      36.090  -4.282 -26.494  0.00  0.00    -0.074 C 
ATOM     11  C   UNL     1      32.791  -2.942 -27.472  0.00  0.00    +0.203 C 
ATOM     12  C   UNL     1      36.168  -1.820 -28.098  0.00  0.00    -0.002 C 
ATOM     13  C   UNL     1      31.782  -4.672 -24.943  0.00  0.00    -0.079 C 
ATOM     14  C   UNL     1      32.004  -5.989 -26.961  0.00  0.00    -0.079 C 
ATOM     15  C   UNL     1      37.337  -3.384 -26.477  0.00  0.00    -0.023 C 
ATOM     16  C   UNL     1      37.475  -2.540 -27.751  0.00  0.00    -0.003 C 
ATOM     17  H   UNL     1      35.015  -2.803 -25.995  0.00  0.00    -0.076 HD
ATOM     18  H   UNL     1      33.508  -1.527 -28.868  0.00  0.00    +0.147 HD
ATOM     19  H   UNL     1      32.512  -6.562 -25.080  0.00  0.00    -0.080 HD
ENDBRANCH   1   5
BRANCH   1  20
ATOM     20  C   UNL     1      30.482  -7.341 -23.842  0.00  0.00    -0.001 C 
BRANCH  20  21
ATOM     21  C   UNL     1      31.423  -8.538 -23.704  0.00  0.00    +0.093 C 
BRANCH  21  23
ATOM     22 CL   UNL     1      33.768 -13.339 -23.685  0.00  0.00    -0.082 Cl
ATOM     23  N   UNL     1      31.697  -8.823 -22.287  0.00  0.00    -0.287 N 
ATOM     24  C   UNL     1      31.875 -10.203 -22.004  0.00  0.00    +0.048 C 
ATOM     25  C   UNL     1      31.893  -7.716 -21.417  0.00  0.00    +0.048 C 
ATOM     26  C   UNL     1      31.290 -10.806 -20.878  0.00  0.00    -0.008 C 
ATOM     27  C   UNL     1      31.765  -7.776 -20.008  0.00  0.00    -0.008 C 
ATOM     28  C   UNL     1      30.455  -9.994 -19.932  0.00  0.00    +0.032 C 
ATOM     29  C   UNL     1      31.330  -8.985 -19.206  0.00  0.00    +0.032 C 
ATOM     30  C   UNL     1      32.643 -11.019 -22.861  0.00  0.00    +0.026 C 
ATOM     31  C   UNL     1      32.292  -6.466 -21.962  0.00  0.00    +0.015 C 
ATOM     32  C   UNL     1      31.475 -12.179 -20.632  0.00  0.00    -0.002 C 
ATOM     33  C   UNL     1      32.062  -6.632 -19.225  0.00  0.00    -0.003 C 
ATOM     34  C   UNL     1      32.824 -12.381 -22.610  0.00  0.00    +0.059 C 
ATOM     35  C   UNL     1      32.560  -5.342 -21.174  0.00  0.00    +0.001 C 
ATOM     36  C   UNL     1      32.238 -12.961 -21.494  0.00  0.00    +0.011 C 
ATOM     37  C   UNL     1      32.449  -5.428 -19.800  0.00  0.00    -0.000 C 
ENDBRANCH  21  23
ENDBRANCH  20  21
ENDBRANCH   1  20
TORSDOF 4
ENDMDL
MODEL 8
REMARK VINA RESULT:      -9.4      8.206     15.421
REMARK  Name = 4257
REMARK  4 active torsions:
REMARK  status: ('A' for Active; 'I' for Inactive)
REMARK    1  A    between atoms: C_1  and  N_5
REMARK    2  A    between atoms: C_1  and  C_20
REMARK    3  A    between atoms: C_20  and  C_21
REMARK    4  A    between atoms: C_21  and  N_23
REMARK                            x       y       z     vdW  Elec       q    Type
REMARK                         _______ _______ _______ _____ _____    ______ ____
ROOT
ATOM      1  C   UNL     1      31.538  -9.280 -22.622  0.00  0.00    -0.076 C 
ENDROOT
BRANCH   1   5
ATOM      2  O   UNL     1      32.451 -12.631 -25.721  0.00  0.00    -0.277 OA
ATOM      3  N   UNL     1      33.791 -14.505 -23.105  0.00  0.00    +0.407 N 
ATOM      4  N   UNL     1      32.885 -14.848 -25.135  0.00  0.00    -0.326 N 
ATOM      5  N   UNL     1      32.153 -10.603 -22.505  0.00  0.00    +0.387 N 
ATOM      6  C   UNL     1      33.088 -13.249 -23.407  0.00  0.00    +0.027 C 
ATOM      7  C   UNL     1      33.188 -15.547 -23.930  0.00  0.00    +0.018 C 
ATOM      8  C   UNL     1      34.036 -12.053 -23.220  0.00  0.00    -0.033 C 
ATOM      9  C   UNL     1      31.781 -13.045 -22.617  0.00  0.00    -0.033 C 
ATOM     10  C   UNL     1      33.968 -14.943 -21.730  0.00  0.00    -0.074 C 
ATOM     11  C   UNL     1      32.770 -13.479 -24.901  0.00  0.00    +0.203 C 
ATOM     12  C   UNL     1      34.158 -16.710 -24.071  0.00  0.00    -0.002 C 
ATOM     13  C   UNL     1      33.336 -10.697 -23.370  0.00  0.00    -0.079 C 
ATOM     14  C   UNL     1      31.179 -11.651 -22.830  0.00  0.00    -0.079 C 
ATOM     15  C   UNL     1      34.934 -16.138 -21.724  0.00  0.00    -0.023 C 
ATOM     16  C   UNL     1      34.499 -17.255 -22.681  0.00  0.00    -0.003 C 
ATOM     17  H   UNL     1      34.766 -14.303 -23.326  0.00  0.00    -0.076 HD
ATOM     18  H   UNL     1      32.771 -15.275 -26.014  0.00  0.00    +0.147 HD
ATOM     19  H   UNL     1      32.455 -10.739 -21.540  0.00  0.00    -0.080 HD
ENDBRANCH   1   5
BRANCH   1  20
ATOM     20  C   UNL     1      32.355  -8.347 -23.522  0.00  0.00    -0.001 C 
BRANCH  20  21
ATOM     21  C   UNL     1      31.543  -7.635 -24.603  0.00  0.00    +0.093 C 
BRANCH  21  23
ATOM     22 CL   UNL     1      32.370  -6.506 -29.760  0.00  0.00    -0.082 Cl
ATOM     23  N   UNL     1      31.865  -6.198 -24.633  0.00  0.00    -0.287 N 
ATOM     24  C   UNL     1      32.567  -5.793 -25.798  0.00  0.00    +0.048 C 
ATOM     25  C   UNL     1      31.328  -5.381 -23.602  0.00  0.00    +0.048 C 
ATOM     26  C   UNL     1      33.664  -4.918 -25.732  0.00  0.00    -0.008 C 
ATOM     27  C   UNL     1      31.840  -4.109 -23.245  0.00  0.00    -0.008 C 
ATOM     28  C   UNL     1      34.123  -4.380 -24.408  0.00  0.00    +0.032 C 
ATOM     29  C   UNL     1      33.069  -3.448 -23.834  0.00  0.00    +0.032 C 
ATOM     30  C   UNL     1      32.187  -6.272 -27.070  0.00  0.00    +0.026 C 
ATOM     31  C   UNL     1      30.174  -5.817 -22.898  0.00  0.00    +0.015 C 
ATOM     32  C   UNL     1      34.347  -4.545 -26.903  0.00  0.00    -0.002 C 
ATOM     33  C   UNL     1      31.180  -3.338 -22.255  0.00  0.00    -0.003 C 
ATOM     34  C   UNL     1      32.868  -5.896 -28.230  0.00  0.00    +0.059 C 
ATOM     35  C   UNL     1      29.549  -5.051 -21.909  0.00  0.00    +0.001 C 
ATOM     36  C   UNL     1      33.951  -5.031 -28.145  0.00  0.00    +0.011 C 
ATOM     37  C   UNL     1      30.052  -3.804 -21.591  0.00  0.00    -0.000 C 
ENDBRANCH  21  23
ENDBRANCH  20  21
ENDBRANCH   1  20
TORSDOF 4
ENDMDL
MODEL 9
REMARK VINA RESULT:      -9.0      8.598     14.931
REMARK  Name = 4257
REMARK  4 active torsions:
REMARK  status: ('A' for Active; 'I' for Inactive)
REMARK    1  A    between atoms: C_1  and  N_5
REMARK    2  A    between atoms: C_1  and  C_20
REMARK    3  A    between atoms: C_20  and  C_21
REMARK    4  A    between atoms: C_21  and  N_23
REMARK                            x       y       z     vdW  Elec       q    Type
REMARK                         _______ _______ _______ _____ _____    ______ ____
ROOT
ATOM      1  C   UNL     1      31.113  -8.662 -22.935  0.00  0.00    -0.076 C 
ENDROOT
BRANCH   1   5
ATOM      2  O   UNL     1      32.777 -12.054 -20.217  0.00  0.00    -0.277 OA
ATOM      3  N   UNL     1      33.026 -14.041 -23.071  0.00  0.00    +0.407 N 
ATOM      4  N   UNL     1      33.957 -13.897 -21.028  0.00  0.00    -0.326 N 
ATOM      5  N   UNL     1      31.561 -10.028 -23.210  0.00  0.00    +0.387 N 
ATOM      6  C   UNL     1      32.691 -12.684 -22.612  0.00  0.00    +0.027 C 
ATOM      7  C   UNL     1      34.190 -14.480 -22.308  0.00  0.00    +0.018 C 
ATOM      8  C   UNL     1      31.180 -12.436 -22.747  0.00  0.00    -0.033 C 
ATOM      9  C   UNL     1      33.496 -11.564 -23.298  0.00  0.00    -0.033 C 
ATOM     10  C   UNL     1      33.171 -14.330 -24.488  0.00  0.00    -0.074 C 
ATOM     11  C   UNL     1      33.105 -12.798 -21.128  0.00  0.00    +0.203 C 
ATOM     12  C   UNL     1      34.272 -15.998 -22.333  0.00  0.00    -0.002 C 
ATOM     13  C   UNL     1      30.773 -10.992 -22.432  0.00  0.00    -0.079 C 
ATOM     14  C   UNL     1      32.993 -10.165 -22.923  0.00  0.00    -0.079 C 
ATOM     15  C   UNL     1      33.276 -15.853 -24.663  0.00  0.00    -0.023 C 
ATOM     16  C   UNL     1      34.371 -16.474 -23.786  0.00  0.00    -0.003 C 
ATOM     17  H   UNL     1      32.177 -14.579 -22.893  0.00  0.00    -0.076 HD
ATOM     18  H   UNL     1      34.345 -14.226 -20.186  0.00  0.00    +0.147 HD
ATOM     19  H   UNL     1      31.416 -10.227 -24.200  0.00  0.00    -0.080 HD
ENDBRANCH   1   5
BRANCH   1  20
ATOM     20  C   UNL     1      29.985  -8.229 -23.878  0.00  0.00    -0.001 C 
BRANCH  20  21
ATOM     21  C   UNL     1      30.280  -6.966 -24.686  0.00  0.00    +0.093 C 
BRANCH  21  23
ATOM     22 CL   UNL     1      33.004  -5.129 -28.900  0.00  0.00    -0.082 Cl
ATOM     23  N   UNL     1      31.423  -6.237 -24.114  0.00  0.00    -0.287 N 
ATOM     24  C   UNL     1      32.509  -6.076 -25.014  0.00  0.00    +0.048 C 
ATOM     25  C   UNL     1      31.262  -5.668 -22.821  0.00  0.00    +0.048 C 
ATOM     26  C   UNL     1      33.839  -6.275 -24.608  0.00  0.00    -0.008 C 
ATOM     27  C   UNL     1      32.334  -5.301 -21.972  0.00  0.00    -0.008 C 
ATOM     28  C   UNL     1      34.148  -6.665 -23.193  0.00  0.00    +0.032 C 
ATOM     29  C   UNL     1      33.807  -5.519 -22.254  0.00  0.00    +0.032 C 
ATOM     30  C   UNL     1      32.280  -5.718 -26.360  0.00  0.00    +0.026 C 
ATOM     31  C   UNL     1      29.953  -5.391 -22.341  0.00  0.00    +0.015 C 
ATOM     32  C   UNL     1      34.892  -6.120 -25.527  0.00  0.00    -0.002 C 
ATOM     33  C   UNL     1      32.065  -4.665 -20.734  0.00  0.00    -0.003 C 
ATOM     34  C   UNL     1      33.331  -5.564 -27.267  0.00  0.00    +0.059 C 
ATOM     35  C   UNL     1      29.708  -4.782 -21.108  0.00  0.00    +0.001 C 
ATOM     36  C   UNL     1      34.639  -5.766 -26.849  0.00  0.00    +0.011 C 
ATOM     37  C   UNL     1      30.768  -4.413 -20.303  0.00  0.00    -0.000 C 
ENDBRANCH  21  23
ENDBRANCH  20  21
ENDBRANCH   1  20
TORSDOF 4
ENDMDL
