MODEL 1
REMARK VINA RESULT:     -12.2      0.000      0.000
REMARK  Name = 24748573
REMARK  3 active torsions:
REMARK  status: ('A' for Active; 'I' for Inactive)
REMARK    1  A    between atoms: N_2  and  C_18
REMARK    2  A    between atoms: C_13  and  C_25
REMARK    3  A    between atoms: C_25  and  O_26
REMARK                            x       y       z     vdW  Elec       q    Type
REMARK                         _______ _______ _______ _____ _____    ______ ____
ROOT
ATOM      1  N   UNL     1      34.410 -22.879 -15.894  0.00  0.00    -0.391 NA
ATOM      2  N   UNL     1      33.080 -22.326 -17.749  0.00  0.00    -0.288 N 
ATOM      3  N   UNL     1      29.675 -23.320 -14.157  0.00  0.00    -0.243 NA
ATOM      4  C   UNL     1      33.439 -23.481 -13.765  0.00  0.00    +0.098 C 
ATOM      5  C   UNL     1      32.128 -23.305 -14.318  0.00  0.00    +0.011 C 
ATOM      6  C   UNL     1      31.999 -22.915 -15.662  0.00  0.00    +0.044 C 
ATOM      7  C   UNL     1      34.546 -23.251 -14.613  0.00  0.00    +0.119 C 
ATOM      8  C   UNL     1      33.165 -22.720 -16.390  0.00  0.00    +0.183 C 
ATOM      9  C   UNL     1      33.690 -23.871 -12.426  0.00  0.00    -0.015 C 
ATOM     10  C   UNL     1      35.834 -23.414 -14.107  0.00  0.00    +0.035 C 
ATOM     11  C   UNL     1      30.735 -22.732 -16.238  0.00  0.00    +0.024 C 
ATOM     12  C   UNL     1      30.912 -23.488 -13.631  0.00  0.00    +0.095 C 
ATOM     13  C   UNL     1      36.062 -23.799 -12.787  0.00  0.00    +0.077 C 
ATOM     14  C   UNL     1      34.988 -24.028 -11.944  0.00  0.00    +0.003 C 
ATOM     15  C   UNL     1      29.619 -22.946 -15.450  0.00  0.00    +0.099 C 
ATOM     16  H   UNL     1      32.271 -22.651 -18.207  0.00  0.00    +0.155 HD
ENDROOT
BRANCH   2  18
ATOM     17 CL   UNL     1      33.581 -19.181 -21.763  0.00  0.00    -0.082 Cl
ATOM     18  C   UNL     1      33.926 -21.562 -18.567  0.00  0.00    +0.051 C 
ATOM     19  C   UNL     1      33.395 -20.838 -19.636  0.00  0.00    +0.026 C 
ATOM     20  C   UNL     1      35.297 -21.523 -18.311  0.00  0.00    +0.015 C 
ATOM     21  C   UNL     1      34.235 -20.075 -20.447  0.00  0.00    +0.059 C 
ATOM     22  C   UNL     1      36.136 -20.761 -19.123  0.00  0.00    +0.002 C 
ATOM     23  C   UNL     1      35.605 -20.036 -20.190  0.00  0.00    +0.011 C 
ENDBRANCH   2  18
BRANCH  13  25
ATOM     24  O   UNL     1      38.446 -23.855 -12.982  0.00  0.00    -0.245 OA
ATOM     25  C   UNL     1      37.422 -23.956 -12.298  0.00  0.00    +0.338 C 
BRANCH  25  26
ATOM     26  O   UNL     1      37.468 -24.235 -10.966  0.00  0.00    -0.477 OA
ATOM     27  H   UNL     1      37.919 -24.998 -10.662  0.00  0.00    +0.295 HD
ENDBRANCH  25  26
ENDBRANCH  13  25
TORSDOF 3
ENDMDL
MODEL 2
REMARK VINA RESULT:     -11.4      3.252      6.370
REMARK  Name = 24748573
REMARK  3 active torsions:
REMARK  status: ('A' for Active; 'I' for Inactive)
REMARK    1  A    between atoms: N_2  and  C_18
REMARK    2  A    between atoms: C_13  and  C_25
REMARK    3  A    between atoms: C_25  and  O_26
REMARK                            x       y       z     vdW  Elec       q    Type
REMARK                         _______ _______ _______ _____ _____    ______ ____
ROOT
ATOM      1  N   UNL     1      33.513 -23.238 -15.456  0.00  0.00    -0.391 NA
ATOM      2  N   UNL     1      32.350 -24.387 -13.770  0.00  0.00    -0.288 N 
ATOM      3  N   UNL     1      36.686 -23.129 -11.511  0.00  0.00    -0.243 NA
ATOM      4  C   UNL     1      35.718 -22.322 -15.084  0.00  0.00    +0.098 C 
ATOM      5  C   UNL     1      35.690 -22.813 -13.737  0.00  0.00    +0.011 C 
ATOM      6  C   UNL     1      34.556 -23.511 -13.286  0.00  0.00    +0.044 C 
ATOM      7  C   UNL     1      34.589 -22.570 -15.897  0.00  0.00    +0.119 C 
ATOM      8  C   UNL     1      33.513 -23.689 -14.184  0.00  0.00    +0.183 C 
ATOM      9  C   UNL     1      36.805 -21.607 -15.646  0.00  0.00    -0.015 C 
ATOM     10  C   UNL     1      34.585 -22.108 -17.211  0.00  0.00    +0.035 C 
ATOM     11  C   UNL     1      34.492 -24.006 -11.977  0.00  0.00    +0.024 C 
ATOM     12  C   UNL     1      36.716 -22.664 -12.784  0.00  0.00    +0.095 C 
ATOM     13  C   UNL     1      35.662 -21.406 -17.748  0.00  0.00    +0.077 C 
ATOM     14  C   UNL     1      36.776 -21.154 -16.964  0.00  0.00    +0.003 C 
ATOM     15  C   UNL     1      35.572 -23.790 -11.141  0.00  0.00    +0.099 C 
ATOM     16  H   UNL     1      32.521 -25.072 -13.083  0.00  0.00    +0.155 HD
ENDROOT
BRANCH   2  18
ATOM     17 CL   UNL     1      28.741 -21.907 -16.431  0.00  0.00    -0.082 Cl
ATOM     18  C   UNL     1      31.003 -24.291 -14.150  0.00  0.00    +0.051 C 
ATOM     19  C   UNL     1      30.589 -23.265 -15.000  0.00  0.00    +0.026 C 
ATOM     20  C   UNL     1      30.077 -25.223 -13.681  0.00  0.00    +0.015 C 
ATOM     21  C   UNL     1      29.251 -23.172 -15.381  0.00  0.00    +0.059 C 
ATOM     22  C   UNL     1      28.738 -25.130 -14.062  0.00  0.00    +0.002 C 
ATOM     23  C   UNL     1      28.326 -24.104 -14.912  0.00  0.00    +0.011 C 
ENDBRANCH   2  18
BRANCH  13  25
ATOM     24  O   UNL     1      36.117 -19.889 -19.541  0.00  0.00    -0.245 OA
ATOM     25  C   UNL     1      35.617 -20.939 -19.124  0.00  0.00    +0.338 C 
BRANCH  25  26
ATOM     26  O   UNL     1      34.949 -21.797 -19.944  0.00  0.00    -0.477 OA
ATOM     27  H   UNL     1      35.023 -22.722 -19.813  0.00  0.00    +0.295 HD
ENDBRANCH  25  26
ENDBRANCH  13  25
TORSDOF 3
ENDMDL
MODEL 3
REMARK VINA RESULT:     -11.4      3.891      7.218
REMARK  Name = 24748573
REMARK  3 active torsions:
REMARK  status: ('A' for Active; 'I' for Inactive)
REMARK    1  A    between atoms: N_2  and  C_18
REMARK    2  A    between atoms: C_13  and  C_25
REMARK    3  A    between atoms: C_25  and  O_26
REMARK                            x       y       z     vdW  Elec       q    Type
REMARK                         _______ _______ _______ _____ _____    ______ ____
ROOT
ATOM      1  N   UNL     1      33.298 -22.681 -16.768  0.00  0.00    -0.391 NA
ATOM      2  N   UNL     1      33.162 -23.994 -14.825  0.00  0.00    -0.288 N 
ATOM      3  N   UNL     1      38.057 -22.781 -15.043  0.00  0.00    -0.243 NA
ATOM      4  C   UNL     1      35.389 -21.728 -17.517  0.00  0.00    +0.098 C 
ATOM      5  C   UNL     1      36.056 -22.323 -16.397  0.00  0.00    +0.011 C 
ATOM      6  C   UNL     1      35.311 -23.090 -15.483  0.00  0.00    +0.044 C 
ATOM      7  C   UNL     1      33.999 -21.948 -17.646  0.00  0.00    +0.119 C 
ATOM      8  C   UNL     1      33.951 -23.230 -15.722  0.00  0.00    +0.183 C 
ATOM      9  C   UNL     1      36.036 -20.939 -18.499  0.00  0.00    -0.015 C 
ATOM     10  C   UNL     1      33.320 -21.385 -18.724  0.00  0.00    +0.035 C 
ATOM     11  C   UNL     1      35.928 -23.686 -14.376  0.00  0.00    +0.024 C 
ATOM     12  C   UNL     1      37.430 -22.217 -16.103  0.00  0.00    +0.095 C 
ATOM     13  C   UNL     1      33.973 -20.610 -19.681  0.00  0.00    +0.077 C 
ATOM     14  C   UNL     1      35.335 -20.386 -19.568  0.00  0.00    +0.003 C 
ATOM     15  C   UNL     1      37.287 -23.503 -14.205  0.00  0.00    +0.099 C 
ATOM     16  H   UNL     1      33.654 -24.724 -14.386  0.00  0.00    +0.155 HD
ENDROOT
BRANCH   2  18
ATOM     17 CL   UNL     1      28.486 -22.105 -15.734  0.00  0.00    -0.082 Cl
ATOM     18  C   UNL     1      31.814 -23.911 -14.444  0.00  0.00    +0.051 C 
ATOM     19  C   UNL     1      30.924 -23.137 -15.190  0.00  0.00    +0.026 C 
ATOM     20  C   UNL     1      31.363 -24.604 -13.320  0.00  0.00    +0.015 C 
ATOM     21  C   UNL     1      29.584 -23.058 -14.813  0.00  0.00    +0.059 C 
ATOM     22  C   UNL     1      30.022 -24.524 -12.944  0.00  0.00    +0.002 C 
ATOM     23  C   UNL     1      29.133 -23.751 -13.690  0.00  0.00    +0.011 C 
ENDBRANCH   2  18
BRANCH  13  25
ATOM     24  O   UNL     1      33.721 -19.452 -21.759  0.00  0.00    -0.245 OA
ATOM     25  C   UNL     1      33.227 -20.039 -20.791  0.00  0.00    +0.338 C 
BRANCH  25  26
ATOM     26  O   UNL     1      31.884 -20.218 -20.662  0.00  0.00    -0.477 OA
ATOM     27  H   UNL     1      31.545 -21.054 -20.409  0.00  0.00    +0.295 HD
ENDBRANCH  25  26
ENDBRANCH  13  25
TORSDOF 3
ENDMDL
MODEL 4
REMARK VINA RESULT:     -11.3      3.805      6.399
REMARK  Name = 24748573
REMARK  3 active torsions:
REMARK  status: ('A' for Active; 'I' for Inactive)
REMARK    1  A    between atoms: N_2  and  C_18
REMARK    2  A    between atoms: C_13  and  C_25
REMARK    3  A    between atoms: C_25  and  O_26
REMARK                            x       y       z     vdW  Elec       q    Type
REMARK                         _______ _______ _______ _____ _____    ______ ____
ROOT
ATOM      1  N   UNL     1      34.339 -22.708 -16.411  0.00  0.00    -0.391 NA
ATOM      2  N   UNL     1      34.249 -23.976 -14.436  0.00  0.00    -0.288 N 
ATOM      3  N   UNL     1      29.380 -23.160 -15.492  0.00  0.00    -0.243 NA
ATOM      4  C   UNL     1      32.335 -21.938 -17.523  0.00  0.00    +0.098 C 
ATOM      5  C   UNL     1      31.538 -22.566 -16.510  0.00  0.00    +0.011 C 
ATOM      6  C   UNL     1      32.177 -23.256 -15.465  0.00  0.00    +0.044 C 
ATOM      7  C   UNL     1      33.741 -22.047 -17.414  0.00  0.00    +0.119 C 
ATOM      8  C   UNL     1      33.564 -23.290 -15.471  0.00  0.00    +0.183 C 
ATOM      9  C   UNL     1      31.803 -21.218 -18.620  0.00  0.00    -0.015 C 
ATOM     10  C   UNL     1      34.545 -21.447 -18.380  0.00  0.00    +0.035 C 
ATOM     11  C   UNL     1      31.431 -23.883 -14.458  0.00  0.00    +0.024 C 
ATOM     12  C   UNL     1      30.131 -22.565 -16.451  0.00  0.00    +0.095 C 
ATOM     13  C   UNL     1      34.003 -20.742 -19.453  0.00  0.00    +0.077 C 
ATOM     14  C   UNL     1      32.629 -20.627 -19.574  0.00  0.00    +0.003 C 
ATOM     15  C   UNL     1      30.052 -23.804 -14.519  0.00  0.00    +0.099 C 
ATOM     16  H   UNL     1      33.768 -23.980 -13.577  0.00  0.00    +0.155 HD
ENDROOT
BRANCH   2  18
ATOM     17 CL   UNL     1      39.126 -24.053 -12.870  0.00  0.00    -0.082 Cl
ATOM     18  C   UNL     1      35.479 -24.649 -14.399  0.00  0.00    +0.051 C 
ATOM     19  C   UNL     1      36.565 -24.081 -13.733  0.00  0.00    +0.026 C 
ATOM     20  C   UNL     1      35.616 -25.889 -15.026  0.00  0.00    +0.015 C 
ATOM     21  C   UNL     1      37.787 -24.752 -13.693  0.00  0.00    +0.059 C 
ATOM     22  C   UNL     1      36.838 -26.559 -14.986  0.00  0.00    +0.002 C 
ATOM     23  C   UNL     1      37.923 -25.991 -14.319  0.00  0.00    +0.011 C 
ENDBRANCH   2  18
BRANCH  13  25
ATOM     24  O   UNL     1      34.573 -19.886 -21.613  0.00  0.00    -0.245 OA
ATOM     25  C   UNL     1      34.878 -20.132 -20.441  0.00  0.00    +0.338 C 
BRANCH  25  26
ATOM     26  O   UNL     1      36.110 -19.844 -19.939  0.00  0.00    -0.477 OA
ATOM     27  H   UNL     1      36.372 -20.195 -19.110  0.00  0.00    +0.295 HD
ENDBRANCH  25  26
ENDBRANCH  13  25
TORSDOF 3
ENDMDL
MODEL 5
REMARK VINA RESULT:     -10.9      3.729      6.456
REMARK  Name = 24748573
REMARK  3 active torsions:
REMARK  status: ('A' for Active; 'I' for Inactive)
REMARK    1  A    between atoms: N_2  and  C_18
REMARK    2  A    between atoms: C_13  and  C_25
REMARK    3  A    between atoms: C_25  and  O_26
REMARK                            x       y       z     vdW  Elec       q    Type
REMARK                         _______ _______ _______ _____ _____    ______ ____
ROOT
ATOM      1  N   UNL     1      33.772 -23.578 -15.200  0.00  0.00    -0.391 NA
ATOM      2  N   UNL     1      36.007 -23.214 -15.825  0.00  0.00    -0.288 N 
ATOM      3  N   UNL     1      33.408 -20.794 -19.414  0.00  0.00    -0.243 NA
ATOM      4  C   UNL     1      31.929 -22.689 -16.487  0.00  0.00    +0.098 C 
ATOM      5  C   UNL     1      32.859 -22.104 -17.407  0.00  0.00    +0.011 C 
ATOM      6  C   UNL     1      34.238 -22.277 -17.190  0.00  0.00    +0.044 C 
ATOM      7  C   UNL     1      32.455 -23.420 -15.396  0.00  0.00    +0.119 C 
ATOM      8  C   UNL     1      34.626 -23.016 -16.082  0.00  0.00    +0.183 C 
ATOM      9  C   UNL     1      30.521 -22.582 -16.604  0.00  0.00    -0.015 C 
ATOM     10  C   UNL     1      31.578 -24.003 -14.484  0.00  0.00    +0.035 C 
ATOM     11  C   UNL     1      35.177 -21.719 -18.067  0.00  0.00    +0.024 C 
ATOM     12  C   UNL     1      32.526 -21.346 -18.546  0.00  0.00    +0.095 C 
ATOM     13  C   UNL     1      30.195 -23.886 -14.615  0.00  0.00    +0.077 C 
ATOM     14  C   UNL     1      29.665 -23.174 -15.678  0.00  0.00    +0.003 C 
ATOM     15  C   UNL     1      34.714 -20.996 -19.151  0.00  0.00    +0.099 C 
ATOM     16  H   UNL     1      36.563 -23.229 -16.638  0.00  0.00    +0.155 HD
ENDROOT
BRANCH   2  18
ATOM     17 CL   UNL     1      39.917 -25.479 -13.411  0.00  0.00    -0.082 Cl
ATOM     18  C   UNL     1      36.733 -23.392 -14.639  0.00  0.00    +0.051 C 
ATOM     19  C   UNL     1      37.834 -24.249 -14.617  0.00  0.00    +0.026 C 
ATOM     20  C   UNL     1      36.356 -22.711 -13.481  0.00  0.00    +0.015 C 
ATOM     21  C   UNL     1      38.559 -24.423 -13.438  0.00  0.00    +0.059 C 
ATOM     22  C   UNL     1      37.081 -22.886 -12.302  0.00  0.00    +0.002 C 
ATOM     23  C   UNL     1      38.182 -23.742 -12.281  0.00  0.00    +0.011 C 
ENDBRANCH   2  18
BRANCH  13  25
ATOM     24  O   UNL     1      28.176 -24.930 -13.869  0.00  0.00    -0.245 OA
ATOM     25  C   UNL     1      29.315 -24.508 -13.640  0.00  0.00    +0.338 C 
BRANCH  25  26
ATOM     26  O   UNL     1      29.881 -24.590 -12.404  0.00  0.00    -0.477 OA
ATOM     27  H   UNL     1      29.427 -24.250 -11.658  0.00  0.00    +0.295 HD
ENDBRANCH  25  26
ENDBRANCH  13  25
TORSDOF 3
ENDMDL
MODEL 6
REMARK VINA RESULT:     -10.8      1.430      1.918
REMARK  Name = 24748573
REMARK  3 active torsions:
REMARK  status: ('A' for Active; 'I' for Inactive)
REMARK    1  A    between atoms: N_2  and  C_18
REMARK    2  A    between atoms: C_13  and  C_25
REMARK    3  A    between atoms: C_25  and  O_26
REMARK                            x       y       z     vdW  Elec       q    Type
REMARK                         _______ _______ _______ _____ _____    ______ ____
ROOT
ATOM      1  N   UNL     1      35.448 -23.293 -16.130  0.00  0.00    -0.391 NA
ATOM      2  N   UNL     1      33.631 -22.294 -17.232  0.00  0.00    -0.288 N 
ATOM      3  N   UNL     1      31.767 -23.316 -12.653  0.00  0.00    -0.243 NA
ATOM      4  C   UNL     1      35.286 -24.058 -13.843  0.00  0.00    +0.098 C 
ATOM      5  C   UNL     1      33.922 -23.621 -13.798  0.00  0.00    +0.011 C 
ATOM      6  C   UNL     1      33.356 -23.024 -14.939  0.00  0.00    +0.044 C 
ATOM      7  C   UNL     1      35.999 -23.864 -15.048  0.00  0.00    +0.119 C 
ATOM      8  C   UNL     1      34.162 -22.891 -16.060  0.00  0.00    +0.183 C 
ATOM      9  C   UNL     1      35.960 -24.672 -12.758  0.00  0.00    -0.015 C 
ATOM     10  C   UNL     1      37.326 -24.279 -15.126  0.00  0.00    +0.035 C 
ATOM     11  C   UNL     1      32.026 -22.584 -14.933  0.00  0.00    +0.024 C 
ATOM     12  C   UNL     1      33.057 -23.730 -12.692  0.00  0.00    +0.095 C 
ATOM     13  C   UNL     1      37.974 -24.880 -14.048  0.00  0.00    +0.077 C 
ATOM     14  C   UNL     1      37.289 -25.077 -12.860  0.00  0.00    +0.003 C 
ATOM     15  C   UNL     1      31.285 -22.753 -13.778  0.00  0.00    +0.099 C 
ATOM     16  H   UNL     1      32.663 -22.432 -17.345  0.00  0.00    +0.155 HD
ENDROOT
BRANCH   2  18
ATOM     17 CL   UNL     1      33.011 -19.424 -21.431  0.00  0.00    -0.082 Cl
ATOM     18  C   UNL     1      34.219 -21.544 -18.262  0.00  0.00    +0.051 C 
ATOM     19  C   UNL     1      33.416 -20.931 -19.224  0.00  0.00    +0.026 C 
ATOM     20  C   UNL     1      35.607 -21.410 -18.323  0.00  0.00    +0.015 C 
ATOM     21  C   UNL     1      34.001 -20.182 -20.246  0.00  0.00    +0.059 C 
ATOM     22  C   UNL     1      36.190 -20.662 -19.345  0.00  0.00    +0.002 C 
ATOM     23  C   UNL     1      35.387 -20.048 -20.306  0.00  0.00    +0.011 C 
ENDBRANCH   2  18
BRANCH  13  25
ATOM     24  O   UNL     1      40.025 -25.280 -15.211  0.00  0.00    -0.245 OA
ATOM     25  C   UNL     1      39.361 -25.297 -14.169  0.00  0.00    +0.338 C 
BRANCH  25  26
ATOM     26  O   UNL     1      39.884 -25.721 -12.986  0.00  0.00    -0.477 OA
ATOM     27  H   UNL     1      40.525 -26.403 -12.975  0.00  0.00    +0.295 HD
ENDBRANCH  25  26
ENDBRANCH  13  25
TORSDOF 3
ENDMDL
MODEL 7
REMARK VINA RESULT:     -10.5      2.617      5.247
REMARK  Name = 24748573
REMARK  3 active torsions:
REMARK  status: ('A' for Active; 'I' for Inactive)
REMARK    1  A    between atoms: N_2  and  C_18
REMARK    2  A    between atoms: C_13  and  C_25
REMARK    3  A    between atoms: C_25  and  O_26
REMARK                            x       y       z     vdW  Elec       q    Type
REMARK                         _______ _______ _______ _____ _____    ______ ____
ROOT
ATOM      1  N   UNL     1      33.041 -22.839 -14.261  0.00  0.00    -0.391 NA
ATOM      2  N   UNL     1      31.647 -22.377 -16.093  0.00  0.00    -0.288 N 
ATOM      3  N   UNL     1      36.280 -21.732 -17.992  0.00  0.00    -0.243 NA
ATOM      4  C   UNL     1      35.449 -22.728 -14.433  0.00  0.00    +0.098 C 
ATOM      5  C   UNL     1      35.329 -22.354 -15.811  0.00  0.00    +0.011 C 
ATOM      6  C   UNL     1      34.048 -22.233 -16.379  0.00  0.00    +0.044 C 
ATOM      7  C   UNL     1      34.257 -22.958 -13.708  0.00  0.00    +0.119 C 
ATOM      8  C   UNL     1      32.957 -22.486 -15.561  0.00  0.00    +0.183 C 
ATOM      9  C   UNL     1      36.684 -22.879 -13.755  0.00  0.00    -0.015 C 
ATOM     10  C   UNL     1      34.339 -23.321 -12.366  0.00  0.00    +0.035 C 
ATOM     11  C   UNL     1      33.891 -21.870 -17.723  0.00  0.00    +0.024 C 
ATOM     12  C   UNL     1      36.398 -22.085 -16.688  0.00  0.00    +0.095 C 
ATOM     13  C   UNL     1      35.563 -23.466 -11.715  0.00  0.00    +0.077 C 
ATOM     14  C   UNL     1      36.739 -23.244 -12.412  0.00  0.00    +0.003 C 
ATOM     15  C   UNL     1      35.027 -21.633 -18.475  0.00  0.00    +0.099 C 
ATOM     16  H   UNL     1      31.567 -21.715 -16.818  0.00  0.00    +0.155 HD
ENDROOT
BRANCH   2  18
ATOM     17 CL   UNL     1      26.536 -22.172 -15.792  0.00  0.00    -0.082 Cl
ATOM     18  C   UNL     1      30.443 -23.029 -15.788  0.00  0.00    +0.051 C 
ATOM     19  C   UNL     1      29.230 -22.354 -15.923  0.00  0.00    +0.026 C 
ATOM     20  C   UNL     1      30.459 -24.354 -15.351  0.00  0.00    +0.015 C 
ATOM     21  C   UNL     1      28.033 -23.004 -15.623  0.00  0.00    +0.059 C 
ATOM     22  C   UNL     1      29.262 -25.003 -15.050  0.00  0.00    +0.002 C 
ATOM     23  C   UNL     1      28.049 -24.328 -15.187  0.00  0.00    +0.011 C 
ENDBRANCH   2  18
BRANCH  13  25
ATOM     24  O   UNL     1      36.249 -23.271  -9.432  0.00  0.00    -0.245 OA
ATOM     25  C   UNL     1      35.604 -23.849 -10.314  0.00  0.00    +0.338 C 
BRANCH  25  26
ATOM     26  O   UNL     1      34.837 -24.942 -10.049  0.00  0.00    -0.477 OA
ATOM     27  H   UNL     1      35.209 -25.680  -9.609  0.00  0.00    +0.295 HD
ENDBRANCH  25  26
ENDBRANCH  13  25
TORSDOF 3
ENDMDL
MODEL 8
REMARK VINA RESULT:     -10.3      2.847      4.779
REMARK  Name = 24748573
REMARK  3 active torsions:
REMARK  status: ('A' for Active; 'I' for Inactive)
REMARK    1  A    between atoms: N_2  and  C_18
REMARK    2  A    between atoms: C_13  and  C_25
REMARK    3  A    between atoms: C_25  and  O_26
REMARK                            x       y       z     vdW  Elec       q    Type
REMARK                         _______ _______ _______ _____ _____    ______ ____
ROOT
ATOM      1  N   UNL     1      34.499 -22.054 -15.904  0.00  0.00    -0.391 NA
ATOM      2  N   UNL     1      36.314 -21.364 -17.225  0.00  0.00    -0.288 N 
ATOM      3  N   UNL     1      38.439 -24.563 -13.950  0.00  0.00    -0.243 NA
ATOM      4  C   UNL     1      34.772 -23.626 -14.088  0.00  0.00    +0.098 C 
ATOM      5  C   UNL     1      36.175 -23.704 -14.372  0.00  0.00    +0.011 C 
ATOM      6  C   UNL     1      36.703 -22.943 -15.430  0.00  0.00    +0.044 C 
ATOM      7  C   UNL     1      33.984 -22.776 -14.897  0.00  0.00    +0.119 C 
ATOM      8  C   UNL     1      35.824 -22.147 -16.150  0.00  0.00    +0.183 C 
ATOM      9  C   UNL     1      34.130 -24.345 -13.050  0.00  0.00    -0.015 C 
ATOM     10  C   UNL     1      32.618 -22.675 -14.647  0.00  0.00    +0.035 C 
ATOM     11  C   UNL     1      38.069 -22.994 -15.738  0.00  0.00    +0.024 C 
ATOM     12  C   UNL     1      37.113 -24.492 -13.678  0.00  0.00    +0.095 C 
ATOM     13  C   UNL     1      32.003 -23.391 -13.621  0.00  0.00    +0.077 C 
ATOM     14  C   UNL     1      32.761 -24.228 -12.820  0.00  0.00    +0.003 C 
ATOM     15  C   UNL     1      38.883 -23.810 -14.975  0.00  0.00    +0.099 C 
ATOM     16  H   UNL     1      37.248 -21.074 -17.112  0.00  0.00    +0.155 HD
ENDROOT
BRANCH   2  18
ATOM     17 CL   UNL     1      36.595 -18.362 -21.369  0.00  0.00    -0.082 Cl
ATOM     18  C   UNL     1      35.726 -20.921 -18.419  0.00  0.00    +0.051 C 
ATOM     19  C   UNL     1      36.376 -19.970 -19.207  0.00  0.00    +0.026 C 
ATOM     20  C   UNL     1      34.492 -21.434 -18.821  0.00  0.00    +0.015 C 
ATOM     21  C   UNL     1      35.793 -19.533 -20.396  0.00  0.00    +0.059 C 
ATOM     22  C   UNL     1      33.909 -20.996 -20.011  0.00  0.00    +0.002 C 
ATOM     23  C   UNL     1      34.560 -20.047 -20.798  0.00  0.00    +0.011 C 
ENDBRANCH   2  18
BRANCH  13  25
ATOM     24  O   UNL     1      29.799 -22.578 -14.076  0.00  0.00    -0.245 OA
ATOM     25  C   UNL     1      30.573 -23.259 -13.394  0.00  0.00    +0.338 C 
BRANCH  25  26
ATOM     26  O   UNL     1      30.146 -23.984 -12.324  0.00  0.00    -0.477 OA
ATOM     27  H   UNL     1      30.768 -24.431 -11.783  0.00  0.00    +0.295 HD
ENDBRANCH  25  26
ENDBRANCH  13  25
TORSDOF 3
ENDMDL
MODEL 9
REMARK VINA RESULT:      -9.8     12.340     15.285
REMARK  Name = 24748573
REMARK  3 active torsions:
REMARK  status: ('A' for Active; 'I' for Inactive)
REMARK    1  A    between atoms: N_2  and  C_18
REMARK    2  A    between atoms: C_13  and  C_25
REMARK    3  A    between atoms: C_25  and  O_26
REMARK                            x       y       z     vdW  Elec       q    Type
REMARK                         _______ _______ _______ _____ _____    ______ ____
ROOT
ATOM      1  N   UNL     1      32.057  -9.997 -23.582  0.00  0.00    -0.391 NA
ATOM      2  N   UNL     1      31.362  -7.785 -23.211  0.00  0.00    -0.288 N 
ATOM      3  N   UNL     1      31.254  -9.807 -18.587  0.00  0.00    -0.243 NA
ATOM      4  C   UNL     1      32.249 -11.592 -21.776  0.00  0.00    +0.098 C 
ATOM      5  C   UNL     1      31.819 -10.587 -20.849  0.00  0.00    +0.011 C 
ATOM      6  C   UNL     1      31.518  -9.299 -21.326  0.00  0.00    +0.044 C 
ATOM      7  C   UNL     1      32.348 -11.229 -23.139  0.00  0.00    +0.119 C 
ATOM      8  C   UNL     1      31.655  -9.070 -22.688  0.00  0.00    +0.183 C 
ATOM      9  C   UNL     1      32.578 -12.920 -21.411  0.00  0.00    -0.015 C 
ATOM     10  C   UNL     1      32.761 -12.183 -24.066  0.00  0.00    +0.035 C 
ATOM     11  C   UNL     1      31.094  -8.290 -20.450  0.00  0.00    +0.024 C 
ATOM     12  C   UNL     1      31.661 -10.760 -19.460  0.00  0.00    +0.095 C 
ATOM     13  C   UNL     1      33.082 -13.486 -23.689  0.00  0.00    +0.077 C 
ATOM     14  C   UNL     1      32.990 -13.856 -22.358  0.00  0.00    +0.003 C 
ATOM     15  C   UNL     1      30.980  -8.594 -19.107  0.00  0.00    +0.099 C 
ATOM     16  H   UNL     1      30.672  -7.297 -22.705  0.00  0.00    +0.155 HD
ENDROOT
BRANCH   2  18
ATOM     17 CL   UNL     1      35.008  -4.739 -25.131  0.00  0.00    -0.082 Cl
ATOM     18  C   UNL     1      31.865  -7.073 -24.311  0.00  0.00    +0.051 C 
ATOM     19  C   UNL     1      33.047  -6.343 -24.188  0.00  0.00    +0.026 C 
ATOM     20  C   UNL     1      31.185  -7.099 -25.529  0.00  0.00    +0.015 C 
ATOM     21  C   UNL     1      33.550  -5.639 -25.282  0.00  0.00    +0.059 C 
ATOM     22  C   UNL     1      31.687  -6.395 -26.623  0.00  0.00    +0.002 C 
ATOM     23  C   UNL     1      32.870  -5.666 -26.499  0.00  0.00    +0.011 C 
ENDBRANCH   2  18
BRANCH  13  25
ATOM     24  O   UNL     1      33.062 -14.541 -25.836  0.00  0.00    -0.245 OA
ATOM     25  C   UNL     1      33.511 -14.450 -24.688  0.00  0.00    +0.338 C 
BRANCH  25  26
ATOM     26  O   UNL     1      34.493 -15.275 -24.229  0.00  0.00    -0.477 OA
ATOM     27  H   UNL     1      34.574 -15.438 -23.310  0.00  0.00    +0.295 HD
ENDBRANCH  25  26
ENDBRANCH  13  25
TORSDOF 3
ENDMDL
