MODEL 1
REMARK VINA RESULT:     -12.1      0.000      0.000
REMARK  Name = 46937116
REMARK  4 active torsions:
REMARK  status: ('A' for Active; 'I' for Inactive)
REMARK    1  A    between atoms: N_3  and  C_15
REMARK    2  A    between atoms: N_4  and  C_8
REMARK    3  A    between atoms: N_4  and  O_13
REMARK    4  A    between atoms: C_15  and  C_19
REMARK                            x       y       z     vdW  Elec       q    Type
REMARK                         _______ _______ _______ _____ _____    ______ ____
ROOT
ATOM      1  F   UNL     1      35.038 -20.489 -20.727  0.00  0.00    -0.204 F 
ATOM      2  O   UNL     1      32.953 -15.542 -25.433  0.00  0.00    -0.273 OA
ATOM      3  N   UNL     1      34.144 -15.759 -23.387  0.00  0.00    -0.253 N 
ATOM      4  C   UNL     1      34.466 -16.863 -22.574  0.00  0.00    +0.052 C 
ATOM      5  C   UNL     1      33.963 -18.040 -23.129  0.00  0.00    +0.021 C 
ATOM      6  C   UNL     1      33.421 -16.157 -24.499  0.00  0.00    +0.252 C 
ATOM      7  C   UNL     1      33.288 -17.654 -24.353  0.00  0.00    +0.202 C 
ATOM      8  C   UNL     1      35.172 -16.894 -21.386  0.00  0.00    +0.017 C 
ATOM      9  C   UNL     1      34.130 -19.277 -22.544  0.00  0.00    +0.029 C 
ATOM     10  C   UNL     1      35.357 -18.136 -20.770  0.00  0.00    +0.031 C 
ATOM     11  C   UNL     1      34.841 -19.316 -21.344  0.00  0.00    +0.140 C 
ENDROOT
BRANCH   7  12
ATOM     12  N   UNL     1      32.675 -18.411 -25.191  0.00  0.00    -0.075 NA
BRANCH  12  13
ATOM     13  O   UNL     1      31.416 -17.861 -25.451  0.00  0.00    -0.294 OA
ATOM     14  H   UNL     1      30.643 -18.370 -25.306  0.00  0.00    +0.238 HD
ENDBRANCH  12  13
ENDBRANCH   7  12
BRANCH   3  15
ATOM     15  C   UNL     1      34.529 -14.403 -23.075  0.00  0.00    +0.128 C 
BRANCH  15  19
ATOM     16  F   UNL     1      31.715 -14.412 -19.109  0.00  0.00    -0.204 F 
ATOM     17  O   UNL     1      33.536 -11.846 -23.616  0.00  0.00    -0.448 OA
ATOM     18  O   UNL     1      31.823 -10.183 -23.366  0.00  0.00    -0.311 OA
ATOM     19  C   UNL     1      33.526 -13.724 -22.188  0.00  0.00    +0.034 C 
ATOM     20  C   UNL     1      33.050 -12.446 -22.482  0.00  0.00    +0.138 C 
ATOM     21  C   UNL     1      32.103 -11.833 -21.653  0.00  0.00    +0.043 C 
ATOM     22  C   UNL     1      33.073 -14.387 -21.048  0.00  0.00    +0.030 C 
ATOM     23  C   UNL     1      31.601 -10.460 -21.985  0.00  0.00    +0.176 C 
ATOM     24  C   UNL     1      31.663 -12.500 -20.505  0.00  0.00    +0.031 C 
ATOM     25  C   UNL     1      32.145 -13.775 -20.206  0.00  0.00    +0.140 C 
ATOM     26  C   UNL     1      33.177 -10.463 -23.717  0.00  0.00    +0.361 C 
ENDBRANCH  15  19
ENDBRANCH   3  15
TORSDOF 4
ENDMDL
MODEL 2
REMARK VINA RESULT:     -10.7      9.181     12.471
REMARK  Name = 46937116
REMARK  4 active torsions:
REMARK  status: ('A' for Active; 'I' for Inactive)
REMARK    1  A    between atoms: N_3  and  C_15
REMARK    2  A    between atoms: N_4  and  C_8
REMARK    3  A    between atoms: N_4  and  O_13
REMARK    4  A    between atoms: C_15  and  C_19
REMARK                            x       y       z     vdW  Elec       q    Type
REMARK                         _______ _______ _______ _____ _____    ______ ____
ROOT
ATOM      1  F   UNL     1      34.685 -20.944 -20.857  0.00  0.00    -0.204 F 
ATOM      2  O   UNL     1      33.656 -23.231 -14.173  0.00  0.00    -0.273 OA
ATOM      3  N   UNL     1      35.268 -22.112 -15.515  0.00  0.00    -0.253 N 
ATOM      4  C   UNL     1      35.295 -21.734 -16.871  0.00  0.00    +0.052 C 
ATOM      5  C   UNL     1      34.114 -22.116 -17.507  0.00  0.00    +0.021 C 
ATOM      6  C   UNL     1      34.081 -22.753 -15.203  0.00  0.00    +0.252 C 
ATOM      7  C   UNL     1      33.303 -22.768 -16.497  0.00  0.00    +0.202 C 
ATOM      8  C   UNL     1      36.290 -21.079 -17.574  0.00  0.00    +0.017 C 
ATOM      9  C   UNL     1      33.867 -21.872 -18.841  0.00  0.00    +0.029 C 
ATOM     10  C   UNL     1      36.065 -20.818 -18.930  0.00  0.00    +0.031 C 
ATOM     11  C   UNL     1      34.866 -21.211 -19.557  0.00  0.00    +0.140 C 
ENDROOT
BRANCH   7  12
ATOM     12  N   UNL     1      32.132 -23.281 -16.632  0.00  0.00    -0.075 NA
BRANCH  12  13
ATOM     13  O   UNL     1      31.253 -22.612 -15.776  0.00  0.00    -0.294 OA
ATOM     14  H   UNL     1      30.863 -23.067 -15.055  0.00  0.00    +0.238 HD
ENDBRANCH  12  13
ENDBRANCH   7  12
BRANCH   3  15
ATOM     15  C   UNL     1      36.352 -21.853 -14.596  0.00  0.00    +0.128 C 
BRANCH  15  19
ATOM     16  F   UNL     1      39.781 -25.116 -15.708  0.00  0.00    -0.204 F 
ATOM     17  O   UNL     1      35.888 -23.326 -12.265  0.00  0.00    -0.448 OA
ATOM     18  O   UNL     1      36.001 -25.396 -11.054  0.00  0.00    -0.311 OA
ATOM     19  C   UNL     1      37.119 -23.101 -14.265  0.00  0.00    +0.034 C 
ATOM     20  C   UNL     1      36.867 -23.814 -13.093  0.00  0.00    +0.138 C 
ATOM     21  C   UNL     1      37.580 -24.984 -12.808  0.00  0.00    +0.043 C 
ATOM     22  C   UNL     1      38.103 -23.544 -15.148  0.00  0.00    +0.030 C 
ATOM     23  C   UNL     1      37.295 -25.739 -11.544  0.00  0.00    +0.176 C 
ATOM     24  C   UNL     1      38.574 -25.414 -13.693  0.00  0.00    +0.031 C 
ATOM     25  C   UNL     1      38.832 -24.696 -14.861  0.00  0.00    +0.140 C 
ATOM     26  C   UNL     1      35.854 -23.979 -10.991  0.00  0.00    +0.361 C 
ENDBRANCH  15  19
ENDBRANCH   3  15
TORSDOF 4
ENDMDL
MODEL 3
REMARK VINA RESULT:     -10.3      9.323     12.556
REMARK  Name = 46937116
REMARK  4 active torsions:
REMARK  status: ('A' for Active; 'I' for Inactive)
REMARK    1  A    between atoms: N_3  and  C_15
REMARK    2  A    between atoms: N_4  and  C_8
REMARK    3  A    between atoms: N_4  and  O_13
REMARK    4  A    between atoms: C_15  and  C_19
REMARK                            x       y       z     vdW  Elec       q    Type
REMARK                         _______ _______ _______ _____ _____    ______ ____
ROOT
ATOM      1  F   UNL     1      30.286 -23.656 -15.826  0.00  0.00    -0.204 F 
ATOM      2  O   UNL     1      36.821 -21.344 -17.531  0.00  0.00    -0.273 OA
ATOM      3  N   UNL     1      35.519 -21.975 -15.645  0.00  0.00    -0.253 N 
ATOM      4  C   UNL     1      34.191 -22.422 -15.499  0.00  0.00    +0.052 C 
ATOM      5  C   UNL     1      33.561 -22.492 -16.741  0.00  0.00    +0.021 C 
ATOM      6  C   UNL     1      35.816 -21.732 -16.975  0.00  0.00    +0.252 C 
ATOM      7  C   UNL     1      34.544 -22.064 -17.718  0.00  0.00    +0.202 C 
ATOM      8  C   UNL     1      33.511 -22.770 -14.346  0.00  0.00    +0.017 C 
ATOM      9  C   UNL     1      32.254 -22.899 -16.898  0.00  0.00    +0.029 C 
ATOM     10  C   UNL     1      32.182 -23.187 -14.477  0.00  0.00    +0.031 C 
ATOM     11  C   UNL     1      31.560 -23.251 -15.739  0.00  0.00    +0.140 C 
ENDROOT
BRANCH   7  12
ATOM     12  N   UNL     1      34.404 -21.970 -18.992  0.00  0.00    -0.075 NA
BRANCH  12  13
ATOM     13  O   UNL     1      34.794 -20.687 -19.388  0.00  0.00    -0.294 OA
ATOM     14  H   UNL     1      34.497 -19.938 -18.909  0.00  0.00    +0.238 HD
ENDBRANCH  12  13
ENDBRANCH   7  12
BRANCH   3  15
ATOM     15  C   UNL     1      36.426 -21.802 -14.534  0.00  0.00    +0.128 C 
BRANCH  15  19
ATOM     16  F   UNL     1      39.806 -25.125 -15.620  0.00  0.00    -0.204 F 
ATOM     17  O   UNL     1      35.882 -23.295 -12.233  0.00  0.00    -0.448 OA
ATOM     18  O   UNL     1      35.926 -25.382 -11.048  0.00  0.00    -0.311 OA
ATOM     19  C   UNL     1      37.159 -23.070 -14.205  0.00  0.00    +0.034 C 
ATOM     20  C   UNL     1      36.868 -23.793 -13.047  0.00  0.00    +0.138 C 
ATOM     21  C   UNL     1      37.550 -24.982 -12.763  0.00  0.00    +0.043 C 
ATOM     22  C   UNL     1      38.152 -23.523 -15.073  0.00  0.00    +0.030 C 
ATOM     23  C   UNL     1      37.223 -25.747 -11.516  0.00  0.00    +0.176 C 
ATOM     24  C   UNL     1      38.552 -25.422 -13.633  0.00  0.00    +0.031 C 
ATOM     25  C   UNL     1      38.849 -24.695 -14.786  0.00  0.00    +0.140 C 
ATOM     26  C   UNL     1      35.809 -23.963 -10.969  0.00  0.00    +0.361 C 
ENDBRANCH  15  19
ENDBRANCH   3  15
TORSDOF 4
ENDMDL
MODEL 4
REMARK VINA RESULT:     -10.2      9.534     12.638
REMARK  Name = 46937116
REMARK  4 active torsions:
REMARK  status: ('A' for Active; 'I' for Inactive)
REMARK    1  A    between atoms: N_3  and  C_15
REMARK    2  A    between atoms: N_4  and  C_8
REMARK    3  A    between atoms: N_4  and  O_13
REMARK    4  A    between atoms: C_15  and  C_19
REMARK                            x       y       z     vdW  Elec       q    Type
REMARK                         _______ _______ _______ _____ _____    ______ ____
ROOT
ATOM      1  F   UNL     1      29.027 -23.636 -14.564  0.00  0.00    -0.204 F 
ATOM      2  O   UNL     1      35.079 -21.858 -17.907  0.00  0.00    -0.273 OA
ATOM      3  N   UNL     1      34.252 -22.387 -15.742  0.00  0.00    -0.253 N 
ATOM      4  C   UNL     1      32.973 -22.725 -15.257  0.00  0.00    +0.052 C 
ATOM      5  C   UNL     1      32.045 -22.739 -16.298  0.00  0.00    +0.021 C 
ATOM      6  C   UNL     1      34.220 -22.165 -17.109  0.00  0.00    +0.252 C 
ATOM      7  C   UNL     1      32.778 -22.389 -17.499  0.00  0.00    +0.202 C 
ATOM      8  C   UNL     1      32.582 -23.021 -13.964  0.00  0.00    +0.017 C 
ATOM      9  C   UNL     1      30.712 -23.038 -16.112  0.00  0.00    +0.029 C 
ATOM     10  C   UNL     1      31.234 -23.328 -13.747  0.00  0.00    +0.031 C 
ATOM     11  C   UNL     1      30.309 -23.336 -14.810  0.00  0.00    +0.140 C 
ENDROOT
BRANCH   7  12
ATOM     12  N   UNL     1      32.328 -22.279 -18.698  0.00  0.00    -0.075 NA
BRANCH  12  13
ATOM     13  O   UNL     1      32.275 -20.922 -19.030  0.00  0.00    -0.294 OA
ATOM     14  H   UNL     1      31.899 -20.653 -19.846  0.00  0.00    +0.238 HD
ENDBRANCH  12  13
ENDBRANCH   7  12
BRANCH   3  15
ATOM     15  C   UNL     1      35.421 -22.293 -14.901  0.00  0.00    +0.128 C 
BRANCH  15  19
ATOM     16  F   UNL     1      36.398 -26.998 -15.643  0.00  0.00    -0.204 F 
ATOM     17  O   UNL     1      36.070 -22.715 -12.214  0.00  0.00    -0.448 OA
ATOM     18  O   UNL     1      36.307 -24.194 -10.337  0.00  0.00    -0.311 OA
ATOM     19  C   UNL     1      35.845 -23.634 -14.375  0.00  0.00    +0.034 C 
ATOM     20  C   UNL     1      36.165 -23.814 -13.029  0.00  0.00    +0.138 C 
ATOM     21  C   UNL     1      36.543 -25.075 -12.553  0.00  0.00    +0.043 C 
ATOM     22  C   UNL     1      35.923 -24.712 -15.256  0.00  0.00    +0.030 C 
ATOM     23  C   UNL     1      36.882 -25.251 -11.103  0.00  0.00    +0.176 C 
ATOM     24  C   UNL     1      36.631 -26.148 -13.446  0.00  0.00    +0.031 C 
ATOM     25  C   UNL     1      36.319 -25.966 -14.793  0.00  0.00    +0.140 C 
ATOM     26  C   UNL     1      36.632 -22.931 -10.914  0.00  0.00    +0.361 C 
ENDBRANCH  15  19
ENDBRANCH   3  15
TORSDOF 4
ENDMDL
MODEL 5
REMARK VINA RESULT:     -10.1      3.508      6.972
REMARK  Name = 46937116
REMARK  4 active torsions:
REMARK  status: ('A' for Active; 'I' for Inactive)
REMARK    1  A    between atoms: N_3  and  C_15
REMARK    2  A    between atoms: N_4  and  C_8
REMARK    3  A    between atoms: N_4  and  O_13
REMARK    4  A    between atoms: C_15  and  C_19
REMARK                            x       y       z     vdW  Elec       q    Type
REMARK                         _______ _______ _______ _____ _____    ______ ____
ROOT
ATOM      1  F   UNL     1      32.835 -12.315 -21.678  0.00  0.00    -0.204 F 
ATOM      2  O   UNL     1      35.065 -18.735 -23.863  0.00  0.00    -0.273 OA
ATOM      3  N   UNL     1      34.877 -17.417 -21.893  0.00  0.00    -0.253 N 
ATOM      4  C   UNL     1      34.391 -16.118 -21.649  0.00  0.00    +0.052 C 
ATOM      5  C   UNL     1      33.942 -15.534 -22.833  0.00  0.00    +0.021 C 
ATOM      6  C   UNL     1      34.771 -17.740 -23.236  0.00  0.00    +0.252 C 
ATOM      7  C   UNL     1      34.159 -16.517 -23.877  0.00  0.00    +0.202 C 
ATOM      8  C   UNL     1      34.321 -15.425 -20.454  0.00  0.00    +0.017 C 
ATOM      9  C   UNL     1      33.414 -14.262 -22.890  0.00  0.00    +0.029 C 
ATOM     10  C   UNL     1      33.789 -14.131 -20.483  0.00  0.00    +0.031 C 
ATOM     11  C   UNL     1      33.340 -13.556 -21.689  0.00  0.00    +0.140 C 
ENDROOT
BRANCH   7  12
ATOM     12  N   UNL     1      33.894 -16.413 -25.130  0.00  0.00    -0.075 NA
BRANCH  12  13
ATOM     13  O   UNL     1      32.558 -16.770 -25.333  0.00  0.00    -0.294 OA
ATOM     14  H   UNL     1      32.027 -17.032 -24.607  0.00  0.00    +0.238 HD
ENDBRANCH  12  13
ENDBRANCH   7  12
BRANCH   3  15
ATOM     15  C   UNL     1      35.410 -18.274 -20.861  0.00  0.00    +0.128 C 
BRANCH  15  19
ATOM     16  F   UNL     1      30.963 -20.226 -21.113  0.00  0.00    -0.204 F 
ATOM     17  O   UNL     1      36.025 -20.240 -18.970  0.00  0.00    -0.448 OA
ATOM     18  O   UNL     1      35.320 -21.819 -17.304  0.00  0.00    -0.311 OA
ATOM     19  C   UNL     1      34.413 -19.306 -20.417  0.00  0.00    +0.034 C 
ATOM     20  C   UNL     1      34.749 -20.277 -19.474  0.00  0.00    +0.138 C 
ATOM     21  C   UNL     1      33.803 -21.221 -19.060  0.00  0.00    +0.043 C 
ATOM     22  C   UNL     1      33.132 -19.290 -20.969  0.00  0.00    +0.030 C 
ATOM     23  C   UNL     1      34.181 -22.256 -18.043  0.00  0.00    +0.176 C 
ATOM     24  C   UNL     1      32.525 -21.206 -19.627  0.00  0.00    +0.031 C 
ATOM     25  C   UNL     1      32.191 -20.240 -20.577  0.00  0.00    +0.140 C 
ATOM     26  C   UNL     1      36.353 -21.396 -18.191  0.00  0.00    +0.361 C 
ENDBRANCH  15  19
ENDBRANCH   3  15
TORSDOF 4
ENDMDL
MODEL 6
REMARK VINA RESULT:     -10.0      2.960      4.494
REMARK  Name = 46937116
REMARK  4 active torsions:
REMARK  status: ('A' for Active; 'I' for Inactive)
REMARK    1  A    between atoms: N_3  and  C_15
REMARK    2  A    between atoms: N_4  and  C_8
REMARK    3  A    between atoms: N_4  and  O_13
REMARK    4  A    between atoms: C_15  and  C_19
REMARK                            x       y       z     vdW  Elec       q    Type
REMARK                         _______ _______ _______ _____ _____    ______ ____
ROOT
ATOM      1  F   UNL     1      34.892 -16.606 -20.607  0.00  0.00    -0.204 F 
ATOM      2  O   UNL     1      32.199 -12.254 -25.584  0.00  0.00    -0.273 OA
ATOM      3  N   UNL     1      32.534 -12.389 -23.235  0.00  0.00    -0.253 N 
ATOM      4  C   UNL     1      33.107 -13.368 -22.400  0.00  0.00    +0.052 C 
ATOM      5  C   UNL     1      33.551 -14.453 -23.154  0.00  0.00    +0.021 C 
ATOM      6  C   UNL     1      32.575 -12.785 -24.561  0.00  0.00    +0.252 C 
ATOM      7  C   UNL     1      33.239 -14.141 -24.536  0.00  0.00    +0.202 C 
ATOM      8  C   UNL     1      33.261 -13.359 -21.025  0.00  0.00    +0.017 C 
ATOM      9  C   UNL     1      34.154 -15.560 -22.596  0.00  0.00    +0.029 C 
ATOM     10  C   UNL     1      33.870 -14.470 -20.432  0.00  0.00    +0.031 C 
ATOM     11  C   UNL     1      34.312 -15.559 -21.209  0.00  0.00    +0.140 C 
ENDROOT
BRANCH   7  12
ATOM     12  N   UNL     1      33.467 -14.854 -25.580  0.00  0.00    -0.075 NA
BRANCH  12  13
ATOM     13  O   UNL     1      32.721 -16.033 -25.485  0.00  0.00    -0.294 OA
ATOM     14  H   UNL     1      31.906 -16.110 -25.942  0.00  0.00    +0.238 HD
ENDBRANCH  12  13
ENDBRANCH   7  12
BRANCH   3  15
ATOM     15  C   UNL     1      31.985 -11.147 -22.743  0.00  0.00    +0.128 C 
BRANCH  15  19
ATOM     16  F   UNL     1      35.937  -9.314 -24.905  0.00  0.00    -0.204 F 
ATOM     17  O   UNL     1      31.389  -8.544 -21.915  0.00  0.00    -0.448 OA
ATOM     18  O   UNL     1      32.099  -6.308 -21.403  0.00  0.00    -0.311 OA
ATOM     19  C   UNL     1      32.859  -9.974 -23.081  0.00  0.00    +0.034 C 
ATOM     20  C   UNL     1      32.534  -8.685 -22.656  0.00  0.00    +0.138 C 
ATOM     21  C   UNL     1      33.368  -7.605 -22.967  0.00  0.00    +0.043 C 
ATOM     22  C   UNL     1      34.010 -10.184 -23.840  0.00  0.00    +0.030 C 
ATOM     23  C   UNL     1      33.004  -6.227 -22.501  0.00  0.00    +0.176 C 
ATOM     24  C   UNL     1      34.514  -7.823 -23.739  0.00  0.00    +0.031 C 
ATOM     25  C   UNL     1      34.834  -9.110 -24.171  0.00  0.00    +0.140 C 
ATOM     26  C   UNL     1      31.012  -7.176 -21.720  0.00  0.00    +0.361 C 
ENDBRANCH  15  19
ENDBRANCH   3  15
TORSDOF 4
ENDMDL
MODEL 7
REMARK VINA RESULT:     -10.0      9.045     12.309
REMARK  Name = 46937116
REMARK  4 active torsions:
REMARK  status: ('A' for Active; 'I' for Inactive)
REMARK    1  A    between atoms: N_3  and  C_15
REMARK    2  A    between atoms: N_4  and  C_8
REMARK    3  A    between atoms: N_4  and  O_13
REMARK    4  A    between atoms: C_15  and  C_19
REMARK                            x       y       z     vdW  Elec       q    Type
REMARK                         _______ _______ _______ _____ _____    ______ ____
ROOT
ATOM      1  F   UNL     1      36.130 -20.758 -19.490  0.00  0.00    -0.204 F 
ATOM      2  O   UNL     1      31.194 -23.483 -15.111  0.00  0.00    -0.273 OA
ATOM      3  N   UNL     1      33.518 -22.989 -15.195  0.00  0.00    -0.253 N 
ATOM      4  C   UNL     1      34.347 -22.430 -16.187  0.00  0.00    +0.052 C 
ATOM      5  C   UNL     1      33.604 -22.121 -17.326  0.00  0.00    +0.021 C 
ATOM      6  C   UNL     1      32.208 -23.073 -15.635  0.00  0.00    +0.252 C 
ATOM      7  C   UNL     1      32.237 -22.508 -17.036  0.00  0.00    +0.202 C 
ATOM      8  C   UNL     1      35.706 -22.178 -16.146  0.00  0.00    +0.017 C 
ATOM      9  C   UNL     1      34.160 -21.561 -18.456  0.00  0.00    +0.029 C 
ATOM     10  C   UNL     1      36.297 -21.609 -17.280  0.00  0.00    +0.031 C 
ATOM     11  C   UNL     1      35.531 -21.304 -18.423  0.00  0.00    +0.140 C 
ENDROOT
BRANCH   7  12
ATOM     12  N   UNL     1      31.207 -22.408 -17.797  0.00  0.00    -0.075 NA
BRANCH  12  13
ATOM     13  O   UNL     1      30.153 -21.870 -17.051  0.00  0.00    -0.294 OA
ATOM     14  H   UNL     1      30.136 -20.953 -16.858  0.00  0.00    +0.238 HD
ENDBRANCH  12  13
ENDBRANCH   7  12
BRANCH   3  15
ATOM     15  C   UNL     1      34.001 -23.411 -13.901  0.00  0.00    +0.128 C 
BRANCH  15  19
ATOM     16  F   UNL     1      36.388 -27.215 -15.766  0.00  0.00    -0.204 F 
ATOM     17  O   UNL     1      36.342 -22.791 -12.504  0.00  0.00    -0.448 OA
ATOM     18  O   UNL     1      38.435 -23.471 -11.545  0.00  0.00    -0.311 OA
ATOM     19  C   UNL     1      35.248 -24.240 -14.010  0.00  0.00    +0.034 C 
ATOM     20  C   UNL     1      36.402 -23.905 -13.303  0.00  0.00    +0.138 C 
ATOM     21  C   UNL     1      37.551 -24.698 -13.403  0.00  0.00    +0.043 C 
ATOM     22  C   UNL     1      35.245 -25.360 -14.842  0.00  0.00    +0.030 C 
ATOM     23  C   UNL     1      38.782 -24.323 -12.634  0.00  0.00    +0.176 C 
ATOM     24  C   UNL     1      37.544 -25.812 -14.249  0.00  0.00    +0.031 C 
ATOM     25  C   UNL     1      36.392 -26.143 -14.963  0.00  0.00    +0.140 C 
ATOM     26  C   UNL     1      37.622 -22.392 -12.001  0.00  0.00    +0.361 C 
ENDBRANCH  15  19
ENDBRANCH   3  15
TORSDOF 4
ENDMDL
MODEL 8
REMARK VINA RESULT:      -9.5      9.339     12.488
REMARK  Name = 46937116
REMARK  4 active torsions:
REMARK  status: ('A' for Active; 'I' for Inactive)
REMARK    1  A    between atoms: N_3  and  C_15
REMARK    2  A    between atoms: N_4  and  C_8
REMARK    3  A    between atoms: N_4  and  O_13
REMARK    4  A    between atoms: C_15  and  C_19
REMARK                            x       y       z     vdW  Elec       q    Type
REMARK                         _______ _______ _______ _____ _____    ______ ____
ROOT
ATOM      1  F   UNL     1      34.736 -21.229 -20.601  0.00  0.00    -0.204 F 
ATOM      2  O   UNL     1      33.503 -23.186 -13.847  0.00  0.00    -0.273 OA
ATOM      3  N   UNL     1      35.173 -22.168 -15.199  0.00  0.00    -0.253 N 
ATOM      4  C   UNL     1      35.239 -21.852 -16.571  0.00  0.00    +0.052 C 
ATOM      5  C   UNL     1      34.063 -22.234 -17.216  0.00  0.00    +0.021 C 
ATOM      6  C   UNL     1      33.963 -22.765 -14.887  0.00  0.00    +0.252 C 
ATOM      7  C   UNL     1      33.214 -22.821 -16.197  0.00  0.00    +0.202 C 
ATOM      8  C   UNL     1      36.265 -21.253 -17.278  0.00  0.00    +0.017 C 
ATOM      9  C   UNL     1      33.851 -22.045 -18.565  0.00  0.00    +0.029 C 
ATOM     10  C   UNL     1      36.076 -21.049 -18.649  0.00  0.00    +0.031 C 
ATOM     11  C   UNL     1      34.882 -21.441 -19.286  0.00  0.00    +0.140 C 
ENDROOT
BRANCH   7  12
ATOM     12  N   UNL     1      32.034 -23.311 -16.336  0.00  0.00    -0.075 NA
BRANCH  12  13
ATOM     13  O   UNL     1      31.163 -22.620 -15.488  0.00  0.00    -0.294 OA
ATOM     14  H   UNL     1      31.065 -22.890 -14.596  0.00  0.00    +0.238 HD
ENDBRANCH  12  13
ENDBRANCH   7  12
BRANCH   3  15
ATOM     15  C   UNL     1      36.241 -21.893 -14.268  0.00  0.00    +0.128 C 
BRANCH  15  19
ATOM     16  F   UNL     1      35.370 -24.921 -10.565  0.00  0.00    -0.204 F 
ATOM     17  O   UNL     1      38.458 -23.484 -14.879  0.00  0.00    -0.448 OA
ATOM     18  O   UNL     1      40.143 -25.054 -14.201  0.00  0.00    -0.311 OA
ATOM     19  C   UNL     1      36.610 -23.105 -13.463  0.00  0.00    +0.034 C 
ATOM     20  C   UNL     1      37.720 -23.882 -13.793  0.00  0.00    +0.138 C 
ATOM     21  C   UNL     1      38.059 -25.000 -13.022  0.00  0.00    +0.043 C 
ATOM     22  C   UNL     1      35.817 -23.458 -12.370  0.00  0.00    +0.030 C 
ATOM     23  C   UNL     1      39.257 -25.822 -13.390  0.00  0.00    +0.176 C 
ATOM     24  C   UNL     1      37.252 -25.354 -11.935  0.00  0.00    +0.031 C 
ATOM     25  C   UNL     1      36.136 -24.582 -11.610  0.00  0.00    +0.140 C 
ATOM     26  C   UNL     1      39.431 -24.454 -15.282  0.00  0.00    +0.361 C 
ENDBRANCH  15  19
ENDBRANCH   3  15
TORSDOF 4
ENDMDL
MODEL 9
REMARK VINA RESULT:      -9.4      9.875     12.561
REMARK  Name = 46937116
REMARK  4 active torsions:
REMARK  status: ('A' for Active; 'I' for Inactive)
REMARK    1  A    between atoms: N_3  and  C_15
REMARK    2  A    between atoms: N_4  and  C_8
REMARK    3  A    between atoms: N_4  and  O_13
REMARK    4  A    between atoms: C_15  and  C_19
REMARK                            x       y       z     vdW  Elec       q    Type
REMARK                         _______ _______ _______ _____ _____    ______ ____
ROOT
ATOM      1  F   UNL     1      29.076 -23.581 -14.650  0.00  0.00    -0.204 F 
ATOM      2  O   UNL     1      35.611 -22.281 -17.212  0.00  0.00    -0.273 OA
ATOM      3  N   UNL     1      34.384 -22.241 -15.177  0.00  0.00    -0.253 N 
ATOM      4  C   UNL     1      33.047 -22.543 -14.854  0.00  0.00    +0.052 C 
ATOM      5  C   UNL     1      32.348 -22.942 -15.994  0.00  0.00    +0.021 C 
ATOM      6  C   UNL     1      34.620 -22.425 -16.529  0.00  0.00    +0.252 C 
ATOM      7  C   UNL     1      33.296 -22.885 -17.090  0.00  0.00    +0.202 C 
ATOM      8  C   UNL     1      32.414 -22.490 -13.626  0.00  0.00    +0.017 C 
ATOM      9  C   UNL     1      31.017 -23.298 -15.972  0.00  0.00    +0.029 C 
ATOM     10  C   UNL     1      31.062 -22.847 -13.575  0.00  0.00    +0.031 C 
ATOM     11  C   UNL     1      30.371 -23.246 -14.736  0.00  0.00    +0.140 C 
ENDROOT
BRANCH   7  12
ATOM     12  N   UNL     1      33.093 -23.166 -18.327  0.00  0.00    -0.075 NA
BRANCH  12  13
ATOM     13  O   UNL     1      32.407 -22.101 -18.919  0.00  0.00    -0.294 OA
ATOM     14  H   UNL     1      32.830 -21.270 -19.021  0.00  0.00    +0.238 HD
ENDBRANCH  12  13
ENDBRANCH   7  12
BRANCH   3  15
ATOM     15  C   UNL     1      35.356 -21.800 -14.205  0.00  0.00    +0.128 C 
BRANCH  15  19
ATOM     16  F   UNL     1      34.978 -24.889 -10.468  0.00  0.00    -0.204 F 
ATOM     17  O   UNL     1      37.760 -23.075 -14.847  0.00  0.00    -0.448 OA
ATOM     18  O   UNL     1      39.658 -24.392 -14.193  0.00  0.00    -0.311 OA
ATOM     19  C   UNL     1      35.903 -22.943 -13.399  0.00  0.00    +0.034 C 
ATOM     20  C   UNL     1      37.104 -23.562 -13.746  0.00  0.00    +0.138 C 
ATOM     21  C   UNL     1      37.607 -24.616 -12.974  0.00  0.00    +0.043 C 
ATOM     22  C   UNL     1      35.186 -23.393 -12.290  0.00  0.00    +0.030 C 
ATOM     23  C   UNL     1      38.901 -25.268 -13.360  0.00  0.00    +0.176 C 
ATOM     24  C   UNL     1      36.876 -25.069 -11.871  0.00  0.00    +0.031 C 
ATOM     25  C   UNL     1      35.671 -24.456 -11.530  0.00  0.00    +0.140 C 
ATOM     26  C   UNL     1      38.851 -23.905 -15.263  0.00  0.00    +0.361 C 
ENDBRANCH  15  19
ENDBRANCH   3  15
TORSDOF 4
ENDMDL
