MODEL 1
REMARK VINA RESULT:     -11.9      0.000      0.000
REMARK  Name = 6102820
REMARK  2 active torsions:
REMARK  status: ('A' for Active; 'I' for Inactive)
REMARK    1  A    between atoms: N_3  and  S_13
REMARK    2  A    between atoms: S_13  and  C_18
REMARK                            x       y       z     vdW  Elec       q    Type
REMARK                         _______ _______ _______ _____ _____    ______ ____
ROOT
ATOM      1 CL   UNL     1      32.321 -10.638 -22.892  0.00  0.00    -0.086 Cl
ATOM      2  O   UNL     1      34.312 -16.086 -22.678  0.00  0.00    -0.413 OA
ATOM      3  N   UNL     1      34.945 -17.306 -20.626  0.00  0.00    -0.158 N 
ATOM      4  N   UNL     1      34.114 -15.027 -20.684  0.00  0.00    -0.355 NA
ATOM      5  C   UNL     1      34.452 -16.125 -21.324  0.00  0.00    +0.364 C 
ATOM      6  C   UNL     1      33.716 -14.184 -21.693  0.00  0.00    +0.153 C 
ATOM      7  C   UNL     1      33.835 -14.828 -22.914  0.00  0.00    +0.175 C 
ATOM      8  C   UNL     1      33.240 -12.865 -21.666  0.00  0.00    +0.100 C 
ATOM      9  C   UNL     1      33.516 -14.263 -24.143  0.00  0.00    +0.041 C 
ATOM     10  C   UNL     1      32.908 -12.259 -22.887  0.00  0.00    +0.043 C 
ATOM     11  C   UNL     1      33.044 -12.946 -24.099  0.00  0.00    +0.011 C 
ATOM     12  H   UNL     1      35.024 -17.272 -19.645  0.00  0.00    +0.179 HD
ENDROOT
BRANCH   3  13
ATOM     13  S   UNL     1      35.383 -18.723 -21.412  0.00  0.00    +0.078 S 
ATOM     14  O   UNL     1      36.826 -18.793 -21.546  0.00  0.00    -0.150 OA
ATOM     15  O   UNL     1      34.527 -18.942 -22.563  0.00  0.00    -0.150 OA
BRANCH  13  18
ATOM     16 CL   UNL     1      32.344 -19.786 -21.106  0.00  0.00    -0.081 Cl
ATOM     17 CL   UNL     1      36.793 -21.866 -17.263  0.00  0.00    -0.082 Cl
ATOM     18  C   UNL     1      34.912 -19.897 -20.176  0.00  0.00    +0.137 C 
ATOM     19  C   UNL     1      33.603 -20.340 -20.062  0.00  0.00    +0.077 C 
ATOM     20  C   UNL     1      35.902 -20.358 -19.322  0.00  0.00    +0.032 C 
ATOM     21  C   UNL     1      35.575 -21.284 -18.330  0.00  0.00    +0.059 C 
ATOM     22  C   UNL     1      33.276 -21.264 -19.071  0.00  0.00    +0.014 C 
ATOM     23  C   UNL     1      34.262 -21.737 -18.205  0.00  0.00    +0.012 C 
ENDBRANCH  13  18
ENDBRANCH   3  13
TORSDOF 2
ENDMDL
MODEL 2
REMARK VINA RESULT:     -11.0      5.421      7.822
REMARK  Name = 6102820
REMARK  2 active torsions:
REMARK  status: ('A' for Active; 'I' for Inactive)
REMARK    1  A    between atoms: N_3  and  S_13
REMARK    2  A    between atoms: S_13  and  C_18
REMARK                            x       y       z     vdW  Elec       q    Type
REMARK                         _______ _______ _______ _____ _____    ______ ____
ROOT
ATOM      1 CL   UNL     1      34.281 -18.781 -22.459  0.00  0.00    -0.086 Cl
ATOM      2  O   UNL     1      34.036 -21.884 -17.560  0.00  0.00    -0.413 OA
ATOM      3  N   UNL     1      35.977 -22.578 -16.199  0.00  0.00    -0.158 N 
ATOM      4  N   UNL     1      36.111 -21.279 -18.245  0.00  0.00    -0.355 NA
ATOM      5  C   UNL     1      35.381 -21.905 -17.347  0.00  0.00    +0.364 C 
ATOM      6  C   UNL     1      35.177 -20.800 -19.131  0.00  0.00    +0.153 C 
ATOM      7  C   UNL     1      33.906 -21.167 -18.716  0.00  0.00    +0.175 C 
ATOM      8  C   UNL     1      35.314 -20.048 -20.307  0.00  0.00    +0.100 C 
ATOM      9  C   UNL     1      32.731 -20.847 -19.383  0.00  0.00    +0.041 C 
ATOM     10  C   UNL     1      34.149 -19.704 -21.009  0.00  0.00    +0.043 C 
ATOM     11  C   UNL     1      32.885 -20.097 -20.554  0.00  0.00    +0.011 C 
ATOM     12  H   UNL     1      36.957 -22.558 -16.101  0.00  0.00    +0.179 HD
ENDROOT
BRANCH   3  13
ATOM     13  S   UNL     1      35.075 -23.385 -15.036  0.00  0.00    +0.078 S 
ATOM     14  O   UNL     1      34.333 -24.472 -15.646  0.00  0.00    -0.150 OA
ATOM     15  O   UNL     1      34.405 -22.431 -14.172  0.00  0.00    -0.150 OA
BRANCH  13  18
ATOM     16 CL   UNL     1      34.725 -24.244 -11.937  0.00  0.00    -0.081 Cl
ATOM     17 CL   UNL     1      40.183 -25.102 -14.830  0.00  0.00    -0.082 Cl
ATOM     18  C   UNL     1      36.391 -24.106 -14.100  0.00  0.00    +0.137 C 
ATOM     19  C   UNL     1      36.220 -24.468 -12.772  0.00  0.00    +0.077 C 
ATOM     20  C   UNL     1      37.604 -24.296 -14.744  0.00  0.00    +0.032 C 
ATOM     21  C   UNL     1      38.671 -24.861 -14.044  0.00  0.00    +0.059 C 
ATOM     22  C   UNL     1      37.286 -25.031 -12.072  0.00  0.00    +0.014 C 
ATOM     23  C   UNL     1      38.512 -25.229 -12.708  0.00  0.00    +0.012 C 
ENDBRANCH  13  18
ENDBRANCH   3  13
TORSDOF 2
ENDMDL
MODEL 3
REMARK VINA RESULT:     -10.9      2.247      7.832
REMARK  Name = 6102820
REMARK  2 active torsions:
REMARK  status: ('A' for Active; 'I' for Inactive)
REMARK    1  A    between atoms: N_3  and  S_13
REMARK    2  A    between atoms: S_13  and  C_18
REMARK                            x       y       z     vdW  Elec       q    Type
REMARK                         _______ _______ _______ _____ _____    ______ ____
ROOT
ATOM      1 CL   UNL     1      32.393 -23.892 -15.859  0.00  0.00    -0.086 Cl
ATOM      2  O   UNL     1      34.947 -20.171 -19.508  0.00  0.00    -0.413 OA
ATOM      3  N   UNL     1      33.830 -18.976 -21.359  0.00  0.00    -0.158 N 
ATOM      4  N   UNL     1      32.734 -20.527 -19.847  0.00  0.00    -0.355 NA
ATOM      5  C   UNL     1      33.825 -19.900 -20.232  0.00  0.00    +0.364 C 
ATOM      6  C   UNL     1      33.162 -21.279 -18.780  0.00  0.00    +0.153 C 
ATOM      7  C   UNL     1      34.515 -21.063 -18.569  0.00  0.00    +0.175 C 
ATOM      8  C   UNL     1      32.477 -22.165 -17.937  0.00  0.00    +0.100 C 
ATOM      9  C   UNL     1      35.267 -21.667 -17.569  0.00  0.00    +0.041 C 
ATOM     10  C   UNL     1      33.203 -22.795 -16.914  0.00  0.00    +0.043 C 
ATOM     11  C   UNL     1      34.569 -22.549 -16.736  0.00  0.00    +0.011 C 
ATOM     12  H   UNL     1      32.985 -18.823 -21.843  0.00  0.00    +0.179 HD
ENDROOT
BRANCH   3  13
ATOM     13  S   UNL     1      35.203 -18.159 -21.874  0.00  0.00    +0.078 S 
ATOM     14  O   UNL     1      35.942 -18.974 -22.820  0.00  0.00    -0.150 OA
ATOM     15  O   UNL     1      35.879 -17.553 -20.742  0.00  0.00    -0.150 OA
BRANCH  13  18
ATOM     16 CL   UNL     1      33.739 -18.664 -24.713  0.00  0.00    -0.081 Cl
ATOM     17 CL   UNL     1      33.943 -12.931 -22.268  0.00  0.00    -0.082 Cl
ATOM     18  C   UNL     1      34.437 -16.853 -22.788  0.00  0.00    +0.137 C 
ATOM     19  C   UNL     1      33.814 -17.092 -24.004  0.00  0.00    +0.077 C 
ATOM     20  C   UNL     1      34.483 -15.579 -22.243  0.00  0.00    +0.032 C 
ATOM     21  C   UNL     1      33.893 -14.518 -22.931  0.00  0.00    +0.059 C 
ATOM     22  C   UNL     1      33.225 -16.031 -24.691  0.00  0.00    +0.014 C 
ATOM     23  C   UNL     1      33.264 -14.744 -24.154  0.00  0.00    +0.012 C 
ENDBRANCH  13  18
ENDBRANCH   3  13
TORSDOF 2
ENDMDL
MODEL 4
REMARK VINA RESULT:     -10.6      4.456      6.344
REMARK  Name = 6102820
REMARK  2 active torsions:
REMARK  status: ('A' for Active; 'I' for Inactive)
REMARK    1  A    between atoms: N_3  and  S_13
REMARK    2  A    between atoms: S_13  and  C_18
REMARK                            x       y       z     vdW  Elec       q    Type
REMARK                         _______ _______ _______ _____ _____    ______ ____
ROOT
ATOM      1 CL   UNL     1      34.959 -16.679 -23.316  0.00  0.00    -0.086 Cl
ATOM      2  O   UNL     1      34.498 -20.856 -19.313  0.00  0.00    -0.413 OA
ATOM      3  N   UNL     1      32.391 -21.911 -18.571  0.00  0.00    -0.158 N 
ATOM      4  N   UNL     1      32.552 -20.165 -20.250  0.00  0.00    -0.355 NA
ATOM      5  C   UNL     1      33.142 -20.967 -19.389  0.00  0.00    +0.364 C 
ATOM      6  C   UNL     1      33.599 -19.461 -20.793  0.00  0.00    +0.153 C 
ATOM      7  C   UNL     1      34.791 -19.881 -20.223  0.00  0.00    +0.175 C 
ATOM      8  C   UNL     1      33.633 -18.454 -21.769  0.00  0.00    +0.100 C 
ATOM      9  C   UNL     1      36.045 -19.375 -20.544  0.00  0.00    +0.041 C 
ATOM     10  C   UNL     1      34.880 -17.919 -22.121  0.00  0.00    +0.043 C 
ATOM     11  C   UNL     1      36.061 -18.371 -21.519  0.00  0.00    +0.011 C 
ATOM     12  H   UNL     1      31.412 -21.943 -18.672  0.00  0.00    +0.179 HD
ENDROOT
BRANCH   3  13
ATOM     13  S   UNL     1      33.113 -22.947 -17.465  0.00  0.00    +0.078 S 
ATOM     14  O   UNL     1      34.335 -22.357 -16.953  0.00  0.00    -0.150 OA
ATOM     15  O   UNL     1      33.110 -24.305 -17.976  0.00  0.00    -0.150 OA
BRANCH  13  18
ATOM     16 CL   UNL     1      33.840 -23.614 -14.385  0.00  0.00    -0.081 Cl
ATOM     17 CL   UNL     1      28.024 -21.996 -15.953  0.00  0.00    -0.082 Cl
ATOM     18  C   UNL     1      31.909 -22.871 -16.171  0.00  0.00    +0.137 C 
ATOM     19  C   UNL     1      32.242 -23.161 -14.857  0.00  0.00    +0.077 C 
ATOM     20  C   UNL     1      30.616 -22.512 -16.521  0.00  0.00    +0.032 C 
ATOM     21  C   UNL     1      29.633 -22.440 -15.534  0.00  0.00    +0.059 C 
ATOM     22  C   UNL     1      31.259 -23.090 -13.870  0.00  0.00    +0.014 C 
ATOM     23  C   UNL     1      29.955 -22.729 -14.208  0.00  0.00    +0.012 C 
ENDBRANCH  13  18
ENDBRANCH   3  13
TORSDOF 2
ENDMDL
MODEL 5
REMARK VINA RESULT:     -10.5      4.735      9.592
REMARK  Name = 6102820
REMARK  2 active torsions:
REMARK  status: ('A' for Active; 'I' for Inactive)
REMARK    1  A    between atoms: N_3  and  S_13
REMARK    2  A    between atoms: S_13  and  C_18
REMARK                            x       y       z     vdW  Elec       q    Type
REMARK                         _______ _______ _______ _____ _____    ______ ____
ROOT
ATOM      1 CL   UNL     1      35.530 -17.985 -22.469  0.00  0.00    -0.086 Cl
ATOM      2  O   UNL     1      32.591 -13.019 -23.089  0.00  0.00    -0.413 OA
ATOM      3  N   UNL     1      32.176 -11.361 -21.305  0.00  0.00    -0.158 N 
ATOM      4  N   UNL     1      33.410 -13.430 -21.016  0.00  0.00    -0.355 NA
ATOM      5  C   UNL     1      32.734 -12.615 -21.796  0.00  0.00    +0.364 C 
ATOM      6  C   UNL     1      33.746 -14.464 -21.856  0.00  0.00    +0.153 C 
ATOM      7  C   UNL     1      33.247 -14.216 -23.125  0.00  0.00    +0.175 C 
ATOM      8  C   UNL     1      34.467 -15.645 -21.631  0.00  0.00    +0.100 C 
ATOM      9  C   UNL     1      33.404 -15.059 -24.218  0.00  0.00    +0.041 C 
ATOM     10  C   UNL     1      34.648 -16.523 -22.710  0.00  0.00    +0.043 C 
ATOM     11  C   UNL     1      34.126 -16.234 -23.977  0.00  0.00    +0.011 C 
ATOM     12  H   UNL     1      32.313 -11.125 -20.359  0.00  0.00    +0.179 HD
ENDROOT
BRANCH   3  13
ATOM     13  S   UNL     1      31.309 -10.298 -22.274  0.00  0.00    +0.078 S 
ATOM     14  O   UNL     1      29.890 -10.411 -21.994  0.00  0.00    -0.150 OA
ATOM     15  O   UNL     1      31.796 -10.356 -23.640  0.00  0.00    -0.150 OA
BRANCH  13  18
ATOM     16 CL   UNL     1      30.746  -9.482 -19.195  0.00  0.00    -0.081 Cl
ATOM     17 CL   UNL     1      33.873  -5.601 -22.944  0.00  0.00    -0.082 Cl
ATOM     18  C   UNL     1      31.862  -8.765 -21.586  0.00  0.00    +0.137 C 
ATOM     19  C   UNL     1      31.609  -8.435 -20.263  0.00  0.00    +0.077 C 
ATOM     20  C   UNL     1      32.556  -7.903 -22.420  0.00  0.00    +0.032 C 
ATOM     21  C   UNL     1      33.010  -6.682 -21.920  0.00  0.00    +0.059 C 
ATOM     22  C   UNL     1      32.062  -7.214 -19.763  0.00  0.00    +0.014 C 
ATOM     23  C   UNL     1      32.763  -6.337 -20.592  0.00  0.00    +0.012 C 
ENDBRANCH  13  18
ENDBRANCH   3  13
TORSDOF 2
ENDMDL
MODEL 6
REMARK VINA RESULT:     -10.4      4.947     10.073
REMARK  Name = 6102820
REMARK  2 active torsions:
REMARK  status: ('A' for Active; 'I' for Inactive)
REMARK    1  A    between atoms: N_3  and  S_13
REMARK    2  A    between atoms: S_13  and  C_18
REMARK                            x       y       z     vdW  Elec       q    Type
REMARK                         _______ _______ _______ _____ _____    ______ ____
ROOT
ATOM      1 CL   UNL     1      35.404 -17.465 -22.519  0.00  0.00    -0.086 Cl
ATOM      2  O   UNL     1      32.662 -12.497 -21.302  0.00  0.00    -0.413 OA
ATOM      3  N   UNL     1      32.094 -10.731 -22.933  0.00  0.00    -0.158 N 
ATOM      4  N   UNL     1      33.242 -12.800 -23.472  0.00  0.00    -0.355 NA
ATOM      5  C   UNL     1      32.673 -12.021 -22.578  0.00  0.00    +0.364 C 
ATOM      6  C   UNL     1      33.644 -13.887 -22.734  0.00  0.00    +0.153 C 
ATOM      7  C   UNL     1      33.290 -13.705 -21.405  0.00  0.00    +0.175 C 
ATOM      8  C   UNL     1      34.309 -15.064 -23.103  0.00  0.00    +0.100 C 
ATOM      9  C   UNL     1      33.548 -14.613 -20.386  0.00  0.00    +0.041 C 
ATOM     10  C   UNL     1      34.587 -16.006 -22.101  0.00  0.00    +0.043 C 
ATOM     11  C   UNL     1      34.213 -15.783 -20.770  0.00  0.00    +0.011 C 
ATOM     12  H   UNL     1      32.135 -10.442 -23.873  0.00  0.00    +0.179 HD
ENDROOT
BRANCH   3  13
ATOM     13  S   UNL     1      31.361  -9.713 -21.816  0.00  0.00    +0.078 S 
ATOM     14  O   UNL     1      31.692 -10.132 -20.467  0.00  0.00    -0.150 OA
ATOM     15  O   UNL     1      29.981  -9.470 -22.192  0.00  0.00    -0.150 OA
BRANCH  13  18
ATOM     16 CL   UNL     1      31.318  -7.183 -19.802  0.00  0.00    -0.081 Cl
ATOM     17 CL   UNL     1      34.660  -6.944 -25.062  0.00  0.00    -0.082 Cl
ATOM     18  C   UNL     1      32.264  -8.228 -22.144  0.00  0.00    +0.137 C 
ATOM     19  C   UNL     1      32.232  -7.155 -21.266  0.00  0.00    +0.077 C 
ATOM     20  C   UNL     1      33.007  -8.177 -23.314  0.00  0.00    +0.032 C 
ATOM     21  C   UNL     1      33.734  -7.024 -23.614  0.00  0.00    +0.059 C 
ATOM     22  C   UNL     1      32.958  -6.003 -21.566  0.00  0.00    +0.014 C 
ATOM     23  C   UNL     1      33.710  -5.937 -22.740  0.00  0.00    +0.012 C 
ENDBRANCH  13  18
ENDBRANCH   3  13
TORSDOF 2
ENDMDL
MODEL 7
REMARK VINA RESULT:     -10.3      5.622      8.093
REMARK  Name = 6102820
REMARK  2 active torsions:
REMARK  status: ('A' for Active; 'I' for Inactive)
REMARK    1  A    between atoms: N_3  and  S_13
REMARK    2  A    between atoms: S_13  and  C_18
REMARK                            x       y       z     vdW  Elec       q    Type
REMARK                         _______ _______ _______ _____ _____    ______ ____
ROOT
ATOM      1 CL   UNL     1      34.912 -18.639 -22.101  0.00  0.00    -0.086 Cl
ATOM      2  O   UNL     1      34.246 -22.187 -17.556  0.00  0.00    -0.413 OA
ATOM      3  N   UNL     1      36.009 -22.798 -15.937  0.00  0.00    -0.158 N 
ATOM      4  N   UNL     1      36.318 -21.309 -17.830  0.00  0.00    -0.355 NA
ATOM      5  C   UNL     1      35.532 -22.088 -17.118  0.00  0.00    +0.364 C 
ATOM      6  C   UNL     1      35.490 -20.851 -18.826  0.00  0.00    +0.153 C 
ATOM      7  C   UNL     1      34.221 -21.385 -18.661  0.00  0.00    +0.175 C 
ATOM      8  C   UNL     1      35.726 -19.984 -19.902  0.00  0.00    +0.100 C 
ATOM      9  C   UNL     1      33.139 -21.128 -19.494  0.00  0.00    +0.041 C 
ATOM     10  C   UNL     1      34.658 -19.700 -20.766  0.00  0.00    +0.043 C 
ATOM     11  C   UNL     1      33.391 -20.262 -20.564  0.00  0.00    +0.011 C 
ATOM     12  H   UNL     1      36.951 -22.685 -15.672  0.00  0.00    +0.179 HD
ENDROOT
BRANCH   3  13
ATOM     13  S   UNL     1      35.032 -23.797 -15.008  0.00  0.00    +0.078 S 
ATOM     14  O   UNL     1      34.995 -25.130 -15.579  0.00  0.00    -0.150 OA
ATOM     15  O   UNL     1      33.801 -23.112 -14.661  0.00  0.00    -0.150 OA
BRANCH  13  18
ATOM     16 CL   UNL     1      38.257 -24.023 -15.102  0.00  0.00    -0.081 Cl
ATOM     17 CL   UNL     1      35.286 -23.871  -9.621  0.00  0.00    -0.082 Cl
ATOM     18  C   UNL     1      36.018 -23.881 -13.541  0.00  0.00    +0.137 C 
ATOM     19  C   UNL     1      37.400 -23.977 -13.604  0.00  0.00    +0.077 C 
ATOM     20  C   UNL     1      35.356 -23.847 -12.323  0.00  0.00    +0.032 C 
ATOM     21  C   UNL     1      36.093 -23.911 -11.140  0.00  0.00    +0.059 C 
ATOM     22  C   UNL     1      38.136 -24.042 -12.422  0.00  0.00    +0.014 C 
ATOM     23  C   UNL     1      37.483 -24.009 -11.190  0.00  0.00    +0.012 C 
ENDBRANCH  13  18
ENDBRANCH   3  13
TORSDOF 2
ENDMDL
MODEL 8
REMARK VINA RESULT:     -10.0      6.194     11.643
REMARK  Name = 6102820
REMARK  2 active torsions:
REMARK  status: ('A' for Active; 'I' for Inactive)
REMARK    1  A    between atoms: N_3  and  S_13
REMARK    2  A    between atoms: S_13  and  C_18
REMARK                            x       y       z     vdW  Elec       q    Type
REMARK                         _______ _______ _______ _____ _____    ______ ____
ROOT
ATOM      1 CL   UNL     1      34.552 -15.925 -22.046  0.00  0.00    -0.086 Cl
ATOM      2  O   UNL     1      31.881 -10.780 -21.753  0.00  0.00    -0.413 OA
ATOM      3  N   UNL     1      32.015  -8.992 -23.452  0.00  0.00    -0.158 N 
ATOM      4  N   UNL     1      33.143 -11.135 -23.603  0.00  0.00    -0.355 NA
ATOM      5  C   UNL     1      32.356 -10.314 -22.942  0.00  0.00    +0.364 C 
ATOM      6  C   UNL     1      33.200 -12.240 -22.788  0.00  0.00    +0.153 C 
ATOM      7  C   UNL     1      32.429 -12.027 -21.656  0.00  0.00    +0.175 C 
ATOM      8  C   UNL     1      33.875 -13.462 -22.928  0.00  0.00    +0.100 C 
ATOM      9  C   UNL     1      32.267 -12.943 -20.624  0.00  0.00    +0.041 C 
ATOM     10  C   UNL     1      33.735 -14.413 -21.907  0.00  0.00    +0.043 C 
ATOM     11  C   UNL     1      32.947 -14.156 -20.779  0.00  0.00    +0.011 C 
ATOM     12  H   UNL     1      32.390  -8.713 -24.318  0.00  0.00    +0.179 HD
ENDROOT
BRANCH   3  13
ATOM     13  S   UNL     1      31.013  -7.921 -22.634  0.00  0.00    +0.078 S 
ATOM     14  O   UNL     1      31.589  -7.583 -21.347  0.00  0.00    -0.150 OA
ATOM     15  O   UNL     1      29.632  -8.356 -22.730  0.00  0.00    -0.150 OA
BRANCH  13  18
ATOM     16 CL   UNL     1      29.779  -5.033 -21.859  0.00  0.00    -0.081 Cl
ATOM     17 CL   UNL     1      32.912  -5.771 -27.201  0.00  0.00    -0.082 Cl
ATOM     18  C   UNL     1      31.190  -6.505 -23.679  0.00  0.00    +0.137 C 
ATOM     19  C   UNL     1      30.654  -5.276 -23.328  0.00  0.00    +0.077 C 
ATOM     20  C   UNL     1      31.887  -6.671 -24.867  0.00  0.00    +0.032 C 
ATOM     21  C   UNL     1      32.051  -5.581 -25.723  0.00  0.00    +0.059 C 
ATOM     22  C   UNL     1      30.817  -4.187 -24.183  0.00  0.00    +0.014 C 
ATOM     23  C   UNL     1      31.516  -4.339 -25.381  0.00  0.00    +0.012 C 
ENDBRANCH  13  18
ENDBRANCH   3  13
TORSDOF 2
ENDMDL
MODEL 9
REMARK VINA RESULT:      -9.9      2.188      7.447
REMARK  Name = 6102820
REMARK  2 active torsions:
REMARK  status: ('A' for Active; 'I' for Inactive)
REMARK    1  A    between atoms: N_3  and  S_13
REMARK    2  A    between atoms: S_13  and  C_18
REMARK                            x       y       z     vdW  Elec       q    Type
REMARK                         _______ _______ _______ _____ _____    ______ ____
ROOT
ATOM      1 CL   UNL     1      36.071 -21.443 -18.276  0.00  0.00    -0.086 Cl
ATOM      2  O   UNL     1      33.838 -18.006 -22.385  0.00  0.00    -0.413 OA
ATOM      3  N   UNL     1      34.969 -16.060 -23.404  0.00  0.00    -0.158 N 
ATOM      4  N   UNL     1      35.929 -17.481 -21.686  0.00  0.00    -0.355 NA
ATOM      5  C   UNL     1      34.923 -17.188 -22.481  0.00  0.00    +0.364 C 
ATOM      6  C   UNL     1      35.480 -18.585 -21.002  0.00  0.00    +0.153 C 
ATOM      7  C   UNL     1      34.201 -18.910 -21.428  0.00  0.00    +0.175 C 
ATOM      8  C   UNL     1      36.085 -19.371 -20.011  0.00  0.00    +0.100 C 
ATOM      9  C   UNL     1      33.451 -19.973 -20.943  0.00  0.00    +0.041 C 
ATOM     10  C   UNL     1      35.359 -20.455 -19.496  0.00  0.00    +0.043 C 
ATOM     11  C   UNL     1      34.068 -20.748 -19.954  0.00  0.00    +0.011 C 
ATOM     12  H   UNL     1      35.782 -15.505 -23.425  0.00  0.00    +0.179 HD
ENDROOT
BRANCH   3  13
ATOM     13  S   UNL     1      33.703 -15.661 -24.432  0.00  0.00    +0.078 S 
ATOM     14  O   UNL     1      32.634 -16.634 -24.308  0.00  0.00    -0.150 OA
ATOM     15  O   UNL     1      34.216 -15.295 -25.738  0.00  0.00    -0.150 OA
BRANCH  13  18
ATOM     16 CL   UNL     1      32.844 -13.035 -26.114  0.00  0.00    -0.081 Cl
ATOM     17 CL   UNL     1      32.608 -12.980 -19.883  0.00  0.00    -0.082 Cl
ATOM     18  C   UNL     1      33.154 -14.173 -23.648  0.00  0.00    +0.137 C 
ATOM     19  C   UNL     1      32.790 -13.058 -24.389  0.00  0.00    +0.077 C 
ATOM     20  C   UNL     1      33.102 -14.162 -22.263  0.00  0.00    +0.032 C 
ATOM     21  C   UNL     1      32.677 -13.009 -21.601  0.00  0.00    +0.059 C 
ATOM     22  C   UNL     1      32.366 -11.906 -23.728  0.00  0.00    +0.014 C 
ATOM     23  C   UNL     1      32.308 -11.881 -22.334  0.00  0.00    +0.012 C 
ENDBRANCH  13  18
ENDBRANCH   3  13
TORSDOF 2
ENDMDL
