MODEL 1
REMARK VINA RESULT:     -13.6      0.000      0.000
REMARK  Name = 10172943
REMARK  7 active torsions:
REMARK  status: ('A' for Active; 'I' for Inactive)
REMARK    1  A    between atoms: O_1  and  C_3
REMARK    2  A    between atoms: O_1  and  C_19
REMARK    3  A    between atoms: C_4  and  C_11
REMARK    4  A    between atoms: C_19  and  C_20
REMARK    5  A    between atoms: C_20  and  N_21
REMARK    6  A    between atoms: C_20  and  C_25
REMARK    7  A    between atoms: C_25  and  C_27
REMARK                            x       y       z     vdW  Elec       q    Type
REMARK                         _______ _______ _______ _____ _____    ______ ____
ROOT
ATOM      1  O   UNL     1      34.570 -19.915 -20.789  0.00  0.00    -0.476 OA
ENDROOT
BRANCH   1   3
ATOM      2  N   UNL     1      32.273 -21.883 -18.756  0.00  0.00    -0.239 NA
ATOM      3  C   UNL     1      34.102 -20.681 -19.753  0.00  0.00    +0.158 C 
ATOM      4  C   UNL     1      34.430 -21.801 -17.665  0.00  0.00    +0.022 C 
ATOM      5  C   UNL     1      34.932 -21.021 -18.700  0.00  0.00    +0.040 C 
ATOM      6  C   UNL     1      32.798 -21.125 -19.745  0.00  0.00    +0.136 C 
ATOM      7  C   UNL     1      33.105 -22.202 -17.739  0.00  0.00    +0.099 C 
BRANCH   4  11
ATOM      8  N   UNL     1      36.510 -23.684 -12.590  0.00  0.00    -0.280 N 
ATOM      9  N   UNL     1      37.554 -23.281 -13.340  0.00  0.00    -0.173 NA
ATOM     10  C   UNL     1      35.571 -23.023 -14.418  0.00  0.00    +0.032 A 
ATOM     11  C   UNL     1      35.262 -22.181 -16.548  0.00  0.00    +0.002 C 
ATOM     12  C   UNL     1      37.004 -22.860 -14.492  0.00  0.00    +0.102 A 
ATOM     13  C   UNL     1      34.637 -22.709 -15.397  0.00  0.00    +0.003 C 
ATOM     14  C   UNL     1      35.292 -23.552 -13.190  0.00  0.00    +0.053 A 
ATOM     15  C   UNL     1      36.680 -22.002 -16.665  0.00  0.00    +0.002 C 
ATOM     16  C   UNL     1      37.605 -22.332 -15.649  0.00  0.00    +0.021 C 
ATOM     17  C   UNL     1      34.043 -23.944 -12.516  0.00  0.00    +0.051 C 
ATOM     18  H   UNL     1      36.617 -24.046 -11.681  0.00  0.00    +0.189 HD
ENDBRANCH   4  11
ENDBRANCH   1   3
BRANCH   1  19
ATOM     19  C   UNL     1      35.740 -19.147 -20.541  0.00  0.00    +0.184 C 
BRANCH  19  20
ATOM     20  C   UNL     1      35.897 -18.004 -21.553  0.00  0.00    -0.017 C 
BRANCH  20  21
ATOM     21  N   UNL     1      37.266 -18.034 -22.084  0.00  0.00    +0.384 N 
ATOM     22  H   UNL     1      37.758 -17.186 -21.800  0.00  0.00    -0.089 HD
ATOM     23  H   UNL     1      37.234 -18.085 -23.102  0.00  0.00    -0.089 HD
ATOM     24  H   UNL     1      37.755 -18.850 -21.717  0.00  0.00    -0.089 HD
ENDBRANCH  20  21
BRANCH  20  25
ATOM     25  C   UNL     1      34.888 -18.073 -22.730  0.00  0.00    +0.009 C 
BRANCH  25  27
ATOM     26  N   UNL     1      33.777 -15.118 -24.566  0.00  0.00    -0.312 N 
ATOM     27  C   UNL     1      34.425 -16.757 -23.216  0.00  0.00    -0.008 C 
ATOM     28  C   UNL     1      34.143 -15.611 -22.421  0.00  0.00    +0.011 C 
ATOM     29  C   UNL     1      33.739 -14.597 -23.292  0.00  0.00    +0.048 C 
ATOM     30  C   UNL     1      34.192 -16.423 -24.531  0.00  0.00    +0.058 C 
ATOM     31  C   UNL     1      34.193 -15.338 -21.040  0.00  0.00    +0.001 C 
ATOM     32  C   UNL     1      33.380 -13.319 -22.849  0.00  0.00    +0.015 C 
ATOM     33  C   UNL     1      33.837 -14.065 -20.582  0.00  0.00    +0.000 C 
ATOM     34  C   UNL     1      33.436 -13.072 -21.474  0.00  0.00    +0.001 C 
ATOM     35  H   UNL     1      33.542 -14.624 -25.384  0.00  0.00    +0.152 HD
ENDBRANCH  25  27
ENDBRANCH  20  25
ENDBRANCH  19  20
ENDBRANCH   1  19
TORSDOF 7
ENDMDL
MODEL 2
REMARK VINA RESULT:     -13.3      2.825     10.778
REMARK  Name = 10172943
REMARK  7 active torsions:
REMARK  status: ('A' for Active; 'I' for Inactive)
REMARK    1  A    between atoms: O_1  and  C_3
REMARK    2  A    between atoms: O_1  and  C_19
REMARK    3  A    between atoms: C_4  and  C_11
REMARK    4  A    between atoms: C_19  and  C_20
REMARK    5  A    between atoms: C_20  and  N_21
REMARK    6  A    between atoms: C_20  and  C_25
REMARK    7  A    between atoms: C_25  and  C_27
REMARK                            x       y       z     vdW  Elec       q    Type
REMARK                         _______ _______ _______ _____ _____    ______ ____
ROOT
ATOM      1  O   UNL     1      35.197 -16.700 -22.734  0.00  0.00    -0.476 OA
ENDROOT
BRANCH   1   3
ATOM      2  N   UNL     1      33.322 -14.886 -25.278  0.00  0.00    -0.239 NA
ATOM      3  C   UNL     1      34.403 -15.741 -23.307  0.00  0.00    +0.158 C 
ATOM      4  C   UNL     1      33.088 -13.750 -23.156  0.00  0.00    +0.022 C 
ATOM      5  C   UNL     1      33.892 -14.706 -22.547  0.00  0.00    +0.040 C 
ATOM      6  C   UNL     1      34.100 -15.796 -24.650  0.00  0.00    +0.136 C 
ATOM      7  C   UNL     1      32.835 -13.882 -24.512  0.00  0.00    +0.099 C 
BRANCH   4  11
ATOM      8  N   UNL     1      31.051  -8.629 -21.349  0.00  0.00    -0.280 N 
ATOM      9  N   UNL     1      30.964  -9.495 -20.320  0.00  0.00    -0.173 NA
ATOM     10  C   UNL     1      31.839 -10.459 -22.181  0.00  0.00    +0.032 A 
ATOM     11  C   UNL     1      32.532 -12.652 -22.399  0.00  0.00    +0.002 C 
ATOM     12  C   UNL     1      31.449 -10.651 -20.805  0.00  0.00    +0.102 A 
ATOM     13  C   UNL     1      32.385 -11.403 -23.041  0.00  0.00    +0.003 C 
ATOM     14  C   UNL     1      31.570  -9.156 -22.495  0.00  0.00    +0.053 A 
ATOM     15  C   UNL     1      32.158 -12.889 -21.035  0.00  0.00    +0.002 C 
ATOM     16  C   UNL     1      31.605 -11.905 -20.186  0.00  0.00    +0.021 C 
ATOM     17  C   UNL     1      31.736  -8.354 -23.719  0.00  0.00    +0.051 C 
ATOM     18  H   UNL     1      30.762  -7.691 -21.280  0.00  0.00    +0.189 HD
ENDBRANCH   4  11
ENDBRANCH   1   3
BRANCH   1  19
ATOM     19  C   UNL     1      34.763 -17.232 -21.490  0.00  0.00    +0.184 C 
BRANCH  19  20
ATOM     20  C   UNL     1      34.267 -18.678 -21.629  0.00  0.00    -0.017 C 
BRANCH  20  21
ATOM     21  N   UNL     1      34.545 -19.139 -22.995  0.00  0.00    +0.384 N 
ATOM     22  H   UNL     1      34.641 -18.333 -23.613  0.00  0.00    -0.089 HD
ATOM     23  H   UNL     1      33.776 -19.726 -23.318  0.00  0.00    -0.089 HD
ATOM     24  H   UNL     1      35.410 -19.679 -23.001  0.00  0.00    -0.089 HD
ENDBRANCH  20  21
BRANCH  20  25
ATOM     25  C   UNL     1      34.912 -19.657 -20.614  0.00  0.00    +0.009 C 
BRANCH  25  27
ATOM     26  N   UNL     1      32.054 -21.401 -19.156  0.00  0.00    -0.312 N 
ATOM     27  C   UNL     1      33.944 -20.452 -19.831  0.00  0.00    -0.008 C 
ATOM     28  C   UNL     1      34.220 -21.208 -18.658  0.00  0.00    +0.011 C 
ATOM     29  C   UNL     1      33.018 -21.793 -18.255  0.00  0.00    +0.048 C 
ATOM     30  C   UNL     1      32.604 -20.589 -20.112  0.00  0.00    +0.058 C 
ATOM     31  C   UNL     1      35.381 -21.453 -17.898  0.00  0.00    +0.001 C 
ATOM     32  C   UNL     1      32.918 -22.614 -17.125  0.00  0.00    +0.015 C 
ATOM     33  C   UNL     1      35.297 -22.272 -16.766  0.00  0.00    +0.000 C 
ATOM     34  C   UNL     1      34.083 -22.843 -16.388  0.00  0.00    +0.001 C 
ATOM     35  H   UNL     1      31.107 -21.664 -19.118  0.00  0.00    +0.152 HD
ENDBRANCH  25  27
ENDBRANCH  20  25
ENDBRANCH  19  20
ENDBRANCH   1  19
TORSDOF 7
ENDMDL
MODEL 3
REMARK VINA RESULT:     -13.3      4.133      7.759
REMARK  Name = 10172943
REMARK  7 active torsions:
REMARK  status: ('A' for Active; 'I' for Inactive)
REMARK    1  A    between atoms: O_1  and  C_3
REMARK    2  A    between atoms: O_1  and  C_19
REMARK    3  A    between atoms: C_4  and  C_11
REMARK    4  A    between atoms: C_19  and  C_20
REMARK    5  A    between atoms: C_20  and  N_21
REMARK    6  A    between atoms: C_20  and  C_25
REMARK    7  A    between atoms: C_25  and  C_27
REMARK                            x       y       z     vdW  Elec       q    Type
REMARK                         _______ _______ _______ _____ _____    ______ ____
ROOT
ATOM      1  O   UNL     1      33.648 -13.162 -23.028  0.00  0.00    -0.476 OA
ENDROOT
BRANCH   1   3
ATOM      2  N   UNL     1      33.510 -16.137 -25.127  0.00  0.00    -0.239 NA
ATOM      3  C   UNL     1      33.753 -14.475 -23.406  0.00  0.00    +0.158 C 
ATOM      4  C   UNL     1      34.289 -16.755 -22.922  0.00  0.00    +0.022 C 
ATOM      5  C   UNL     1      34.190 -15.432 -22.508  0.00  0.00    +0.040 C 
ATOM      6  C   UNL     1      33.427 -14.862 -24.688  0.00  0.00    +0.136 C 
ATOM      7  C   UNL     1      33.939 -17.054 -24.229  0.00  0.00    +0.099 C 
BRANCH   4  11
ATOM      8  N   UNL     1      34.701 -21.182 -19.199  0.00  0.00    -0.280 N 
ATOM      9  N   UNL     1      35.948 -20.732 -19.445  0.00  0.00    -0.173 NA
ATOM     10  C   UNL     1      34.370 -19.559 -20.583  0.00  0.00    +0.032 A 
ATOM     11  C   UNL     1      34.741 -17.786 -22.018  0.00  0.00    +0.002 C 
ATOM     12  C   UNL     1      35.778 -19.715 -20.308  0.00  0.00    +0.102 A 
ATOM     13  C   UNL     1      33.774 -18.625 -21.420  0.00  0.00    +0.003 C 
ATOM     14  C   UNL     1      33.712 -20.512 -19.858  0.00  0.00    +0.053 A 
ATOM     15  C   UNL     1      36.150 -17.906 -21.775  0.00  0.00    +0.002 C 
ATOM     16  C   UNL     1      36.724 -18.869 -20.915  0.00  0.00    +0.021 C 
ATOM     17  C   UNL     1      32.292 -20.871 -19.707  0.00  0.00    +0.051 C 
ATOM     18  H   UNL     1      34.519 -21.935 -18.592  0.00  0.00    +0.189 HD
ENDBRANCH   4  11
ENDBRANCH   1   3
BRANCH   1  19
ATOM     19  C   UNL     1      32.409 -12.755 -22.462  0.00  0.00    +0.184 C 
BRANCH  19  20
ATOM     20  C   UNL     1      32.319 -11.230 -22.322  0.00  0.00    -0.017 C 
BRANCH  20  21
ATOM     21  N   UNL     1      32.366 -10.632 -23.662  0.00  0.00    +0.384 N 
ATOM     22  H   UNL     1      31.752  -9.818 -23.692  0.00  0.00    -0.089 HD
ATOM     23  H   UNL     1      32.057 -11.318 -24.351  0.00  0.00    -0.089 HD
ATOM     24  H   UNL     1      33.322 -10.346 -23.872  0.00  0.00    -0.089 HD
ENDBRANCH  20  21
BRANCH  20  25
ATOM     25  C   UNL     1      31.039 -10.748 -21.588  0.00  0.00    +0.009 C 
BRANCH  25  27
ATOM     26  N   UNL     1      31.544  -8.454 -18.793  0.00  0.00    -0.312 N 
ATOM     27  C   UNL     1      31.256  -9.620 -20.659  0.00  0.00    -0.008 C 
ATOM     28  C   UNL     1      31.412  -8.250 -21.010  0.00  0.00    +0.011 C 
ATOM     29  C   UNL     1      31.591  -7.540 -19.821  0.00  0.00    +0.048 C 
ATOM     30  C   UNL     1      31.341  -9.714 -19.288  0.00  0.00    +0.058 C 
ATOM     31  C   UNL     1      31.419  -7.544 -22.229  0.00  0.00    +0.001 C 
ATOM     32  C   UNL     1      31.778  -6.153 -19.790  0.00  0.00    +0.015 C 
ATOM     33  C   UNL     1      31.604  -6.157 -22.214  0.00  0.00    +0.000 C 
ATOM     34  C   UNL     1      31.781  -5.474 -21.012  0.00  0.00    +0.001 C 
ATOM     35  H   UNL     1      31.641  -8.233 -17.838  0.00  0.00    +0.152 HD
ENDBRANCH  25  27
ENDBRANCH  20  25
ENDBRANCH  19  20
ENDBRANCH   1  19
TORSDOF 7
ENDMDL
MODEL 4
REMARK VINA RESULT:     -13.2      2.637      3.811
REMARK  Name = 10172943
REMARK  7 active torsions:
REMARK  status: ('A' for Active; 'I' for Inactive)
REMARK    1  A    between atoms: O_1  and  C_3
REMARK    2  A    between atoms: O_1  and  C_19
REMARK    3  A    between atoms: C_4  and  C_11
REMARK    4  A    between atoms: C_19  and  C_20
REMARK    5  A    between atoms: C_20  and  N_21
REMARK    6  A    between atoms: C_20  and  C_25
REMARK    7  A    between atoms: C_25  and  C_27
REMARK                            x       y       z     vdW  Elec       q    Type
REMARK                         _______ _______ _______ _____ _____    ______ ____
ROOT
ATOM      1  O   UNL     1      34.701 -21.181 -19.757  0.00  0.00    -0.476 OA
ENDROOT
BRANCH   1   3
ATOM      2  N   UNL     1      36.322 -21.782 -16.549  0.00  0.00    -0.239 NA
ATOM      3  C   UNL     1      34.868 -21.568 -18.453  0.00  0.00    +0.158 C 
ATOM      4  C   UNL     1      34.014 -22.488 -16.418  0.00  0.00    +0.022 C 
ATOM      5  C   UNL     1      33.814 -22.108 -17.739  0.00  0.00    +0.040 C 
ATOM      6  C   UNL     1      36.090 -21.423 -17.832  0.00  0.00    +0.136 C 
ATOM      7  C   UNL     1      35.275 -22.308 -15.874  0.00  0.00    +0.099 C 
BRANCH   4  11
ATOM      8  N   UNL     1      28.889 -24.215 -14.324  0.00  0.00    -0.280 N 
ATOM      9  N   UNL     1      29.845 -24.636 -13.473  0.00  0.00    -0.173 NA
ATOM     10  C   UNL     1      30.707 -23.499 -15.240  0.00  0.00    +0.032 A 
ATOM     11  C   UNL     1      32.940 -23.056 -15.636  0.00  0.00    +0.002 C 
ATOM     12  C   UNL     1      30.997 -24.205 -14.015  0.00  0.00    +0.102 A 
ATOM     13  C   UNL     1      31.616 -22.899 -16.102  0.00  0.00    +0.003 C 
ATOM     14  C   UNL     1      29.351 -23.525 -15.406  0.00  0.00    +0.053 A 
ATOM     15  C   UNL     1      33.275 -23.749 -14.425  0.00  0.00    +0.002 C 
ATOM     16  C   UNL     1      32.324 -24.349 -13.570  0.00  0.00    +0.021 C 
ATOM     17  C   UNL     1      28.445 -22.993 -16.438  0.00  0.00    +0.051 C 
ATOM     18  H   UNL     1      27.932 -24.392 -14.176  0.00  0.00    +0.189 HD
ENDBRANCH   4  11
ENDBRANCH   1   3
BRANCH   1  19
ATOM     19  C   UNL     1      35.552 -20.147 -20.233  0.00  0.00    +0.184 C 
BRANCH  19  20
ATOM     20  C   UNL     1      34.812 -19.188 -21.175  0.00  0.00    -0.017 C 
BRANCH  20  21
ATOM     21  N   UNL     1      33.377 -19.493 -21.123  0.00  0.00    +0.384 N 
ATOM     22  H   UNL     1      32.897 -18.774 -20.581  0.00  0.00    -0.089 HD
ATOM     23  H   UNL     1      33.239 -20.402 -20.681  0.00  0.00    -0.089 HD
ATOM     24  H   UNL     1      33.000 -19.515 -22.070  0.00  0.00    -0.089 HD
ENDBRANCH  20  21
BRANCH  20  25
ATOM     25  C   UNL     1      35.033 -17.690 -20.834  0.00  0.00    +0.009 C 
BRANCH  25  27
ATOM     26  N   UNL     1      34.425 -15.923 -23.971  0.00  0.00    -0.312 N 
ATOM     27  C   UNL     1      34.711 -16.759 -21.935  0.00  0.00    -0.008 C 
ATOM     28  C   UNL     1      34.248 -15.420 -21.805  0.00  0.00    +0.011 C 
ATOM     29  C   UNL     1      34.076 -14.919 -23.097  0.00  0.00    +0.048 C 
ATOM     30  C   UNL     1      34.811 -17.040 -23.279  0.00  0.00    +0.058 C 
ATOM     31  C   UNL     1      33.956 -14.585 -20.709  0.00  0.00    +0.001 C 
ATOM     32  C   UNL     1      33.625 -13.617 -23.348  0.00  0.00    +0.015 C 
ATOM     33  C   UNL     1      33.504 -13.281 -20.945  0.00  0.00    +0.000 C 
ATOM     34  C   UNL     1      33.341 -12.807 -22.246  0.00  0.00    +0.001 C 
ATOM     35  H   UNL     1      34.401 -15.849 -24.953  0.00  0.00    +0.152 HD
ENDBRANCH  25  27
ENDBRANCH  20  25
ENDBRANCH  19  20
ENDBRANCH   1  19
TORSDOF 7
ENDMDL
MODEL 5
REMARK VINA RESULT:     -12.9      1.796     10.178
REMARK  Name = 10172943
REMARK  7 active torsions:
REMARK  status: ('A' for Active; 'I' for Inactive)
REMARK    1  A    between atoms: O_1  and  C_3
REMARK    2  A    between atoms: O_1  and  C_19
REMARK    3  A    between atoms: C_4  and  C_11
REMARK    4  A    between atoms: C_19  and  C_20
REMARK    5  A    between atoms: C_20  and  N_21
REMARK    6  A    between atoms: C_20  and  C_25
REMARK    7  A    between atoms: C_25  and  C_27
REMARK                            x       y       z     vdW  Elec       q    Type
REMARK                         _______ _______ _______ _____ _____    ______ ____
ROOT
ATOM      1  O   UNL     1      32.691 -21.812 -18.671  0.00  0.00    -0.476 OA
ENDROOT
BRANCH   1   3
ATOM      2  N   UNL     1      36.071 -20.569 -19.228  0.00  0.00    -0.239 NA
ATOM      3  C   UNL     1      33.724 -21.093 -19.214  0.00  0.00    +0.158 C 
ATOM      4  C   UNL     1      34.562 -19.494 -20.783  0.00  0.00    +0.022 C 
ATOM      5  C   UNL     1      33.494 -20.207 -20.251  0.00  0.00    +0.040 C 
ATOM      6  C   UNL     1      35.008 -21.244 -18.737  0.00  0.00    +0.136 C 
ATOM      7  C   UNL     1      35.820 -19.708 -20.240  0.00  0.00    +0.099 C 
BRANCH   4  11
ATOM      8  N   UNL     1      33.865 -14.772 -24.076  0.00  0.00    -0.280 N 
ATOM      9  N   UNL     1      33.822 -15.850 -24.885  0.00  0.00    -0.173 NA
ATOM     10  C   UNL     1      34.137 -16.420 -22.709  0.00  0.00    +0.032 A 
ATOM     11  C   UNL     1      34.368 -18.559 -21.866  0.00  0.00    +0.002 C 
ATOM     12  C   UNL     1      33.988 -16.899 -24.062  0.00  0.00    +0.102 A 
ATOM     13  C   UNL     1      34.329 -17.181 -21.563  0.00  0.00    +0.003 C 
ATOM     14  C   UNL     1      34.053 -15.057 -22.756  0.00  0.00    +0.053 A 
ATOM     15  C   UNL     1      34.225 -19.080 -23.195  0.00  0.00    +0.002 C 
ATOM     16  C   UNL     1      34.030 -18.278 -24.341  0.00  0.00    +0.021 C 
ATOM     17  C   UNL     1      34.128 -14.001 -21.732  0.00  0.00    +0.051 C 
ATOM     18  H   UNL     1      33.769 -13.852 -24.412  0.00  0.00    +0.189 HD
ENDBRANCH   4  11
ENDBRANCH   1   3
BRANCH   1  19
ATOM     19  C   UNL     1      33.041 -22.899 -17.825  0.00  0.00    +0.184 C 
BRANCH  19  20
ATOM     20  C   UNL     1      32.704 -22.610 -16.356  0.00  0.00    -0.017 C 
BRANCH  20  21
ATOM     21  N   UNL     1      31.248 -22.693 -16.184  0.00  0.00    +0.384 N 
ATOM     22  H   UNL     1      30.803 -22.784 -17.098  0.00  0.00    -0.089 HD
ATOM     23  H   UNL     1      30.912 -21.848 -15.724  0.00  0.00    -0.089 HD
ATOM     24  H   UNL     1      31.020 -23.506 -15.612  0.00  0.00    -0.089 HD
ENDBRANCH  20  21
BRANCH  20  25
ATOM     25  C   UNL     1      33.396 -23.577 -15.358  0.00  0.00    +0.009 C 
BRANCH  25  27
ATOM     26  N   UNL     1      36.765 -22.238 -14.924  0.00  0.00    -0.312 N 
ATOM     27  C   UNL     1      34.832 -23.307 -15.142  0.00  0.00    -0.008 C 
ATOM     28  C   UNL     1      35.844 -24.269 -14.871  0.00  0.00    +0.011 C 
ATOM     29  C   UNL     1      37.047 -23.572 -14.739  0.00  0.00    +0.048 C 
ATOM     30  C   UNL     1      35.429 -22.067 -15.169  0.00  0.00    +0.058 C 
ATOM     31  C   UNL     1      35.852 -25.670 -14.724  0.00  0.00    +0.001 C 
ATOM     32  C   UNL     1      38.263 -24.210 -14.466  0.00  0.00    +0.015 C 
ATOM     33  C   UNL     1      37.061 -26.321 -14.451  0.00  0.00    +0.000 C 
ATOM     34  C   UNL     1      38.247 -25.600 -14.324  0.00  0.00    +0.001 C 
ATOM     35  H   UNL     1      37.428 -21.511 -14.887  0.00  0.00    +0.152 HD
ENDBRANCH  25  27
ENDBRANCH  20  25
ENDBRANCH  19  20
ENDBRANCH   1  19
TORSDOF 7
ENDMDL
MODEL 6
REMARK VINA RESULT:     -12.7      1.344      2.180
REMARK  Name = 10172943
REMARK  7 active torsions:
REMARK  status: ('A' for Active; 'I' for Inactive)
REMARK    1  A    between atoms: O_1  and  C_3
REMARK    2  A    between atoms: O_1  and  C_19
REMARK    3  A    between atoms: C_4  and  C_11
REMARK    4  A    between atoms: C_19  and  C_20
REMARK    5  A    between atoms: C_20  and  N_21
REMARK    6  A    between atoms: C_20  and  C_25
REMARK    7  A    between atoms: C_25  and  C_27
REMARK                            x       y       z     vdW  Elec       q    Type
REMARK                         _______ _______ _______ _____ _____    ______ ____
ROOT
ATOM      1  O   UNL     1      36.194 -20.330 -18.770  0.00  0.00    -0.476 OA
ENDROOT
BRANCH   1   3
ATOM      2  N   UNL     1      33.305 -22.468 -18.170  0.00  0.00    -0.239 NA
ATOM      3  C   UNL     1      35.362 -21.223 -18.146  0.00  0.00    +0.158 C 
ATOM      4  C   UNL     1      34.844 -22.674 -16.317  0.00  0.00    +0.022 C 
ATOM      5  C   UNL     1      35.707 -21.769 -16.923  0.00  0.00    +0.040 C 
ATOM      6  C   UNL     1      34.169 -21.592 -18.729  0.00  0.00    +0.136 C 
ATOM      7  C   UNL     1      33.665 -22.987 -16.974  0.00  0.00    +0.099 C 
BRANCH   4  11
ATOM      8  N   UNL     1      37.411 -25.277 -11.815  0.00  0.00    -0.280 N 
ATOM      9  N   UNL     1      36.150 -24.971 -11.451  0.00  0.00    -0.173 NA
ATOM     10  C   UNL     1      36.610 -24.328 -13.580  0.00  0.00    +0.032 A 
ATOM     11  C   UNL     1      35.165 -23.269 -15.041  0.00  0.00    +0.002 C 
ATOM     12  C   UNL     1      35.618 -24.376 -12.532  0.00  0.00    +0.102 A 
ATOM     13  C   UNL     1      36.463 -23.795 -14.854  0.00  0.00    +0.003 C 
ATOM     14  C   UNL     1      37.742 -24.912 -13.087  0.00  0.00    +0.053 A 
ATOM     15  C   UNL     1      34.150 -23.295 -14.028  0.00  0.00    +0.002 C 
ATOM     16  C   UNL     1      34.332 -23.845 -12.740  0.00  0.00    +0.021 C 
ATOM     17  C   UNL     1      39.079 -25.167 -13.649  0.00  0.00    +0.051 C 
ATOM     18  H   UNL     1      38.044 -25.727 -11.210  0.00  0.00    +0.189 HD
ENDBRANCH   4  11
ENDBRANCH   1   3
BRANCH   1  19
ATOM     19  C   UNL     1      36.074 -20.220 -20.182  0.00  0.00    +0.184 C 
BRANCH  19  20
ATOM     20  C   UNL     1      35.791 -18.777 -20.619  0.00  0.00    -0.017 C 
BRANCH  20  21
ATOM     21  N   UNL     1      36.921 -18.302 -21.428  0.00  0.00    +0.384 N 
ATOM     22  H   UNL     1      37.725 -18.911 -21.277  0.00  0.00    -0.089 HD
ATOM     23  H   UNL     1      37.159 -17.349 -21.152  0.00  0.00    -0.089 HD
ATOM     24  H   UNL     1      36.663 -18.316 -22.414  0.00  0.00    -0.089 HD
ENDBRANCH  20  21
BRANCH  20  25
ATOM     25  C   UNL     1      34.477 -18.619 -21.430  0.00  0.00    +0.009 C 
BRANCH  25  27
ATOM     26  N   UNL     1      34.465 -16.083 -24.057  0.00  0.00    -0.312 N 
ATOM     27  C   UNL     1      34.424 -17.412 -22.279  0.00  0.00    -0.008 C 
ATOM     28  C   UNL     1      34.203 -16.076 -21.841  0.00  0.00    +0.011 C 
ATOM     29  C   UNL     1      34.234 -15.263 -22.976  0.00  0.00    +0.048 C 
ATOM     30  C   UNL     1      34.583 -17.384 -23.646  0.00  0.00    +0.058 C 
ATOM     31  C   UNL     1      33.978 -15.480 -20.585  0.00  0.00    +0.001 C 
ATOM     32  C   UNL     1      34.050 -13.876 -22.916  0.00  0.00    +0.015 C 
ATOM     33  C   UNL     1      33.793 -14.095 -20.510  0.00  0.00    +0.000 C 
ATOM     34  C   UNL     1      33.828 -13.307 -21.659  0.00  0.00    +0.001 C 
ATOM     35  H   UNL     1      34.538 -15.778 -24.990  0.00  0.00    +0.152 HD
ENDBRANCH  25  27
ENDBRANCH  20  25
ENDBRANCH  19  20
ENDBRANCH   1  19
TORSDOF 7
ENDMDL
MODEL 7
REMARK VINA RESULT:     -12.7      1.557     10.397
REMARK  Name = 10172943
REMARK  7 active torsions:
REMARK  status: ('A' for Active; 'I' for Inactive)
REMARK    1  A    between atoms: O_1  and  C_3
REMARK    2  A    between atoms: O_1  and  C_19
REMARK    3  A    between atoms: C_4  and  C_11
REMARK    4  A    between atoms: C_19  and  C_20
REMARK    5  A    between atoms: C_20  and  N_21
REMARK    6  A    between atoms: C_20  and  C_25
REMARK    7  A    between atoms: C_25  and  C_27
REMARK                            x       y       z     vdW  Elec       q    Type
REMARK                         _______ _______ _______ _____ _____    ______ ____
ROOT
ATOM      1  O   UNL     1      33.774 -21.204 -19.795  0.00  0.00    -0.476 OA
ENDROOT
BRANCH   1   3
ATOM      2  N   UNL     1      36.603 -18.938 -20.169  0.00  0.00    -0.239 NA
ATOM      3  C   UNL     1      34.532 -20.158 -20.252  0.00  0.00    +0.158 C 
ATOM      4  C   UNL     1      34.828 -18.247 -21.659  0.00  0.00    +0.022 C 
ATOM      5  C   UNL     1      34.035 -19.297 -21.214  0.00  0.00    +0.040 C 
ATOM      6  C   UNL     1      35.803 -19.948 -19.762  0.00  0.00    +0.136 C 
ATOM      7  C   UNL     1      36.093 -18.110 -21.110  0.00  0.00    +0.099 C 
BRANCH   4  11
ATOM      8  N   UNL     1      33.124 -13.579 -24.649  0.00  0.00    -0.280 N 
ATOM      9  N   UNL     1      33.000 -14.653 -25.454  0.00  0.00    -0.173 NA
ATOM     10  C   UNL     1      33.791 -15.207 -23.398  0.00  0.00    +0.032 A 
ATOM     11  C   UNL     1      34.348 -17.325 -22.662  0.00  0.00    +0.002 C 
ATOM     12  C   UNL     1      33.408 -15.690 -24.703  0.00  0.00    +0.102 A 
ATOM     13  C   UNL     1      34.267 -15.955 -22.329  0.00  0.00    +0.003 C 
ATOM     14  C   UNL     1      33.596 -13.854 -23.399  0.00  0.00    +0.053 A 
ATOM     15  C   UNL     1      33.981 -17.849 -23.946  0.00  0.00    +0.002 C 
ATOM     16  C   UNL     1      33.498 -17.060 -25.013  0.00  0.00    +0.021 C 
ATOM     17  C   UNL     1      33.796 -12.800 -22.390  0.00  0.00    +0.051 C 
ATOM     18  H   UNL     1      32.893 -12.667 -24.940  0.00  0.00    +0.189 HD
ENDBRANCH   4  11
ENDBRANCH   1   3
BRANCH   1  19
ATOM     19  C   UNL     1      34.196 -21.822 -18.587  0.00  0.00    +0.184 C 
BRANCH  19  20
ATOM     20  C   UNL     1      33.048 -21.945 -17.577  0.00  0.00    -0.017 C 
BRANCH  20  21
ATOM     21  N   UNL     1      31.779 -21.722 -18.281  0.00  0.00    +0.384 N 
ATOM     22  H   UNL     1      31.182 -21.114 -17.720  0.00  0.00    -0.089 HD
ATOM     23  H   UNL     1      31.311 -22.617 -18.428  0.00  0.00    -0.089 HD
ATOM     24  H   UNL     1      31.963 -21.282 -19.182  0.00  0.00    -0.089 HD
ENDBRANCH  20  21
BRANCH  20  25
ATOM     25  C   UNL     1      33.001 -23.316 -16.852  0.00  0.00    +0.009 C 
BRANCH  25  27
ATOM     26  N   UNL     1      33.193 -23.220 -13.207  0.00  0.00    -0.312 N 
ATOM     27  C   UNL     1      33.359 -23.264 -15.420  0.00  0.00    -0.008 C 
ATOM     28  C   UNL     1      34.672 -23.180 -14.877  0.00  0.00    +0.011 C 
ATOM     29  C   UNL     1      34.539 -23.154 -13.487  0.00  0.00    +0.048 C 
ATOM     30  C   UNL     1      32.471 -23.286 -14.369  0.00  0.00    +0.058 C 
ATOM     31  C   UNL     1      35.963 -23.124 -15.436  0.00  0.00    +0.001 C 
ATOM     32  C   UNL     1      35.639 -23.075 -12.625  0.00  0.00    +0.015 C 
ATOM     33  C   UNL     1      37.073 -23.045 -14.587  0.00  0.00    +0.000 C 
ATOM     34  C   UNL     1      36.911 -23.021 -13.203  0.00  0.00    +0.001 C 
ATOM     35  H   UNL     1      32.805 -23.218 -12.302  0.00  0.00    +0.152 HD
ENDBRANCH  25  27
ENDBRANCH  20  25
ENDBRANCH  19  20
ENDBRANCH   1  19
TORSDOF 7
ENDMDL
MODEL 8
REMARK VINA RESULT:     -12.7      1.897     10.460
REMARK  Name = 10172943
REMARK  7 active torsions:
REMARK  status: ('A' for Active; 'I' for Inactive)
REMARK    1  A    between atoms: O_1  and  C_3
REMARK    2  A    between atoms: O_1  and  C_19
REMARK    3  A    between atoms: C_4  and  C_11
REMARK    4  A    between atoms: C_19  and  C_20
REMARK    5  A    between atoms: C_20  and  N_21
REMARK    6  A    between atoms: C_20  and  C_25
REMARK    7  A    between atoms: C_25  and  C_27
REMARK                            x       y       z     vdW  Elec       q    Type
REMARK                         _______ _______ _______ _____ _____    ______ ____
ROOT
ATOM      1  O   UNL     1      33.748 -21.233 -20.033  0.00  0.00    -0.476 OA
ENDROOT
BRANCH   1   3
ATOM      2  N   UNL     1      36.533 -18.890 -20.194  0.00  0.00    -0.239 NA
ATOM      3  C   UNL     1      34.496 -20.148 -20.409  0.00  0.00    +0.158 C 
ATOM      4  C   UNL     1      34.793 -18.161 -21.706  0.00  0.00    +0.022 C 
ATOM      5  C   UNL     1      34.010 -19.250 -21.343  0.00  0.00    +0.040 C 
ATOM      6  C   UNL     1      35.744 -19.937 -19.866  0.00  0.00    +0.136 C 
ATOM      7  C   UNL     1      36.036 -18.025 -21.108  0.00  0.00    +0.099 C 
BRANCH   4  11
ATOM      8  N   UNL     1      33.117 -13.377 -24.523  0.00  0.00    -0.280 N 
ATOM      9  N   UNL     1      33.011 -14.416 -25.375  0.00  0.00    -0.173 NA
ATOM     10  C   UNL     1      33.771 -15.054 -23.331  0.00  0.00    +0.032 A 
ATOM     11  C   UNL     1      34.326 -17.199 -22.677  0.00  0.00    +0.002 C 
ATOM     12  C   UNL     1      33.412 -15.482 -24.662  0.00  0.00    +0.102 A 
ATOM     13  C   UNL     1      34.233 -15.845 -22.288  0.00  0.00    +0.003 C 
ATOM     14  C   UNL     1      33.570 -13.703 -23.279  0.00  0.00    +0.053 A 
ATOM     15  C   UNL     1      33.981 -17.670 -23.988  0.00  0.00    +0.002 C 
ATOM     16  C   UNL     1      33.513 -16.837 -25.028  0.00  0.00    +0.021 C 
ATOM     17  C   UNL     1      33.749 -12.692 -22.223  0.00  0.00    +0.051 C 
ATOM     18  H   UNL     1      32.887 -12.455 -24.779  0.00  0.00    +0.189 HD
ENDBRANCH   4  11
ENDBRANCH   1   3
BRANCH   1  19
ATOM     19  C   UNL     1      32.943 -21.085 -18.870  0.00  0.00    +0.184 C 
BRANCH  19  20
ATOM     20  C   UNL     1      32.957 -22.349 -18.001  0.00  0.00    -0.017 C 
BRANCH  20  21
ATOM     21  N   UNL     1      33.246 -23.505 -18.860  0.00  0.00    +0.384 N 
ATOM     22  H   UNL     1      32.539 -24.224 -18.709  0.00  0.00    -0.089 HD
ATOM     23  H   UNL     1      34.167 -23.878 -18.629  0.00  0.00    -0.089 HD
ATOM     24  H   UNL     1      33.232 -23.214 -19.837  0.00  0.00    -0.089 HD
ENDBRANCH  20  21
BRANCH  20  25
ATOM     25  C   UNL     1      33.991 -22.297 -16.844  0.00  0.00    +0.009 C 
BRANCH  25  27
ATOM     26  N   UNL     1      33.802 -24.581 -14.002  0.00  0.00    -0.312 N 
ATOM     27  C   UNL     1      33.645 -23.134 -15.678  0.00  0.00    -0.008 C 
ATOM     28  C   UNL     1      32.380 -23.202 -15.028  0.00  0.00    +0.011 C 
ATOM     29  C   UNL     1      32.506 -24.118 -13.981  0.00  0.00    +0.048 C 
ATOM     30  C   UNL     1      34.498 -23.994 -15.025  0.00  0.00    +0.058 C 
ATOM     31  C   UNL     1      31.138 -22.571 -15.231  0.00  0.00    +0.001 C 
ATOM     32  C   UNL     1      31.447 -24.434 -13.122  0.00  0.00    +0.015 C 
ATOM     33  C   UNL     1      30.069 -22.877 -14.381  0.00  0.00    +0.000 C 
ATOM     34  C   UNL     1      30.224 -23.795 -13.343  0.00  0.00    +0.001 C 
ATOM     35  H   UNL     1      34.174 -25.242 -13.374  0.00  0.00    +0.152 HD
ENDBRANCH  25  27
ENDBRANCH  20  25
ENDBRANCH  19  20
ENDBRANCH   1  19
TORSDOF 7
ENDMDL
MODEL 9
REMARK VINA RESULT:     -12.6      2.207     10.384
REMARK  Name = 10172943
REMARK  7 active torsions:
REMARK  status: ('A' for Active; 'I' for Inactive)
REMARK    1  A    between atoms: O_1  and  C_3
REMARK    2  A    between atoms: O_1  and  C_19
REMARK    3  A    between atoms: C_4  and  C_11
REMARK    4  A    between atoms: C_19  and  C_20
REMARK    5  A    between atoms: C_20  and  N_21
REMARK    6  A    between atoms: C_20  and  C_25
REMARK    7  A    between atoms: C_25  and  C_27
REMARK                            x       y       z     vdW  Elec       q    Type
REMARK                         _______ _______ _______ _____ _____    ______ ____
ROOT
ATOM      1  O   UNL     1      35.135 -19.562 -19.916  0.00  0.00    -0.476 OA
ENDROOT
BRANCH   1   3
ATOM      2  N   UNL     1      34.561 -19.019 -23.473  0.00  0.00    -0.239 NA
ATOM      3  C   UNL     1      34.848 -18.912 -21.088  0.00  0.00    +0.158 C 
ATOM      4  C   UNL     1      34.277 -16.927 -22.293  0.00  0.00    +0.022 C 
ATOM      5  C   UNL     1      34.565 -17.558 -21.089  0.00  0.00    +0.040 C 
ATOM      6  C   UNL     1      34.836 -19.598 -22.283  0.00  0.00    +0.136 C 
ATOM      7  C   UNL     1      34.288 -17.694 -23.448  0.00  0.00    +0.099 C 
BRANCH   4  11
ATOM      8  N   UNL     1      32.840 -11.536 -23.875  0.00  0.00    -0.280 N 
ATOM      9  N   UNL     1      33.103 -11.522 -22.553  0.00  0.00    -0.173 NA
ATOM     10  C   UNL     1      33.351 -13.591 -23.457  0.00  0.00    +0.032 A 
ATOM     11  C   UNL     1      33.974 -15.516 -22.341  0.00  0.00    +0.002 C 
ATOM     12  C   UNL     1      33.426 -12.793 -22.257  0.00  0.00    +0.102 A 
ATOM     13  C   UNL     1      33.608 -14.950 -23.582  0.00  0.00    +0.003 C 
ATOM     14  C   UNL     1      32.974 -12.755 -24.471  0.00  0.00    +0.053 A 
ATOM     15  C   UNL     1      34.062 -14.761 -21.124  0.00  0.00    +0.002 C 
ATOM     16  C   UNL     1      33.793 -13.378 -21.031  0.00  0.00    +0.021 C 
ATOM     17  C   UNL     1      32.724 -12.954 -25.908  0.00  0.00    +0.051 C 
ATOM     18  H   UNL     1      32.573 -10.729 -24.371  0.00  0.00    +0.189 HD
ENDBRANCH   4  11
ENDBRANCH   1   3
BRANCH   1  19
ATOM     19  C   UNL     1      34.755 -20.930 -19.832  0.00  0.00    +0.184 C 
BRANCH  19  20
ATOM     20  C   UNL     1      33.544 -21.131 -18.912  0.00  0.00    -0.017 C 
BRANCH  20  21
ATOM     21  N   UNL     1      32.323 -20.840 -19.674  0.00  0.00    +0.384 N 
ATOM     22  H   UNL     1      31.544 -21.370 -19.283  0.00  0.00    -0.089 HD
ATOM     23  H   UNL     1      32.460 -21.105 -20.649  0.00  0.00    -0.089 HD
ATOM     24  H   UNL     1      32.118 -19.842 -19.619  0.00  0.00    -0.089 HD
ENDBRANCH  20  21
BRANCH  20  25
ATOM     25  C   UNL     1      33.449 -22.559 -18.313  0.00  0.00    +0.009 C 
BRANCH  25  27
ATOM     26  N   UNL     1      33.819 -22.644 -14.682  0.00  0.00    -0.312 N 
ATOM     27  C   UNL     1      33.315 -22.598 -16.843  0.00  0.00    -0.008 C 
ATOM     28  C   UNL     1      32.100 -22.635 -16.103  0.00  0.00    +0.011 C 
ATOM     29  C   UNL     1      32.445 -22.664 -14.750  0.00  0.00    +0.048 C 
ATOM     30  C   UNL     1      34.355 -22.604 -15.941  0.00  0.00    +0.058 C 
ATOM     31  C   UNL     1      30.736 -22.647 -16.455  0.00  0.00    +0.001 C 
ATOM     32  C   UNL     1      31.489 -22.704 -13.728  0.00  0.00    +0.015 C 
ATOM     33  C   UNL     1      29.769 -22.687 -15.444  0.00  0.00    +0.000 C 
ATOM     34  C   UNL     1      30.143 -22.714 -14.102  0.00  0.00    +0.001 C 
ATOM     35  H   UNL     1      34.342 -22.657 -13.848  0.00  0.00    +0.152 HD
ENDBRANCH  25  27
ENDBRANCH  20  25
ENDBRANCH  19  20
ENDBRANCH   1  19
TORSDOF 7
ENDMDL
