MODEL 1
REMARK VINA RESULT:     -12.0      0.000      0.000
REMARK  Name = 33672
REMARK  8 active torsions:
REMARK  status: ('A' for Active; 'I' for Inactive)
REMARK    1  A    between atoms: N_2  and  CA_11
REMARK    2  A    between atoms: C_3  and  C_19
REMARK    3  A    between atoms: CA_10  and  C_16
REMARK    4  A    between atoms: C_16  and  O_17
REMARK    5  A    between atoms: C_19  and  C_20
REMARK    6  A    between atoms: C_19  and  C_27
REMARK    7  A    between atoms: C_27  and  O_28
REMARK    8  A    between atoms: O_28  and  C_29
REMARK                            x       y       z     vdW  Elec       q    Type
REMARK                         _______ _______ _______ _____ _____    ______ ____
ROOT
ATOM      1  O   UNL     1      32.541 -22.419 -14.213  0.00  0.00    -0.274 OA
ATOM      2  N   UNL     1      34.279 -22.560 -15.741  0.00  0.00    -0.296 N 
ATOM      3  C   UNL     1      32.941 -22.647 -15.354  0.00  0.00    +0.237 C 
ATOM      4  H   UNL     1      34.512 -22.760 -16.677  0.00  0.00    +0.150 HD
ENDROOT
BRANCH   2  11
ATOM      5  S   UNL     1      35.102 -24.907 -13.940  0.00  0.00    -0.118 S 
ATOM      6  O   UNL     1      37.367 -22.023 -16.382  0.00  0.00    -0.273 OA
ATOM      7  N   UNL     1      37.073 -23.286 -14.410  0.00  0.00    -0.260 N 
ATOM      8  C   UNL     1      35.767 -23.211 -13.749  0.00  0.00    +0.151 C 
ATOM      9  C   UNL     1      36.820 -25.627 -13.879  0.00  0.00    +0.068 C 
ATOM     10  CA  UNL     1      37.679 -24.585 -14.626  0.00  0.00    +0.184 C 
ATOM     11  CA  UNL     1      35.358 -22.186 -14.815  0.00  0.00    +0.178 C 
ATOM     12  C   UNL     1      36.774 -22.384 -15.391  0.00  0.00    +0.247 C 
ATOM     13  C   UNL     1      36.819 -26.974 -14.605  0.00  0.00    +0.013 C 
ATOM     14  C   UNL     1      37.197 -25.824 -12.404  0.00  0.00    +0.013 C 
BRANCH  10  16
ATOM     15  OXT UNL     1      39.480 -23.911 -13.167  0.00  0.00    -0.248 OA
ATOM     16  C   UNL     1      39.102 -24.488 -14.174  0.00  0.00    +0.333 C 
BRANCH  16  17
ATOM     17  O   UNL     1      39.923 -25.128 -15.042  0.00  0.00    -0.479 OA
ATOM     18  H   UNL     1      40.832 -24.905 -15.078  0.00  0.00    +0.295 HD
ENDBRANCH  16  17
ENDBRANCH  10  16
ENDBRANCH   2  11
BRANCH   3  19
ATOM     19  C   UNL     1      32.005 -23.073 -16.484  0.00  0.00    +0.198 C 
BRANCH  19  20
ATOM     20  C   UNL     1      30.583 -23.161 -15.958  0.00  0.00    -0.003 C 
ATOM     21  C   UNL     1      29.754 -22.064 -16.078  0.00  0.00    -0.003 C 
ATOM     22  C   UNL     1      30.157 -24.339 -15.373  0.00  0.00    -0.003 C 
ATOM     23  C   UNL     1      28.448 -22.146 -15.595  0.00  0.00    -0.000 C 
ATOM     24  C   UNL     1      28.851 -24.421 -14.889  0.00  0.00    -0.000 C 
ATOM     25  C   UNL     1      27.997 -23.324 -15.000  0.00  0.00    -0.000 C 
ENDBRANCH  19  20
BRANCH  19  27
ATOM     26  O   UNL     1      31.337 -21.285 -18.003  0.00  0.00    -0.249 OA
ATOM     27  C   UNL     1      32.111 -22.193 -17.722  0.00  0.00    +0.334 C 
BRANCH  27  28
ATOM     28  O   UNL     1      33.246 -22.559 -18.447  0.00  0.00    -0.424 OA
BRANCH  28  29
ATOM     29  C   UNL     1      33.790 -21.503 -19.180  0.00  0.00    +0.148 C 
ATOM     30  C   UNL     1      32.947 -20.714 -19.930  0.00  0.00    +0.038 C 
ATOM     31  C   UNL     1      35.150 -21.290 -19.124  0.00  0.00    +0.038 C 
ATOM     32  C   UNL     1      33.490 -19.659 -20.663  0.00  0.00    +0.003 C 
ATOM     33  C   UNL     1      35.694 -20.235 -19.857  0.00  0.00    +0.003 C 
ATOM     34  C   UNL     1      34.864 -19.419 -20.626  0.00  0.00    +0.000 C 
ENDBRANCH  28  29
ENDBRANCH  27  28
ENDBRANCH  19  27
ENDBRANCH   3  19
TORSDOF 8
ENDMDL
MODEL 2
REMARK VINA RESULT:     -10.8      1.317      4.564
REMARK  Name = 33672
REMARK  8 active torsions:
REMARK  status: ('A' for Active; 'I' for Inactive)
REMARK    1  A    between atoms: N_2  and  CA_11
REMARK    2  A    between atoms: C_3  and  C_19
REMARK    3  A    between atoms: CA_10  and  C_16
REMARK    4  A    between atoms: C_16  and  O_17
REMARK    5  A    between atoms: C_19  and  C_20
REMARK    6  A    between atoms: C_19  and  C_27
REMARK    7  A    between atoms: C_27  and  O_28
REMARK    8  A    between atoms: O_28  and  C_29
REMARK                            x       y       z     vdW  Elec       q    Type
REMARK                         _______ _______ _______ _____ _____    ______ ____
ROOT
ATOM      1  O   UNL     1      36.153 -21.036 -17.488  0.00  0.00    -0.274 OA
ATOM      2  N   UNL     1      35.235 -22.032 -15.606  0.00  0.00    -0.296 N 
ATOM      3  C   UNL     1      35.197 -21.563 -16.920  0.00  0.00    +0.237 C 
ATOM      4  H   UNL     1      34.422 -22.442 -15.229  0.00  0.00    +0.150 HD
ENDROOT
BRANCH   2  11
ATOM      5  S   UNL     1      35.423 -24.389 -13.646  0.00  0.00    -0.118 S 
ATOM      6  O   UNL     1      38.295 -22.511 -16.410  0.00  0.00    -0.273 OA
ATOM      7  N   UNL     1      37.757 -23.485 -14.328  0.00  0.00    -0.260 N 
ATOM      8  C   UNL     1      36.579 -22.969 -13.626  0.00  0.00    +0.151 C 
ATOM      9  C   UNL     1      36.843 -25.594 -13.591  0.00  0.00    +0.068 C 
ATOM     10  CA  UNL     1      37.928 -24.918 -14.456  0.00  0.00    +0.184 C 
ATOM     11  CA  UNL     1      36.433 -21.943 -14.758  0.00  0.00    +0.178 C 
ATOM     12  C   UNL     1      37.684 -22.605 -15.370  0.00  0.00    +0.247 C 
ATOM     13  C   UNL     1      36.390 -26.922 -14.200  0.00  0.00    +0.013 C 
ATOM     14  C   UNL     1      37.234 -25.795 -12.121  0.00  0.00    +0.013 C 
BRANCH  10  16
ATOM     15  OXT UNL     1      40.131 -24.429 -13.600  0.00  0.00    -0.248 OA
ATOM     16  C   UNL     1      39.339 -25.231 -14.071  0.00  0.00    +0.333 C 
BRANCH  16  17
ATOM     17  O   UNL     1      39.626 -26.532 -14.319  0.00  0.00    -0.479 OA
ATOM     18  H   UNL     1      40.494 -26.855 -14.180  0.00  0.00    +0.295 HD
ENDBRANCH  16  17
ENDBRANCH  10  16
ENDBRANCH   2  11
BRANCH   3  19
ATOM     19  C   UNL     1      33.838 -21.747 -17.595  0.00  0.00    +0.198 C 
BRANCH  19  20
ATOM     20  C   UNL     1      33.821 -20.992 -18.913  0.00  0.00    -0.003 C 
ATOM     21  C   UNL     1      35.017 -20.731 -19.552  0.00  0.00    -0.003 C 
ATOM     22  C   UNL     1      32.609 -20.588 -19.438  0.00  0.00    -0.003 C 
ATOM     23  C   UNL     1      35.001 -20.039 -20.763  0.00  0.00    -0.000 C 
ATOM     24  C   UNL     1      32.592 -19.895 -20.649  0.00  0.00    -0.000 C 
ATOM     25  C   UNL     1      33.789 -19.621 -21.310  0.00  0.00    -0.000 C 
ENDBRANCH  19  20
BRANCH  19  27
ATOM     26  O   UNL     1      33.355 -23.794 -18.830  0.00  0.00    -0.249 OA
ATOM     27  C   UNL     1      33.436 -23.206 -17.758  0.00  0.00    +0.334 C 
BRANCH  27  28
ATOM     28  O   UNL     1      33.223 -23.765 -16.497  0.00  0.00    -0.424 OA
BRANCH  28  29
ATOM     29  C   UNL     1      32.075 -23.279 -15.870  0.00  0.00    +0.148 C 
ATOM     30  C   UNL     1      32.075 -23.144 -14.500  0.00  0.00    +0.038 C 
ATOM     31  C   UNL     1      30.985 -22.952 -16.646  0.00  0.00    +0.038 C 
ATOM     32  C   UNL     1      30.927 -22.659 -13.872  0.00  0.00    +0.003 C 
ATOM     33  C   UNL     1      29.837 -22.466 -16.020  0.00  0.00    +0.003 C 
ATOM     34  C   UNL     1      29.809 -22.319 -14.633  0.00  0.00    +0.000 C 
ENDBRANCH  28  29
ENDBRANCH  27  28
ENDBRANCH  19  27
ENDBRANCH   3  19
TORSDOF 8
ENDMDL
MODEL 3
REMARK VINA RESULT:     -10.5      2.167      6.744
REMARK  Name = 33672
REMARK  8 active torsions:
REMARK  status: ('A' for Active; 'I' for Inactive)
REMARK    1  A    between atoms: N_2  and  CA_11
REMARK    2  A    between atoms: C_3  and  C_19
REMARK    3  A    between atoms: CA_10  and  C_16
REMARK    4  A    between atoms: C_16  and  O_17
REMARK    5  A    between atoms: C_19  and  C_20
REMARK    6  A    between atoms: C_19  and  C_27
REMARK    7  A    between atoms: C_27  and  O_28
REMARK    8  A    between atoms: O_28  and  C_29
REMARK                            x       y       z     vdW  Elec       q    Type
REMARK                         _______ _______ _______ _____ _____    ______ ____
ROOT
ATOM      1  O   UNL     1      34.948 -24.398 -15.753  0.00  0.00    -0.274 OA
ATOM      2  N   UNL     1      33.670 -22.549 -16.323  0.00  0.00    -0.296 N 
ATOM      3  C   UNL     1      34.826 -23.178 -15.858  0.00  0.00    +0.237 C 
ATOM      4  H   UNL     1      33.658 -21.565 -16.374  0.00  0.00    +0.150 HD
ENDROOT
BRANCH   2  11
ATOM      5  S   UNL     1      32.109 -23.635 -13.912  0.00  0.00    -0.118 S 
ATOM      6  O   UNL     1      30.936 -21.403 -17.524  0.00  0.00    -0.273 OA
ATOM      7  N   UNL     1      30.565 -23.100 -15.927  0.00  0.00    -0.260 N 
ATOM      8  C   UNL     1      31.673 -24.018 -15.648  0.00  0.00    +0.151 C 
ATOM      9  C   UNL     1      30.341 -23.194 -13.525  0.00  0.00    +0.068 C 
ATOM     10  CA  UNL     1      29.845 -22.509 -14.816  0.00  0.00    +0.184 C 
ATOM     11  CA  UNL     1      32.468 -23.287 -16.738  0.00  0.00    +0.178 C 
ATOM     12  C   UNL     1      31.217 -22.402 -16.903  0.00  0.00    +0.247 C 
ATOM     13  C   UNL     1      30.318 -22.231 -12.337  0.00  0.00    +0.013 C 
ATOM     14  C   UNL     1      29.599 -24.490 -13.167  0.00  0.00    +0.013 C 
BRANCH  10  16
ATOM     15  OXT UNL     1      27.867 -23.667 -15.575  0.00  0.00    -0.248 OA
ATOM     16  C   UNL     1      28.386 -22.666 -15.103  0.00  0.00    +0.333 C 
BRANCH  16  17
ATOM     17  O   UNL     1      27.709 -21.540 -14.771  0.00  0.00    -0.479 OA
ATOM     18  H   UNL     1      27.446 -20.937 -15.439  0.00  0.00    +0.295 HD
ENDBRANCH  16  17
ENDBRANCH  10  16
ENDBRANCH   2  11
BRANCH   3  19
ATOM     19  C   UNL     1      35.937 -22.203 -15.467  0.00  0.00    +0.198 C 
BRANCH  19  20
ATOM     20  C   UNL     1      37.031 -22.953 -14.728  0.00  0.00    -0.003 C 
ATOM     21  C   UNL     1      38.127 -23.407 -15.434  0.00  0.00    -0.003 C 
ATOM     22  C   UNL     1      36.901 -23.161 -13.368  0.00  0.00    -0.003 C 
ATOM     23  C   UNL     1      39.133 -24.096 -14.755  0.00  0.00    -0.000 C 
ATOM     24  C   UNL     1      37.906 -23.850 -12.688  0.00  0.00    -0.000 C 
ATOM     25  C   UNL     1      39.022 -24.317 -13.383  0.00  0.00    -0.000 C 
ENDBRANCH  19  20
BRANCH  19  27
ATOM     26  O   UNL     1      37.136 -20.371 -16.540  0.00  0.00    -0.249 OA
ATOM     27  C   UNL     1      36.477 -21.399 -16.641  0.00  0.00    +0.334 C 
BRANCH  27  28
ATOM     28  O   UNL     1      36.140 -22.044 -17.831  0.00  0.00    -0.424 OA
BRANCH  28  29
ATOM     29  C   UNL     1      35.557 -21.192 -18.770  0.00  0.00    +0.148 C 
ATOM     30  C   UNL     1      36.358 -20.289 -19.432  0.00  0.00    +0.038 C 
ATOM     31  C   UNL     1      34.201 -21.286 -18.998  0.00  0.00    +0.038 C 
ATOM     32  C   UNL     1      35.776 -19.436 -20.370  0.00  0.00    +0.003 C 
ATOM     33  C   UNL     1      33.618 -20.435 -19.936  0.00  0.00    +0.003 C 
ATOM     34  C   UNL     1      34.406 -19.510 -20.622  0.00  0.00    +0.000 C 
ENDBRANCH  28  29
ENDBRANCH  27  28
ENDBRANCH  19  27
ENDBRANCH   3  19
TORSDOF 8
ENDMDL
MODEL 4
REMARK VINA RESULT:     -10.3      1.474      2.039
REMARK  Name = 33672
REMARK  8 active torsions:
REMARK  status: ('A' for Active; 'I' for Inactive)
REMARK    1  A    between atoms: N_2  and  CA_11
REMARK    2  A    between atoms: C_3  and  C_19
REMARK    3  A    between atoms: CA_10  and  C_16
REMARK    4  A    between atoms: C_16  and  O_17
REMARK    5  A    between atoms: C_19  and  C_20
REMARK    6  A    between atoms: C_19  and  C_27
REMARK    7  A    between atoms: C_27  and  O_28
REMARK    8  A    between atoms: O_28  and  C_29
REMARK                            x       y       z     vdW  Elec       q    Type
REMARK                         _______ _______ _______ _____ _____    ______ ____
ROOT
ATOM      1  O   UNL     1      35.857 -20.870 -17.454  0.00  0.00    -0.274 OA
ATOM      2  N   UNL     1      35.145 -22.408 -15.872  0.00  0.00    -0.296 N 
ATOM      3  C   UNL     1      35.064 -21.739 -17.094  0.00  0.00    +0.237 C 
ATOM      4  H   UNL     1      34.467 -23.091 -15.665  0.00  0.00    +0.150 HD
ENDROOT
BRANCH   2  11
ATOM      5  S   UNL     1      35.421 -24.705 -13.854  0.00  0.00    -0.118 S 
ATOM      6  O   UNL     1      38.320 -22.427 -16.266  0.00  0.00    -0.273 OA
ATOM      7  N   UNL     1      37.666 -23.465 -14.250  0.00  0.00    -0.260 N 
ATOM      8  C   UNL     1      36.343 -23.129 -13.717  0.00  0.00    +0.151 C 
ATOM      9  C   UNL     1      36.984 -25.685 -13.591  0.00  0.00    +0.068 C 
ATOM     10  CA  UNL     1      38.061 -24.858 -14.324  0.00  0.00    +0.184 C 
ATOM     11  CA  UNL     1      36.196 -22.139 -14.880  0.00  0.00    +0.178 C 
ATOM     12  C   UNL     1      37.599 -22.608 -15.312  0.00  0.00    +0.247 C 
ATOM     13  C   UNL     1      36.815 -27.067 -14.224  0.00  0.00    +0.013 C 
ATOM     14  C   UNL     1      37.206 -25.822 -12.078  0.00  0.00    +0.013 C 
BRANCH  10  16
ATOM     15  OXT UNL     1      40.049 -24.035 -13.230  0.00  0.00    -0.248 OA
ATOM     16  C   UNL     1      39.440 -24.955 -13.754  0.00  0.00    +0.333 C 
BRANCH  16  17
ATOM     17  O   UNL     1      39.931 -26.210 -13.901  0.00  0.00    -0.479 OA
ATOM     18  H   UNL     1      39.828 -26.661 -14.716  0.00  0.00    +0.295 HD
ENDBRANCH  16  17
ENDBRANCH  10  16
ENDBRANCH   2  11
BRANCH   3  19
ATOM     19  C   UNL     1      33.876 -22.173 -17.951  0.00  0.00    +0.198 C 
BRANCH  19  20
ATOM     20  C   UNL     1      32.672 -22.420 -17.059  0.00  0.00    -0.003 C 
ATOM     21  C   UNL     1      31.430 -21.975 -17.469  0.00  0.00    -0.003 C 
ATOM     22  C   UNL     1      32.852 -23.085 -15.861  0.00  0.00    -0.003 C 
ATOM     23  C   UNL     1      30.325 -22.203 -16.649  0.00  0.00    -0.000 C 
ATOM     24  C   UNL     1      31.746 -23.312 -15.040  0.00  0.00    -0.000 C 
ATOM     25  C   UNL     1      30.483 -22.871 -15.435  0.00  0.00    -0.000 C 
ENDBRANCH  19  20
BRANCH  19  27
ATOM     26  O   UNL     1      32.621 -20.430 -19.107  0.00  0.00    -0.249 OA
ATOM     27  C   UNL     1      33.565 -21.210 -19.089  0.00  0.00    +0.334 C 
BRANCH  27  28
ATOM     28  O   UNL     1      34.549 -21.330 -20.071  0.00  0.00    -0.424 OA
BRANCH  28  29
ATOM     29  C   UNL     1      34.861 -20.116 -20.684  0.00  0.00    +0.148 C 
ATOM     30  C   UNL     1      33.959 -19.571 -21.570  0.00  0.00    +0.038 C 
ATOM     31  C   UNL     1      36.060 -19.509 -20.380  0.00  0.00    +0.038 C 
ATOM     32  C   UNL     1      34.271 -18.357 -22.184  0.00  0.00    +0.003 C 
ATOM     33  C   UNL     1      36.372 -18.295 -20.993  0.00  0.00    +0.003 C 
ATOM     34  C   UNL     1      35.477 -17.720 -21.894  0.00  0.00    +0.000 C 
ENDBRANCH  28  29
ENDBRANCH  27  28
ENDBRANCH  19  27
ENDBRANCH   3  19
TORSDOF 8
ENDMDL
MODEL 5
REMARK VINA RESULT:      -9.9      1.765      5.013
REMARK  Name = 33672
REMARK  8 active torsions:
REMARK  status: ('A' for Active; 'I' for Inactive)
REMARK    1  A    between atoms: N_2  and  CA_11
REMARK    2  A    between atoms: C_3  and  C_19
REMARK    3  A    between atoms: CA_10  and  C_16
REMARK    4  A    between atoms: C_16  and  O_17
REMARK    5  A    between atoms: C_19  and  C_20
REMARK    6  A    between atoms: C_19  and  C_27
REMARK    7  A    between atoms: C_27  and  O_28
REMARK    8  A    between atoms: O_28  and  C_29
REMARK                            x       y       z     vdW  Elec       q    Type
REMARK                         _______ _______ _______ _____ _____    ______ ____
ROOT
ATOM      1  O   UNL     1      36.395 -20.843 -16.904  0.00  0.00    -0.274 OA
ATOM      2  N   UNL     1      35.806 -22.999 -16.287  0.00  0.00    -0.296 N 
ATOM      3  C   UNL     1      35.591 -21.774 -16.921  0.00  0.00    +0.237 C 
ATOM      4  H   UNL     1      35.107 -23.690 -16.352  0.00  0.00    +0.150 HD
ENDROOT
BRANCH   2  11
ATOM      5  S   UNL     1      35.449 -22.451 -13.287  0.00  0.00    -0.118 S 
ATOM      6  O   UNL     1      37.054 -25.857 -15.575  0.00  0.00    -0.273 OA
ATOM      7  N   UNL     1      37.137 -24.368 -13.746  0.00  0.00    -0.260 N 
ATOM      8  C   UNL     1      37.047 -22.934 -14.039  0.00  0.00    +0.151 C 
ATOM      9  C   UNL     1      35.641 -23.742 -11.958  0.00  0.00    +0.068 C 
ATOM     10  CA  UNL     1      36.314 -24.923 -12.690  0.00  0.00    +0.184 C 
ATOM     11  CA  UNL     1      37.026 -23.305 -15.528  0.00  0.00    +0.178 C 
ATOM     12  C   UNL     1      37.117 -24.768 -15.052  0.00  0.00    +0.247 C 
ATOM     13  C   UNL     1      34.256 -24.126 -11.435  0.00  0.00    +0.013 C 
ATOM     14  C   UNL     1      36.481 -23.133 -10.826  0.00  0.00    +0.013 C 
BRANCH  10  16
ATOM     15  OXT UNL     1      36.821 -26.496 -10.930  0.00  0.00    -0.248 OA
ATOM     16  C   UNL     1      37.202 -25.778 -11.843  0.00  0.00    +0.333 C 
BRANCH  16  17
ATOM     17  O   UNL     1      38.496 -25.647 -12.222  0.00  0.00    -0.479 OA
ATOM     18  H   UNL     1      39.180 -25.711 -11.585  0.00  0.00    +0.295 HD
ENDBRANCH  16  17
ENDBRANCH  10  16
ENDBRANCH   2  11
BRANCH   3  19
ATOM     19  C   UNL     1      34.241 -21.682 -17.631  0.00  0.00    +0.198 C 
BRANCH  19  20
ATOM     20  C   UNL     1      34.404 -20.915 -18.932  0.00  0.00    -0.003 C 
ATOM     21  C   UNL     1      35.674 -20.704 -19.431  0.00  0.00    -0.003 C 
ATOM     22  C   UNL     1      33.276 -20.450 -19.581  0.00  0.00    -0.003 C 
ATOM     23  C   UNL     1      35.823 -20.000 -20.626  0.00  0.00    -0.000 C 
ATOM     24  C   UNL     1      33.425 -19.745 -20.776  0.00  0.00    -0.000 C 
ATOM     25  C   UNL     1      34.699 -19.521 -21.298  0.00  0.00    -0.000 C 
ENDBRANCH  19  20
BRANCH  19  27
ATOM     26  O   UNL     1      33.311 -23.528 -18.927  0.00  0.00    -0.249 OA
ATOM     27  C   UNL     1      33.572 -23.034 -17.837  0.00  0.00    +0.334 C 
BRANCH  27  28
ATOM     28  O   UNL     1      33.352 -23.629 -16.593  0.00  0.00    -0.424 OA
BRANCH  28  29
ATOM     29  C   UNL     1      32.198 -23.162 -15.961  0.00  0.00    +0.148 C 
ATOM     30  C   UNL     1      31.136 -22.756 -16.737  0.00  0.00    +0.038 C 
ATOM     31  C   UNL     1      32.166 -23.127 -14.584  0.00  0.00    +0.038 C 
ATOM     32  C   UNL     1      29.982 -22.290 -16.106  0.00  0.00    +0.003 C 
ATOM     33  C   UNL     1      31.013 -22.661 -13.952  0.00  0.00    +0.003 C 
ATOM     34  C   UNL     1      29.921 -22.243 -14.713  0.00  0.00    +0.000 C 
ENDBRANCH  28  29
ENDBRANCH  27  28
ENDBRANCH  19  27
ENDBRANCH   3  19
TORSDOF 8
ENDMDL
