MODEL 1
REMARK VINA RESULT:     -11.4      0.000      0.000
REMARK  Name = 10067695
REMARK  7 active torsions:
REMARK  status: ('A' for Active; 'I' for Inactive)
REMARK    1  A    between atoms: N_1  and  C_18
REMARK    2  A    between atoms: C_2  and  C_9
REMARK    3  A    between atoms: C_3  and  O_7
REMARK    4  A    between atoms: C_9  and  S_10
REMARK    5  A    between atoms: S_10  and  C_11
REMARK    6  A    between atoms: C_11  and  C_12
REMARK    7  A    between atoms: C_18  and  C_23
REMARK                            x       y       z     vdW  Elec       q    Type
REMARK                         _______ _______ _______ _____ _____    ______ ____
ROOT
ATOM      1  N   UNL     1      34.008 -21.147 -19.067  0.00  0.00    +0.391 N 
ATOM      2  C   UNL     1      34.198 -19.463 -20.628  0.00  0.00    +0.015 C 
ATOM      3  C   UNL     1      35.606 -20.024 -20.410  0.00  0.00    +0.089 C 
ATOM      4  C   UNL     1      33.292 -20.620 -20.229  0.00  0.00    -0.073 C 
ATOM      5  C   UNL     1      35.419 -21.212 -19.463  0.00  0.00    -0.047 C 
ATOM      6  H   UNL     1      33.882 -20.543 -18.255  0.00  0.00    -0.079 HD
ENDROOT
BRANCH   3   7
ATOM      7  O   UNL     1      36.428 -19.027 -19.823  0.00  0.00    -0.387 OA
ATOM      8  H   UNL     1      36.007 -18.158 -19.926  0.00  0.00    +0.210 HD
ENDBRANCH   3   7
BRANCH   2   9
ATOM      9  C   UNL     1      33.957 -18.988 -22.054  0.00  0.00    +0.058 C 
BRANCH   9  10
ATOM     10  S   UNL     1      35.061 -17.609 -22.458  0.00  0.00    -0.135 S 
BRANCH  10  11
ATOM     11  C   UNL     1      34.653 -16.527 -21.068  0.00  0.00    +0.084 C 
BRANCH  11  12
ATOM     12  C   UNL     1      34.139 -15.188 -21.523  0.00  0.00    -0.011 C 
ATOM     13  C   UNL     1      33.579 -14.319 -20.596  0.00  0.00    -0.003 C 
ATOM     14  C   UNL     1      34.230 -14.839 -22.864  0.00  0.00    -0.003 C 
ATOM     15  C   UNL     1      33.102 -13.077 -21.019  0.00  0.00    -0.000 C 
ATOM     16  C   UNL     1      33.753 -13.598 -23.286  0.00  0.00    -0.000 C 
ATOM     17  C   UNL     1      33.190 -12.717 -22.363  0.00  0.00    -0.000 C 
ENDBRANCH  11  12
ENDBRANCH  10  11
ENDBRANCH   9  10
ENDBRANCH   2   9
BRANCH   1  18
ATOM     18  C   UNL     1      33.490 -22.436 -18.629  0.00  0.00    -0.047 C 
BRANCH  18  23
ATOM     19  N   UNL     1      33.673 -22.549 -14.976  0.00  0.00    -0.323 N 
ATOM     20  N   UNL     1      30.781 -22.480 -16.986  0.00  0.00    -0.247 NA
ATOM     21  N   UNL     1      30.004 -22.549 -14.680  0.00  0.00    -0.232 NA
ATOM     22  N   UNL     1      31.520 -22.611 -12.828  0.00  0.00    -0.345 N 
ATOM     23  C   UNL     1      33.281 -22.480 -17.142  0.00  0.00    -0.014 C 
ATOM     24  C   UNL     1      32.042 -22.499 -16.489  0.00  0.00    +0.076 C 
ATOM     25  C   UNL     1      34.273 -22.512 -16.209  0.00  0.00    +0.053 C 
ATOM     26  C   UNL     1      32.309 -22.541 -15.123  0.00  0.00    +0.163 C 
ATOM     27  C   UNL     1      31.271 -22.565 -14.210  0.00  0.00    +0.123 C 
ATOM     28  C   UNL     1      29.839 -22.508 -16.021  0.00  0.00    +0.251 C 
ATOM     29  H   UNL     1      34.149 -22.577 -14.114  0.00  0.00    +0.148 HD
ATOM     30  H   UNL     1      30.768 -22.629 -12.192  0.00  0.00    +0.143 HD
ATOM     31  H   UNL     1      32.445 -22.624 -12.495  0.00  0.00    +0.143 HD
ENDBRANCH  18  23
ENDBRANCH   1  18
TORSDOF 7
ENDMDL
MODEL 2
REMARK VINA RESULT:     -11.4      1.323      2.619
REMARK  Name = 10067695
REMARK  7 active torsions:
REMARK  status: ('A' for Active; 'I' for Inactive)
REMARK    1  A    between atoms: N_1  and  C_18
REMARK    2  A    between atoms: C_2  and  C_9
REMARK    3  A    between atoms: C_3  and  O_7
REMARK    4  A    between atoms: C_9  and  S_10
REMARK    5  A    between atoms: S_10  and  C_11
REMARK    6  A    between atoms: C_11  and  C_12
REMARK    7  A    between atoms: C_18  and  C_23
REMARK                            x       y       z     vdW  Elec       q    Type
REMARK                         _______ _______ _______ _____ _____    ______ ____
ROOT
ATOM      1  N   UNL     1      34.005 -21.070 -19.022  0.00  0.00    +0.391 N 
ATOM      2  C   UNL     1      34.152 -19.410 -20.614  0.00  0.00    +0.015 C 
ATOM      3  C   UNL     1      35.556 -20.003 -20.462  0.00  0.00    +0.089 C 
ATOM      4  C   UNL     1      33.241 -20.541 -20.152  0.00  0.00    -0.073 C 
ATOM      5  C   UNL     1      35.392 -21.174 -19.490  0.00  0.00    -0.047 C 
ATOM      6  H   UNL     1      33.936 -20.453 -18.213  0.00  0.00    -0.079 HD
ENDROOT
BRANCH   3   7
ATOM      7  O   UNL     1      36.431 -19.018 -19.933  0.00  0.00    -0.387 OA
ATOM      8  H   UNL     1      37.302 -19.413 -19.768  0.00  0.00    +0.210 HD
ENDBRANCH   3   7
BRANCH   2   9
ATOM      9  C   UNL     1      33.848 -18.948 -22.032  0.00  0.00    +0.058 C 
BRANCH   9  10
ATOM     10  S   UNL     1      34.941 -17.582 -22.501  0.00  0.00    -0.135 S 
BRANCH  10  11
ATOM     11  C   UNL     1      34.622 -16.491 -21.095  0.00  0.00    +0.084 C 
BRANCH  11  12
ATOM     12  C   UNL     1      34.102 -15.147 -21.526  0.00  0.00    -0.011 C 
ATOM     13  C   UNL     1      33.555 -14.290 -20.580  0.00  0.00    -0.003 C 
ATOM     14  C   UNL     1      34.175 -14.781 -22.863  0.00  0.00    -0.003 C 
ATOM     15  C   UNL     1      33.072 -13.043 -20.980  0.00  0.00    -0.000 C 
ATOM     16  C   UNL     1      33.693 -13.535 -23.263  0.00  0.00    -0.000 C 
ATOM     17  C   UNL     1      33.141 -12.665 -22.321  0.00  0.00    -0.000 C 
ENDBRANCH  11  12
ENDBRANCH  10  11
ENDBRANCH   9  10
ENDBRANCH   2   9
BRANCH   1  18
ATOM     18  C   UNL     1      33.481 -22.340 -18.539  0.00  0.00    -0.047 C 
BRANCH  18  23
ATOM     19  N   UNL     1      33.255 -22.839 -14.921  0.00  0.00    -0.323 N 
ATOM     20  N   UNL     1      36.131 -22.106 -16.817  0.00  0.00    -0.247 NA
ATOM     21  N   UNL     1      36.868 -22.275 -14.504  0.00  0.00    -0.232 NA
ATOM     22  N   UNL     1      35.350 -22.760 -12.717  0.00  0.00    -0.345 N 
ATOM     23  C   UNL     1      33.669 -22.497 -17.058  0.00  0.00    -0.014 C 
ATOM     24  C   UNL     1      34.881 -22.376 -16.368  0.00  0.00    +0.076 C 
ATOM     25  C   UNL     1      32.678 -22.780 -16.165  0.00  0.00    +0.053 C 
ATOM     26  C   UNL     1      34.601 -22.596 -15.022  0.00  0.00    +0.163 C 
ATOM     27  C   UNL     1      35.613 -22.544 -14.081  0.00  0.00    +0.123 C 
ATOM     28  C   UNL     1      37.047 -22.074 -15.828  0.00  0.00    +0.251 C 
ATOM     29  H   UNL     1      32.775 -23.028 -14.083  0.00  0.00    +0.148 HD
ATOM     30  H   UNL     1      36.083 -22.718 -12.061  0.00  0.00    +0.143 HD
ATOM     31  H   UNL     1      34.433 -22.954 -12.418  0.00  0.00    +0.143 HD
ENDBRANCH  18  23
ENDBRANCH   1  18
TORSDOF 7
ENDMDL
MODEL 3
REMARK VINA RESULT:     -11.4      3.231      4.668
REMARK  Name = 10067695
REMARK  7 active torsions:
REMARK  status: ('A' for Active; 'I' for Inactive)
REMARK    1  A    between atoms: N_1  and  C_18
REMARK    2  A    between atoms: C_2  and  C_9
REMARK    3  A    between atoms: C_3  and  O_7
REMARK    4  A    between atoms: C_9  and  S_10
REMARK    5  A    between atoms: S_10  and  C_11
REMARK    6  A    between atoms: C_11  and  C_12
REMARK    7  A    between atoms: C_18  and  C_23
REMARK                            x       y       z     vdW  Elec       q    Type
REMARK                         _______ _______ _______ _____ _____    ______ ____
ROOT
ATOM      1  N   UNL     1      36.009 -21.844 -17.371  0.00  0.00    +0.391 N 
ATOM      2  C   UNL     1      35.053 -21.277 -19.391  0.00  0.00    +0.015 C 
ATOM      3  C   UNL     1      33.937 -21.862 -18.522  0.00  0.00    +0.089 C 
ATOM      4  C   UNL     1      36.068 -20.776 -18.370  0.00  0.00    -0.073 C 
ATOM      5  C   UNL     1      34.582 -22.113 -17.157  0.00  0.00    -0.047 C 
ATOM      6  H   UNL     1      36.494 -22.679 -17.700  0.00  0.00    -0.079 HD
ENDROOT
BRANCH   3   7
ATOM      7  O   UNL     1      33.472 -23.073 -19.098  0.00  0.00    -0.387 OA
ATOM      8  H   UNL     1      32.539 -22.976 -19.347  0.00  0.00    +0.210 HD
ENDBRANCH   3   7
BRANCH   2   9
ATOM      9  C   UNL     1      34.571 -20.181 -20.330  0.00  0.00    +0.058 C 
BRANCH   9  10
ATOM     10  S   UNL     1      35.899 -18.991 -20.650  0.00  0.00    -0.135 S 
BRANCH  10  11
ATOM     11  C   UNL     1      35.354 -18.416 -22.275  0.00  0.00    +0.084 C 
BRANCH  11  12
ATOM     12  C   UNL     1      34.815 -17.013 -22.230  0.00  0.00    -0.011 C 
ATOM     13  C   UNL     1      34.569 -16.414 -21.001  0.00  0.00    -0.003 C 
ATOM     14  C   UNL     1      34.569 -16.334 -23.415  0.00  0.00    -0.003 C 
ATOM     15  C   UNL     1      34.069 -15.112 -20.958  0.00  0.00    -0.000 C 
ATOM     16  C   UNL     1      34.069 -15.033 -23.372  0.00  0.00    -0.000 C 
ATOM     17  C   UNL     1      33.819 -14.421 -22.144  0.00  0.00    -0.000 C 
ENDBRANCH  11  12
ENDBRANCH  10  11
ENDBRANCH   9  10
ENDBRANCH   2   9
BRANCH   1  18
ATOM     18  C   UNL     1      36.704 -21.497 -16.140  0.00  0.00    -0.047 C 
BRANCH  18  23
ATOM     19  N   UNL     1      35.710 -23.842 -13.513  0.00  0.00    -0.323 N 
ATOM     20  N   UNL     1      38.811 -23.657 -15.173  0.00  0.00    -0.247 NA
ATOM     21  N   UNL     1      39.000 -25.491 -13.583  0.00  0.00    -0.232 NA
ATOM     22  N   UNL     1      37.194 -26.115 -12.141  0.00  0.00    -0.345 N 
ATOM     23  C   UNL     1      36.559 -22.564 -15.094  0.00  0.00    -0.014 C 
ATOM     24  C   UNL     1      37.545 -23.486 -14.720  0.00  0.00    +0.076 C 
ATOM     25  C   UNL     1      35.439 -22.788 -14.350  0.00  0.00    +0.053 C 
ATOM     26  C   UNL     1      36.991 -24.284 -13.723  0.00  0.00    +0.163 C 
ATOM     27  C   UNL     1      37.735 -25.300 -13.151  0.00  0.00    +0.123 C 
ATOM     28  C   UNL     1      39.455 -24.668 -14.554  0.00  0.00    +0.251 C 
ATOM     29  H   UNL     1      35.079 -24.224 -12.860  0.00  0.00    +0.148 HD
ATOM     30  H   UNL     1      37.739 -26.834 -11.744  0.00  0.00    +0.143 HD
ATOM     31  H   UNL     1      36.272 -25.969 -11.831  0.00  0.00    +0.143 HD
ENDBRANCH  18  23
ENDBRANCH   1  18
TORSDOF 7
ENDMDL
MODEL 4
REMARK VINA RESULT:     -11.3      5.623     10.252
REMARK  Name = 10067695
REMARK  7 active torsions:
REMARK  status: ('A' for Active; 'I' for Inactive)
REMARK    1  A    between atoms: N_1  and  C_18
REMARK    2  A    between atoms: C_2  and  C_9
REMARK    3  A    between atoms: C_3  and  O_7
REMARK    4  A    between atoms: C_9  and  S_10
REMARK    5  A    between atoms: S_10  and  C_11
REMARK    6  A    between atoms: C_11  and  C_12
REMARK    7  A    between atoms: C_18  and  C_23
REMARK                            x       y       z     vdW  Elec       q    Type
REMARK                         _______ _______ _______ _____ _____    ______ ____
ROOT
ATOM      1  N   UNL     1      32.834 -13.950 -23.779  0.00  0.00    +0.391 N 
ATOM      2  C   UNL     1      33.902 -15.917 -23.229  0.00  0.00    +0.015 C 
ATOM      3  C   UNL     1      33.733 -15.916 -24.751  0.00  0.00    +0.089 C 
ATOM      4  C   UNL     1      33.873 -14.436 -22.871  0.00  0.00    -0.073 C 
ATOM      5  C   UNL     1      33.132 -14.548 -25.085  0.00  0.00    -0.047 C 
ATOM      6  H   UNL     1      31.907 -14.223 -23.453  0.00  0.00    -0.079 HD
ENDROOT
BRANCH   3   7
ATOM      7  O   UNL     1      32.856 -16.966 -25.131  0.00  0.00    -0.387 OA
ATOM      8  H   UNL     1      32.431 -17.334 -24.340  0.00  0.00    +0.210 HD
ENDBRANCH   3   7
BRANCH   2   9
ATOM      9  C   UNL     1      35.175 -16.611 -22.768  0.00  0.00    +0.058 C 
BRANCH   9  10
ATOM     10  S   UNL     1      34.934 -17.356 -21.135  0.00  0.00    -0.135 S 
BRANCH  10  11
ATOM     11  C   UNL     1      34.209 -18.926 -21.663  0.00  0.00    +0.084 C 
BRANCH  11  12
ATOM     12  C   UNL     1      34.116 -19.916 -20.534  0.00  0.00    -0.011 C 
ATOM     13  C   UNL     1      32.868 -20.291 -20.054  0.00  0.00    -0.003 C 
ATOM     14  C   UNL     1      35.278 -20.442 -19.986  0.00  0.00    -0.003 C 
ATOM     15  C   UNL     1      32.781 -21.209 -19.007  0.00  0.00    -0.000 C 
ATOM     16  C   UNL     1      35.191 -21.360 -18.939  0.00  0.00    -0.000 C 
ATOM     17  C   UNL     1      33.942 -21.744 -18.450  0.00  0.00    -0.000 C 
ENDBRANCH  11  12
ENDBRANCH  10  11
ENDBRANCH   9  10
ENDBRANCH   2   9
BRANCH   1  18
ATOM     18  C   UNL     1      32.773 -12.496 -23.831  0.00  0.00    -0.047 C 
BRANCH  18  23
ATOM     19  N   UNL     1      31.414 -11.730 -20.520  0.00  0.00    -0.323 N 
ATOM     20  N   UNL     1      32.130  -9.473 -23.128  0.00  0.00    -0.247 NA
ATOM     21  N   UNL     1      31.263  -8.134 -21.290  0.00  0.00    -0.232 NA
ATOM     22  N   UNL     1      30.589  -9.112 -19.211  0.00  0.00    -0.345 N 
ATOM     23  C   UNL     1      32.218 -11.912 -22.563  0.00  0.00    -0.014 C 
ATOM     24  C   UNL     1      31.959 -10.556 -22.330  0.00  0.00    +0.076 C 
ATOM     25  C   UNL     1      31.881 -12.624 -21.451  0.00  0.00    +0.053 C 
ATOM     26  C   UNL     1      31.454 -10.460 -21.036  0.00  0.00    +0.163 C 
ATOM     27  C   UNL     1      31.103  -9.228 -20.514  0.00  0.00    +0.123 C 
ATOM     28  C   UNL     1      31.759  -8.321 -22.533  0.00  0.00    +0.251 C 
ATOM     29  H   UNL     1      31.099 -11.965 -19.618  0.00  0.00    +0.148 HD
ATOM     30  H   UNL     1      30.343  -8.226 -18.856  0.00  0.00    +0.143 HD
ATOM     31  H   UNL     1      30.475  -9.914 -18.654  0.00  0.00    +0.143 HD
ENDBRANCH  18  23
ENDBRANCH   1  18
TORSDOF 7
ENDMDL
MODEL 5
REMARK VINA RESULT:     -11.2      3.215      4.841
REMARK  Name = 10067695
REMARK  7 active torsions:
REMARK  status: ('A' for Active; 'I' for Inactive)
REMARK    1  A    between atoms: N_1  and  C_18
REMARK    2  A    between atoms: C_2  and  C_9
REMARK    3  A    between atoms: C_3  and  O_7
REMARK    4  A    between atoms: C_9  and  S_10
REMARK    5  A    between atoms: S_10  and  C_11
REMARK    6  A    between atoms: C_11  and  C_12
REMARK    7  A    between atoms: C_18  and  C_23
REMARK                            x       y       z     vdW  Elec       q    Type
REMARK                         _______ _______ _______ _____ _____    ______ ____
ROOT
ATOM      1  N   UNL     1      34.394 -22.660 -16.573  0.00  0.00    +0.391 N 
ATOM      2  C   UNL     1      35.044 -21.802 -18.611  0.00  0.00    +0.015 C 
ATOM      3  C   UNL     1      33.514 -21.857 -18.622  0.00  0.00    +0.089 C 
ATOM      4  C   UNL     1      35.383 -21.735 -17.127  0.00  0.00    -0.073 C 
ATOM      5  C   UNL     1      33.120 -22.316 -17.216  0.00  0.00    -0.047 C 
ATOM      6  H   UNL     1      34.651 -23.628 -16.763  0.00  0.00    -0.079 HD
ENDROOT
BRANCH   3   7
ATOM      7  O   UNL     1      33.080 -22.787 -19.603  0.00  0.00    -0.387 OA
ATOM      8  H   UNL     1      32.121 -22.702 -19.727  0.00  0.00    +0.210 HD
ENDBRANCH   3   7
BRANCH   2   9
ATOM      9  C   UNL     1      35.607 -20.629 -19.400  0.00  0.00    +0.058 C 
BRANCH   9  10
ATOM     10  S   UNL     1      34.328 -19.906 -20.460  0.00  0.00    -0.135 S 
BRANCH  10  11
ATOM     11  C   UNL     1      35.251 -18.465 -21.044  0.00  0.00    +0.084 C 
BRANCH  11  12
ATOM     12  C   UNL     1      34.649 -17.873 -22.289  0.00  0.00    -0.011 C 
ATOM     13  C   UNL     1      34.016 -18.703 -23.205  0.00  0.00    -0.003 C 
ATOM     14  C   UNL     1      34.735 -16.505 -22.508  0.00  0.00    -0.003 C 
ATOM     15  C   UNL     1      33.458 -18.154 -24.360  0.00  0.00    -0.000 C 
ATOM     16  C   UNL     1      34.177 -15.956 -23.662  0.00  0.00    -0.000 C 
ATOM     17  C   UNL     1      33.538 -16.781 -24.588  0.00  0.00    -0.000 C 
ENDBRANCH  11  12
ENDBRANCH  10  11
ENDBRANCH   9  10
ENDBRANCH   2   9
BRANCH   1  18
ATOM     18  C   UNL     1      34.322 -22.596 -15.120  0.00  0.00    -0.047 C 
BRANCH  18  23
ATOM     19  N   UNL     1      37.407 -23.271 -13.272  0.00  0.00    -0.323 N 
ATOM     20  N   UNL     1      35.601 -25.488 -15.329  0.00  0.00    -0.247 NA
ATOM     21  N   UNL     1      37.513 -26.741 -14.495  0.00  0.00    -0.232 NA
ATOM     22  N   UNL     1      39.134 -25.764 -13.028  0.00  0.00    -0.345 N 
ATOM     23  C   UNL     1      35.566 -23.134 -14.473  0.00  0.00    -0.014 C 
ATOM     24  C   UNL     1      36.069 -24.433 -14.617  0.00  0.00    +0.076 C 
ATOM     25  C   UNL     1      36.391 -22.429 -13.648  0.00  0.00    +0.053 C 
ATOM     26  C   UNL     1      37.230 -24.501 -13.852  0.00  0.00    +0.163 C 
ATOM     27  C   UNL     1      37.958 -25.676 -13.793  0.00  0.00    +0.123 C 
ATOM     28  C   UNL     1      36.378 -26.584 -15.210  0.00  0.00    +0.251 C 
ATOM     29  H   UNL     1      38.152 -23.029 -12.675  0.00  0.00    +0.148 HD
ATOM     30  H   UNL     1      39.640 -26.608 -12.999  0.00  0.00    +0.143 HD
ATOM     31  H   UNL     1      39.451 -24.983 -12.521  0.00  0.00    +0.143 HD
ENDBRANCH  18  23
ENDBRANCH   1  18
TORSDOF 7
ENDMDL
MODEL 6
REMARK VINA RESULT:     -11.0      6.652     11.163
REMARK  Name = 10067695
REMARK  7 active torsions:
REMARK  status: ('A' for Active; 'I' for Inactive)
REMARK    1  A    between atoms: N_1  and  C_18
REMARK    2  A    between atoms: C_2  and  C_9
REMARK    3  A    between atoms: C_3  and  O_7
REMARK    4  A    between atoms: C_9  and  S_10
REMARK    5  A    between atoms: S_10  and  C_11
REMARK    6  A    between atoms: C_11  and  C_12
REMARK    7  A    between atoms: C_18  and  C_23
REMARK                            x       y       z     vdW  Elec       q    Type
REMARK                         _______ _______ _______ _____ _____    ______ ____
ROOT
ATOM      1  N   UNL     1      32.077 -11.968 -21.471  0.00  0.00    +0.391 N 
ATOM      2  C   UNL     1      33.282 -13.590 -22.581  0.00  0.00    +0.015 C 
ATOM      3  C   UNL     1      32.960 -14.151 -21.193  0.00  0.00    +0.089 C 
ATOM      4  C   UNL     1      32.185 -12.557 -22.806  0.00  0.00    -0.073 C 
ATOM      5  C   UNL     1      32.062 -13.099 -20.536  0.00  0.00    -0.047 C 
ATOM      6  H   UNL     1      32.863 -11.346 -21.281  0.00  0.00    -0.079 HD
ENDROOT
BRANCH   3   7
ATOM      7  O   UNL     1      34.164 -14.325 -20.462  0.00  0.00    -0.387 OA
ATOM      8  H   UNL     1      34.397 -13.493 -20.019  0.00  0.00    +0.210 HD
ENDBRANCH   3   7
BRANCH   2   9
ATOM      9  C   UNL     1      33.319 -14.658 -23.665  0.00  0.00    +0.058 C 
BRANCH   9  10
ATOM     10  S   UNL     1      34.806 -15.679 -23.496  0.00  0.00    -0.135 S 
BRANCH  10  11
ATOM     11  C   UNL     1      34.004 -17.290 -23.321  0.00  0.00    +0.084 C 
BRANCH  11  12
ATOM     12  C   UNL     1      34.639 -18.125 -22.244  0.00  0.00    -0.011 C 
ATOM     13  C   UNL     1      33.909 -19.148 -21.651  0.00  0.00    -0.003 C 
ATOM     14  C   UNL     1      35.946 -17.864 -21.854  0.00  0.00    -0.003 C 
ATOM     15  C   UNL     1      34.499 -19.923 -20.652  0.00  0.00    -0.000 C 
ATOM     16  C   UNL     1      36.534 -18.639 -20.855  0.00  0.00    -0.000 C 
ATOM     17  C   UNL     1      35.811 -19.669 -20.254  0.00  0.00    -0.000 C 
ENDBRANCH  11  12
ENDBRANCH  10  11
ENDBRANCH   9  10
ENDBRANCH   2   9
BRANCH   1  18
ATOM     18  C   UNL     1      30.909 -11.112 -21.331  0.00  0.00    -0.047 C 
BRANCH  18  23
ATOM     19  N   UNL     1      31.533  -8.420 -18.931  0.00  0.00    -0.323 N 
ATOM     20  N   UNL     1      31.788  -8.277 -22.441  0.00  0.00    -0.247 NA
ATOM     21  N   UNL     1      32.373  -6.059 -21.627  0.00  0.00    -0.232 NA
ATOM     22  N   UNL     1      32.383  -5.522 -19.293  0.00  0.00    -0.345 N 
ATOM     23  C   UNL     1      31.224  -9.852 -20.577  0.00  0.00    -0.014 C 
ATOM     24  C   UNL     1      31.607  -8.630 -21.145  0.00  0.00    +0.076 C 
ATOM     25  C   UNL     1      31.180  -9.714 -19.222  0.00  0.00    +0.053 C 
ATOM     26  C   UNL     1      31.798  -7.740 -20.092  0.00  0.00    +0.163 C 
ATOM     27  C   UNL     1      32.188  -6.437 -20.343  0.00  0.00    +0.123 C 
ATOM     28  C   UNL     1      32.164  -6.990 -22.584  0.00  0.00    +0.251 C 
ATOM     29  H   UNL     1      31.587  -8.037 -18.026  0.00  0.00    +0.148 HD
ATOM     30  H   UNL     1      32.660  -4.598 -19.491  0.00  0.00    +0.143 HD
ATOM     31  H   UNL     1      32.245  -5.805 -18.362  0.00  0.00    +0.143 HD
ENDBRANCH  18  23
ENDBRANCH   1  18
TORSDOF 7
ENDMDL
MODEL 7
REMARK VINA RESULT:     -11.0      3.694      6.116
REMARK  Name = 10067695
REMARK  7 active torsions:
REMARK  status: ('A' for Active; 'I' for Inactive)
REMARK    1  A    between atoms: N_1  and  C_18
REMARK    2  A    between atoms: C_2  and  C_9
REMARK    3  A    between atoms: C_3  and  O_7
REMARK    4  A    between atoms: C_9  and  S_10
REMARK    5  A    between atoms: S_10  and  C_11
REMARK    6  A    between atoms: C_11  and  C_12
REMARK    7  A    between atoms: C_18  and  C_23
REMARK                            x       y       z     vdW  Elec       q    Type
REMARK                         _______ _______ _______ _____ _____    ______ ____
ROOT
ATOM      1  N   UNL     1      33.690 -23.122 -14.962  0.00  0.00    +0.391 N 
ATOM      2  C   UNL     1      32.556 -22.834 -16.949  0.00  0.00    +0.015 C 
ATOM      3  C   UNL     1      31.528 -22.672 -15.825  0.00  0.00    +0.089 C 
ATOM      4  C   UNL     1      33.876 -22.491 -16.270  0.00  0.00    -0.073 C 
ATOM      5  C   UNL     1      32.338 -22.750 -14.529  0.00  0.00    -0.047 C 
ATOM      6  H   UNL     1      33.789 -24.135 -15.027  0.00  0.00    -0.079 HD
ENDROOT
BRANCH   3   7
ATOM      7  O   UNL     1      30.577 -23.723 -15.898  0.00  0.00    -0.387 OA
ATOM      8  H   UNL     1      29.693 -23.374 -15.700  0.00  0.00    +0.210 HD
ENDBRANCH   3   7
BRANCH   2   9
ATOM      9  C   UNL     1      32.267 -21.955 -18.156  0.00  0.00    +0.058 C 
BRANCH   9  10
ATOM     10  S   UNL     1      33.790 -21.633 -19.084  0.00  0.00    -0.135 S 
BRANCH  10  11
ATOM     11  C   UNL     1      33.143 -20.398 -20.236  0.00  0.00    +0.084 C 
BRANCH  11  12
ATOM     12  C   UNL     1      34.237 -19.573 -20.856  0.00  0.00    -0.011 C 
ATOM     13  C   UNL     1      33.985 -18.873 -22.029  0.00  0.00    -0.003 C 
ATOM     14  C   UNL     1      35.485 -19.521 -20.249  0.00  0.00    -0.003 C 
ATOM     15  C   UNL     1      35.000 -18.107 -22.604  0.00  0.00    -0.000 C 
ATOM     16  C   UNL     1      36.499 -18.756 -20.824  0.00  0.00    -0.000 C 
ATOM     17  C   UNL     1      36.257 -18.049 -22.002  0.00  0.00    -0.000 C 
ENDBRANCH  11  12
ENDBRANCH  10  11
ENDBRANCH   9  10
ENDBRANCH   2   9
BRANCH   1  18
ATOM     18  C   UNL     1      34.713 -22.730 -14.003  0.00  0.00    -0.047 C 
BRANCH  18  23
ATOM     19  N   UNL     1      38.092 -23.076 -15.365  0.00  0.00    -0.323 N 
ATOM     20  N   UNL     1      36.229 -25.483 -13.591  0.00  0.00    -0.247 NA
ATOM     21  N   UNL     1      38.360 -26.531 -14.123  0.00  0.00    -0.232 NA
ATOM     22  N   UNL     1      40.075 -25.382 -15.337  0.00  0.00    -0.345 N 
ATOM     23  C   UNL     1      36.087 -23.134 -14.452  0.00  0.00    -0.014 C 
ATOM     24  C   UNL     1      36.689 -24.380 -14.230  0.00  0.00    +0.076 C 
ATOM     25  C   UNL     1      36.952 -22.343 -15.147  0.00  0.00    +0.053 C 
ATOM     26  C   UNL     1      37.953 -24.324 -14.812  0.00  0.00    +0.163 C 
ATOM     27  C   UNL     1      38.796 -25.418 -14.754  0.00  0.00    +0.123 C 
ATOM     28  C   UNL     1      37.119 -26.495 -13.588  0.00  0.00    +0.251 C 
ATOM     29  H   UNL     1      38.889 -22.755 -15.845  0.00  0.00    +0.148 HD
ATOM     30  H   UNL     1      40.661 -26.172 -15.286  0.00  0.00    +0.143 HD
ATOM     31  H   UNL     1      40.384 -24.569 -15.795  0.00  0.00    +0.143 HD
ENDBRANCH  18  23
ENDBRANCH   1  18
TORSDOF 7
ENDMDL
MODEL 8
REMARK VINA RESULT:     -10.8      3.922      6.539
REMARK  Name = 10067695
REMARK  7 active torsions:
REMARK  status: ('A' for Active; 'I' for Inactive)
REMARK    1  A    between atoms: N_1  and  C_18
REMARK    2  A    between atoms: C_2  and  C_9
REMARK    3  A    between atoms: C_3  and  O_7
REMARK    4  A    between atoms: C_9  and  S_10
REMARK    5  A    between atoms: S_10  and  C_11
REMARK    6  A    between atoms: C_11  and  C_12
REMARK    7  A    between atoms: C_18  and  C_23
REMARK                            x       y       z     vdW  Elec       q    Type
REMARK                         _______ _______ _______ _____ _____    ______ ____
ROOT
ATOM      1  N   UNL     1      34.573 -15.762 -22.672  0.00  0.00    +0.391 N 
ATOM      2  C   UNL     1      33.806 -13.994 -21.408  0.00  0.00    +0.015 C 
ATOM      3  C   UNL     1      33.473 -13.671 -22.867  0.00  0.00    +0.089 C 
ATOM      4  C   UNL     1      33.901 -15.514 -21.396  0.00  0.00    -0.073 C 
ATOM      5  C   UNL     1      33.887 -14.916 -23.656  0.00  0.00    -0.047 C 
ATOM      6  H   UNL     1      35.564 -15.528 -22.615  0.00  0.00    -0.079 HD
ENDROOT
BRANCH   3   7
ATOM      7  O   UNL     1      34.213 -12.533 -23.282  0.00  0.00    -0.387 OA
ATOM      8  H   UNL     1      35.156 -12.677 -23.103  0.00  0.00    +0.210 HD
ENDBRANCH   3   7
BRANCH   2   9
ATOM      9  C   UNL     1      32.775 -13.458 -20.425  0.00  0.00    +0.058 C 
BRANCH   9  10
ATOM     10  S   UNL     1      31.669 -12.281 -21.246  0.00  0.00    -0.135 S 
BRANCH  10  11
ATOM     11  C   UNL     1      31.523 -11.076 -19.906  0.00  0.00    +0.084 C 
BRANCH  11  12
ATOM     12  C   UNL     1      31.420  -9.666 -20.420  0.00  0.00    -0.011 C 
ATOM     13  C   UNL     1      31.550  -8.604 -19.535  0.00  0.00    -0.003 C 
ATOM     14  C   UNL     1      31.197  -9.444 -21.772  0.00  0.00    -0.003 C 
ATOM     15  C   UNL     1      31.455  -7.296 -20.012  0.00  0.00    -0.000 C 
ATOM     16  C   UNL     1      31.102  -8.137 -22.249  0.00  0.00    -0.000 C 
ATOM     17  C   UNL     1      31.231  -7.062 -21.369  0.00  0.00    -0.000 C 
ENDBRANCH  11  12
ENDBRANCH  10  11
ENDBRANCH   9  10
ENDBRANCH   2   9
BRANCH   1  18
ATOM     18  C   UNL     1      34.565 -17.169 -23.044  0.00  0.00    -0.047 C 
BRANCH  18  23
ATOM     19  N   UNL     1      36.634 -18.947 -20.604  0.00  0.00    -0.323 N 
ATOM     20  N   UNL     1      33.191 -19.368 -21.222  0.00  0.00    -0.247 NA
ATOM     21  N   UNL     1      33.760 -20.937 -19.450  0.00  0.00    -0.232 NA
ATOM     22  N   UNL     1      35.984 -21.126 -18.583  0.00  0.00    -0.345 N 
ATOM     23  C   UNL     1      35.173 -18.034 -21.977  0.00  0.00    -0.014 C 
ATOM     24  C   UNL     1      34.493 -18.990 -21.211  0.00  0.00    +0.076 C 
ATOM     25  C   UNL     1      36.482 -18.015 -21.599  0.00  0.00    +0.053 C 
ATOM     26  C   UNL     1      35.431 -19.555 -20.351  0.00  0.00    +0.163 C 
ATOM     27  C   UNL     1      35.052 -20.542 -19.458  0.00  0.00    +0.123 C 
ATOM     28  C   UNL     1      32.920 -20.334 -20.321  0.00  0.00    +0.251 C 
ATOM     29  H   UNL     1      37.479 -19.150 -20.141  0.00  0.00    +0.148 HD
ATOM     30  H   UNL     1      35.696 -21.828 -17.955  0.00  0.00    +0.143 HD
ATOM     31  H   UNL     1      36.923 -20.833 -18.597  0.00  0.00    +0.143 HD
ENDBRANCH  18  23
ENDBRANCH   1  18
TORSDOF 7
ENDMDL
MODEL 9
REMARK VINA RESULT:     -10.7      6.262     11.301
REMARK  Name = 10067695
REMARK  7 active torsions:
REMARK  status: ('A' for Active; 'I' for Inactive)
REMARK    1  A    between atoms: N_1  and  C_18
REMARK    2  A    between atoms: C_2  and  C_9
REMARK    3  A    between atoms: C_3  and  O_7
REMARK    4  A    between atoms: C_9  and  S_10
REMARK    5  A    between atoms: S_10  and  C_11
REMARK    6  A    between atoms: C_11  and  C_12
REMARK    7  A    between atoms: C_18  and  C_23
REMARK                            x       y       z     vdW  Elec       q    Type
REMARK                         _______ _______ _______ _____ _____    ______ ____
ROOT
ATOM      1  N   UNL     1      33.270 -12.549 -22.857  0.00  0.00    +0.391 N 
ATOM      2  C   UNL     1      34.218 -14.629 -22.566  0.00  0.00    +0.015 C 
ATOM      3  C   UNL     1      33.345 -14.365 -21.336  0.00  0.00    +0.089 C 
ATOM      4  C   UNL     1      33.594 -13.744 -23.637  0.00  0.00    -0.073 C 
ATOM      5  C   UNL     1      32.643 -13.035 -21.622  0.00  0.00    -0.047 C 
ATOM      6  H   UNL     1      34.109 -12.006 -22.653  0.00  0.00    -0.079 HD
ENDROOT
BRANCH   3   7
ATOM      7  O   UNL     1      34.168 -14.271 -20.182  0.00  0.00    -0.387 OA
ATOM      8  H   UNL     1      34.948 -13.730 -20.384  0.00  0.00    +0.210 HD
ENDBRANCH   3   7
BRANCH   2   9
ATOM      9  C   UNL     1      34.262 -16.097 -22.965  0.00  0.00    +0.058 C 
BRANCH   9  10
ATOM     10  S   UNL     1      34.975 -17.095 -21.631  0.00  0.00    -0.135 S 
BRANCH  10  11
ATOM     11  C   UNL     1      34.174 -18.669 -22.019  0.00  0.00    +0.084 C 
BRANCH  11  12
ATOM     12  C   UNL     1      34.233 -19.634 -20.867  0.00  0.00    -0.011 C 
ATOM     13  C   UNL     1      35.466 -20.013 -20.354  0.00  0.00    -0.003 C 
ATOM     14  C   UNL     1      33.053 -20.135 -20.332  0.00  0.00    -0.003 C 
ATOM     15  C   UNL     1      35.520 -20.909 -19.285  0.00  0.00    -0.000 C 
ATOM     16  C   UNL     1      33.108 -21.029 -19.264  0.00  0.00    -0.000 C 
ATOM     17  C   UNL     1      34.341 -21.416 -18.740  0.00  0.00    -0.000 C 
ENDBRANCH  11  12
ENDBRANCH  10  11
ENDBRANCH   9  10
ENDBRANCH   2   9
BRANCH   1  18
ATOM     18  C   UNL     1      32.419 -11.619 -23.587  0.00  0.00    -0.047 C 
BRANCH  18  23
ATOM     19  N   UNL     1      30.853  -9.270 -21.259  0.00  0.00    -0.323 N 
ATOM     20  N   UNL     1      33.594  -8.682 -23.392  0.00  0.00    -0.247 NA
ATOM     21  N   UNL     1      33.206  -6.599 -22.195  0.00  0.00    -0.232 NA
ATOM     22  N   UNL     1      31.454  -6.366 -20.581  0.00  0.00    -0.345 N 
ATOM     23  C   UNL     1      31.973 -10.473 -22.725  0.00  0.00    -0.014 C 
ATOM     24  C   UNL     1      32.548  -9.196 -22.698  0.00  0.00    +0.076 C 
ATOM     25  C   UNL     1      30.936 -10.509 -21.842  0.00  0.00    +0.053 C 
ATOM     26  C   UNL     1      31.829  -8.452 -21.767  0.00  0.00    +0.163 C 
ATOM     27  C   UNL     1      32.169  -7.134 -21.516  0.00  0.00    +0.123 C 
ATOM     28  C   UNL     1      33.847  -7.395 -23.080  0.00  0.00    +0.251 C 
ATOM     29  H   UNL     1      30.192  -9.007 -20.578  0.00  0.00    +0.148 HD
ATOM     30  H   UNL     1      31.709  -5.429 -20.416  0.00  0.00    +0.143 HD
ATOM     31  H   UNL     1      30.698  -6.763 -20.092  0.00  0.00    +0.143 HD
ENDBRANCH  18  23
ENDBRANCH   1  18
TORSDOF 7
ENDMDL
