MODEL 1
REMARK VINA RESULT:     -12.4      0.000      0.000
REMARK  Name = 447478
REMARK  5 active torsions:
REMARK  status: ('A' for Active; 'I' for Inactive)
REMARK    1  A    between atoms: C_2  and  C_19
REMARK    2  A    between atoms: C_8  and  C_13
REMARK    3  A    between atoms: C_17  and  O_25
REMARK    4  A    between atoms: C_18  and  O_23
REMARK    5  A    between atoms: O_25  and  C_26
REMARK                            x       y       z     vdW  Elec       q    Type
REMARK                         _______ _______ _______ _____ _____    ______ ____
ROOT
ATOM      1  N   UNL     1      33.080 -13.696 -23.203  0.00  0.00    -0.312 N 
ATOM      2  C   UNL     1      32.835 -12.978 -22.063  0.00  0.00    +0.051 C 
ATOM      3  C   UNL     1      33.889 -14.899 -21.508  0.00  0.00    +0.015 C 
ATOM      4  C   UNL     1      33.723 -14.873 -22.894  0.00  0.00    +0.048 C 
ATOM      5  C   UNL     1      33.324 -13.697 -20.997  0.00  0.00    +0.016 C 
ATOM      6  C   UNL     1      34.530 -16.009 -20.921  0.00  0.00    +0.004 C 
ATOM      7  C   UNL     1      34.166 -15.907 -23.726  0.00  0.00    +0.015 C 
ATOM      8  C   UNL     1      34.977 -17.050 -21.742  0.00  0.00    +0.031 C 
ATOM      9  C   UNL     1      34.798 -16.998 -23.123  0.00  0.00    +0.004 C 
ATOM     10  H   UNL     1      32.833 -13.411 -24.113  0.00  0.00    +0.152 HD
ENDROOT
BRANCH   8  13
ATOM     11  N   UNL     1      34.910 -19.249 -20.588  0.00  0.00    -0.343 N 
ATOM     12  N   UNL     1      36.959 -18.259 -21.121  0.00  0.00    -0.285 NA
ATOM     13  C   UNL     1      35.640 -18.200 -21.145  0.00  0.00    +0.117 C 
ATOM     14  H   UNL     1      35.379 -20.017 -20.188  0.00  0.00    +0.144 HD
ATOM     15  H   UNL     1      33.926 -19.220 -20.594  0.00  0.00    +0.144 HD
ATOM     16  H   UNL     1      37.410 -19.035 -20.716  0.00  0.00    +0.188 HD
ENDBRANCH   8  13
BRANCH   2  19
ATOM     17  C   UNL     1      32.019  -9.412 -22.863  0.00  0.00    +0.172 C 
ATOM     18  C   UNL     1      32.679 -10.641 -22.847  0.00  0.00    +0.169 C 
ATOM     19  C   UNL     1      32.169 -11.699 -22.093  0.00  0.00    +0.050 C 
ATOM     20  C   UNL     1      30.850  -9.238 -22.123  0.00  0.00    +0.040 C 
ATOM     21  C   UNL     1      30.998 -11.524 -21.354  0.00  0.00    +0.004 C 
ATOM     22  C   UNL     1      30.339 -10.295 -21.369  0.00  0.00    +0.003 C 
BRANCH  18  23
ATOM     23  O   UNL     1      33.823 -10.795 -23.577  0.00  0.00    -0.503 OA
ATOM     24  H   UNL     1      34.241 -10.047 -23.955  0.00  0.00    +0.292 HD
ENDBRANCH  18  23
BRANCH  17  25
ATOM     25  O   UNL     1      32.507  -8.371 -23.595  0.00  0.00    -0.476 OA
BRANCH  25  26
ATOM     26  C   UNL     1      32.013  -7.075 -23.283  0.00  0.00    +0.166 C 
ATOM     27  C   UNL     1      31.462  -6.427 -24.544  0.00  0.00    +0.044 C 
ATOM     28  C   UNL     1      33.157  -6.150 -22.896  0.00  0.00    +0.044 C 
ATOM     29  C   UNL     1      32.697  -5.911 -25.282  0.00  0.00    +0.004 C 
ATOM     30  C   UNL     1      33.794  -5.764 -24.227  0.00  0.00    +0.004 C 
ENDBRANCH  25  26
ENDBRANCH  17  25
ENDBRANCH   2  19
TORSDOF 5
ENDMDL
MODEL 2
REMARK VINA RESULT:     -12.1      3.208      9.056
REMARK  Name = 447478
REMARK  5 active torsions:
REMARK  status: ('A' for Active; 'I' for Inactive)
REMARK    1  A    between atoms: C_2  and  C_19
REMARK    2  A    between atoms: C_8  and  C_13
REMARK    3  A    between atoms: C_17  and  O_25
REMARK    4  A    between atoms: C_18  and  O_23
REMARK    5  A    between atoms: O_25  and  C_26
REMARK                            x       y       z     vdW  Elec       q    Type
REMARK                         _______ _______ _______ _____ _____    ______ ____
ROOT
ATOM      1  N   UNL     1      32.136 -12.276 -21.476  0.00  0.00    -0.312 N 
ATOM      2  C   UNL     1      32.736 -12.447 -22.695  0.00  0.00    +0.051 C 
ATOM      3  C   UNL     1      32.182 -10.269 -22.448  0.00  0.00    +0.015 C 
ATOM      4  C   UNL     1      31.788 -10.956 -21.299  0.00  0.00    +0.048 C 
ATOM      5  C   UNL     1      32.778 -11.222 -23.320  0.00  0.00    +0.016 C 
ATOM      6  C   UNL     1      31.940  -8.883 -22.527  0.00  0.00    +0.004 C 
ATOM      7  C   UNL     1      31.160 -10.325 -20.219  0.00  0.00    +0.015 C 
ATOM      8  C   UNL     1      31.312  -8.238 -21.455  0.00  0.00    +0.031 C 
ATOM      9  C   UNL     1      30.930  -8.949 -20.320  0.00  0.00    +0.004 C 
ATOM     10  H   UNL     1      31.977 -12.994 -20.821  0.00  0.00    +0.152 HD
ENDROOT
BRANCH   8  13
ATOM     11  N   UNL     1      30.346  -6.250 -22.588  0.00  0.00    -0.343 N 
ATOM     12  N   UNL     1      31.514  -6.010 -20.577  0.00  0.00    -0.285 NA
ATOM     13  C   UNL     1      31.059  -6.807 -21.528  0.00  0.00    +0.117 C 
ATOM     14  H   UNL     1      30.187  -5.279 -22.618  0.00  0.00    +0.144 HD
ATOM     15  H   UNL     1      30.003  -6.828 -23.307  0.00  0.00    +0.144 HD
ATOM     16  H   UNL     1      31.345  -5.041 -20.625  0.00  0.00    +0.188 HD
ENDBRANCH   8  13
BRANCH   2  19
ATOM     17  C   UNL     1      34.296 -15.851 -22.725  0.00  0.00    +0.172 C 
ATOM     18  C   UNL     1      33.853 -14.609 -22.270  0.00  0.00    +0.169 C 
ATOM     19  C   UNL     1      33.203 -13.736 -23.144  0.00  0.00    +0.050 C 
ATOM     20  C   UNL     1      34.093 -16.221 -24.054  0.00  0.00    +0.040 C 
ATOM     21  C   UNL     1      33.000 -14.108 -24.474  0.00  0.00    +0.004 C 
ATOM     22  C   UNL     1      33.444 -15.348 -24.929  0.00  0.00    +0.003 C 
BRANCH  18  23
ATOM     23  O   UNL     1      34.059 -14.262 -20.966  0.00  0.00    -0.503 OA
ATOM     24  H   UNL     1      34.917 -14.024 -20.675  0.00  0.00    +0.292 HD
ENDBRANCH  18  23
BRANCH  17  25
ATOM     25  O   UNL     1      34.931 -16.712 -21.882  0.00  0.00    -0.476 OA
BRANCH  25  26
ATOM     26  C   UNL     1      35.451 -17.907 -22.450  0.00  0.00    +0.166 C 
ATOM     27  C   UNL     1      34.522 -19.066 -22.129  0.00  0.00    +0.044 C 
ATOM     28  C   UNL     1      36.746 -18.305 -21.758  0.00  0.00    +0.044 C 
ATOM     29  C   UNL     1      34.874 -19.454 -20.693  0.00  0.00    +0.004 C 
ATOM     30  C   UNL     1      36.291 -18.936 -20.446  0.00  0.00    +0.004 C 
ENDBRANCH  25  26
ENDBRANCH  17  25
ENDBRANCH   2  19
TORSDOF 5
ENDMDL
MODEL 3
REMARK VINA RESULT:     -11.7      7.757     13.122
REMARK  Name = 447478
REMARK  5 active torsions:
REMARK  status: ('A' for Active; 'I' for Inactive)
REMARK    1  A    between atoms: C_2  and  C_19
REMARK    2  A    between atoms: C_8  and  C_13
REMARK    3  A    between atoms: C_17  and  O_25
REMARK    4  A    between atoms: C_18  and  O_23
REMARK    5  A    between atoms: O_25  and  C_26
REMARK                            x       y       z     vdW  Elec       q    Type
REMARK                         _______ _______ _______ _____ _____    ______ ____
ROOT
ATOM      1  N   UNL     1      35.639 -20.341 -19.205  0.00  0.00    -0.312 N 
ATOM      2  C   UNL     1      34.456 -20.952 -18.884  0.00  0.00    +0.051 C 
ATOM      3  C   UNL     1      34.151 -19.681 -20.729  0.00  0.00    +0.015 C 
ATOM      4  C   UNL     1      35.482 -19.560 -20.327  0.00  0.00    +0.048 C 
ATOM      5  C   UNL     1      33.515 -20.562 -19.810  0.00  0.00    +0.016 C 
ATOM      6  C   UNL     1      33.718 -18.973 -21.869  0.00  0.00    +0.004 C 
ATOM      7  C   UNL     1      36.407 -18.763 -21.010  0.00  0.00    +0.015 C 
ATOM      8  C   UNL     1      34.633 -18.172 -22.561  0.00  0.00    +0.031 C 
ATOM      9  C   UNL     1      35.956 -18.070 -22.137  0.00  0.00    +0.004 C 
ATOM     10  H   UNL     1      36.481 -20.448 -18.705  0.00  0.00    +0.152 HD
ENDROOT
BRANCH   8  13
ATOM     11  N   UNL     1      34.588 -16.119 -23.959  0.00  0.00    -0.343 N 
ATOM     12  N   UNL     1      33.406 -18.023 -24.622  0.00  0.00    -0.285 NA
ATOM     13  C   UNL     1      34.195 -17.438 -23.739  0.00  0.00    +0.117 C 
ATOM     14  H   UNL     1      34.279 -15.641 -24.763  0.00  0.00    +0.144 HD
ATOM     15  H   UNL     1      35.173 -15.666 -23.310  0.00  0.00    +0.144 HD
ATOM     16  H   UNL     1      33.107 -17.529 -25.419  0.00  0.00    +0.188 HD
ENDBRANCH   8  13
BRANCH   2  19
ATOM     17  C   UNL     1      35.283 -22.948 -15.826  0.00  0.00    +0.172 C 
ATOM     18  C   UNL     1      35.425 -22.094 -16.920  0.00  0.00    +0.169 C 
ATOM     19  C   UNL     1      34.332 -21.832 -17.748  0.00  0.00    +0.050 C 
ATOM     20  C   UNL     1      34.050 -23.542 -15.559  0.00  0.00    +0.040 C 
ATOM     21  C   UNL     1      33.098 -22.427 -17.480  0.00  0.00    +0.004 C 
ATOM     22  C   UNL     1      32.957 -23.281 -16.387  0.00  0.00    +0.003 C 
BRANCH  18  23
ATOM     23  O   UNL     1      36.639 -21.520 -17.167  0.00  0.00    -0.503 OA
ATOM     24  H   UNL     1      37.424 -22.016 -17.048  0.00  0.00    +0.292 HD
ENDBRANCH  18  23
BRANCH  17  25
ATOM     25  O   UNL     1      36.341 -23.212 -15.010  0.00  0.00    -0.476 OA
BRANCH  25  26
ATOM     26  C   UNL     1      36.185 -24.267 -14.070  0.00  0.00    +0.166 C 
ATOM     27  C   UNL     1      37.038 -23.984 -12.844  0.00  0.00    +0.044 C 
ATOM     28  C   UNL     1      36.784 -25.555 -14.614  0.00  0.00    +0.044 C 
ATOM     29  C   UNL     1      38.451 -24.398 -13.256  0.00  0.00    +0.004 C 
ATOM     30  C   UNL     1      38.287 -25.383 -14.413  0.00  0.00    +0.004 C 
ENDBRANCH  25  26
ENDBRANCH  17  25
ENDBRANCH   2  19
TORSDOF 5
ENDMDL
MODEL 4
REMARK VINA RESULT:     -11.4      7.760     12.654
REMARK  Name = 447478
REMARK  5 active torsions:
REMARK  status: ('A' for Active; 'I' for Inactive)
REMARK    1  A    between atoms: C_2  and  C_19
REMARK    2  A    between atoms: C_8  and  C_13
REMARK    3  A    between atoms: C_17  and  O_25
REMARK    4  A    between atoms: C_18  and  O_23
REMARK    5  A    between atoms: O_25  and  C_26
REMARK                            x       y       z     vdW  Elec       q    Type
REMARK                         _______ _______ _______ _____ _____    ______ ____
ROOT
ATOM      1  N   UNL     1      35.646 -20.320 -19.209  0.00  0.00    -0.312 N 
ATOM      2  C   UNL     1      34.469 -20.927 -18.863  0.00  0.00    +0.051 C 
ATOM      3  C   UNL     1      34.139 -19.694 -20.729  0.00  0.00    +0.015 C 
ATOM      4  C   UNL     1      35.474 -19.562 -20.344  0.00  0.00    +0.048 C 
ATOM      5  C   UNL     1      33.517 -20.558 -19.786  0.00  0.00    +0.016 C 
ATOM      6  C   UNL     1      33.692 -19.011 -21.878  0.00  0.00    +0.004 C 
ATOM      7  C   UNL     1      36.390 -18.775 -21.053  0.00  0.00    +0.015 C 
ATOM      8  C   UNL     1      34.597 -18.221 -22.596  0.00  0.00    +0.031 C 
ATOM      9  C   UNL     1      35.925 -18.107 -22.189  0.00  0.00    +0.004 C 
ATOM     10  H   UNL     1      36.494 -20.414 -18.716  0.00  0.00    +0.152 HD
ENDROOT
BRANCH   8  13
ATOM     11  N   UNL     1      34.505 -16.187 -24.019  0.00  0.00    -0.343 N 
ATOM     12  N   UNL     1      33.372 -18.127 -24.661  0.00  0.00    -0.285 NA
ATOM     13  C   UNL     1      34.145 -17.512 -23.784  0.00  0.00    +0.117 C 
ATOM     14  H   UNL     1      34.187 -15.726 -24.829  0.00  0.00    +0.144 HD
ATOM     15  H   UNL     1      35.077 -15.711 -23.374  0.00  0.00    +0.144 HD
ATOM     16  H   UNL     1      33.063 -17.650 -25.466  0.00  0.00    +0.188 HD
ENDBRANCH   8  13
BRANCH   2  19
ATOM     17  C   UNL     1      33.050 -23.169 -16.221  0.00  0.00    +0.172 C 
ATOM     18  C   UNL     1      33.133 -22.342 -17.340  0.00  0.00    +0.169 C 
ATOM     19  C   UNL     1      34.360 -21.785 -17.708  0.00  0.00    +0.050 C 
ATOM     20  C   UNL     1      34.190 -23.440 -15.466  0.00  0.00    +0.040 C 
ATOM     21  C   UNL     1      35.501 -22.058 -16.953  0.00  0.00    +0.004 C 
ATOM     22  C   UNL     1      35.417 -22.884 -15.833  0.00  0.00    +0.003 C 
BRANCH  18  23
ATOM     23  O   UNL     1      32.007 -22.086 -18.070  0.00  0.00    -0.503 OA
ATOM     24  H   UNL     1      31.687 -22.726 -18.676  0.00  0.00    +0.292 HD
ENDBRANCH  18  23
BRANCH  17  25
ATOM     25  O   UNL     1      31.859 -23.718 -15.851  0.00  0.00    -0.476 OA
BRANCH  25  26
ATOM     26  C   UNL     1      31.300 -23.280 -14.619  0.00  0.00    +0.166 C 
ATOM     27  C   UNL     1      30.971 -24.487 -13.756  0.00  0.00    +0.044 C 
ATOM     28  C   UNL     1      29.938 -22.644 -14.851  0.00  0.00    +0.044 C 
ATOM     29  C   UNL     1      29.645 -25.007 -14.311  0.00  0.00    +0.004 C 
ATOM     30  C   UNL     1      28.997 -23.830 -15.042  0.00  0.00    +0.004 C 
ENDBRANCH  25  26
ENDBRANCH  17  25
ENDBRANCH   2  19
TORSDOF 5
ENDMDL
MODEL 5
REMARK VINA RESULT:     -11.3      4.062      7.383
REMARK  Name = 447478
REMARK  5 active torsions:
REMARK  status: ('A' for Active; 'I' for Inactive)
REMARK    1  A    between atoms: C_2  and  C_19
REMARK    2  A    between atoms: C_8  and  C_13
REMARK    3  A    between atoms: C_17  and  O_25
REMARK    4  A    between atoms: C_18  and  O_23
REMARK    5  A    between atoms: O_25  and  C_26
REMARK                            x       y       z     vdW  Elec       q    Type
REMARK                         _______ _______ _______ _____ _____    ______ ____
ROOT
ATOM      1  N   UNL     1      33.728 -20.278 -20.164  0.00  0.00    -0.312 N 
ATOM      2  C   UNL     1      34.718 -19.517 -20.726  0.00  0.00    +0.051 C 
ATOM      3  C   UNL     1      35.557 -20.603 -18.929  0.00  0.00    +0.015 C 
ATOM      4  C   UNL     1      34.212 -20.952 -19.066  0.00  0.00    +0.048 C 
ATOM      5  C   UNL     1      35.862 -19.697 -19.983  0.00  0.00    +0.016 C 
ATOM      6  C   UNL     1      36.299 -21.162 -17.870  0.00  0.00    +0.004 C 
ATOM      7  C   UNL     1      33.569 -21.835 -18.192  0.00  0.00    +0.015 C 
ATOM      8  C   UNL     1      35.668 -22.046 -16.988  0.00  0.00    +0.031 C 
ATOM      9  C   UNL     1      34.324 -22.377 -17.148  0.00  0.00    +0.004 C 
ATOM     10  H   UNL     1      32.803 -20.335 -20.499  0.00  0.00    +0.152 HD
ENDROOT
BRANCH   8  13
ATOM     11  N   UNL     1      35.804 -23.379 -14.896  0.00  0.00    -0.343 N 
ATOM     12  N   UNL     1      37.733 -22.442 -15.824  0.00  0.00    -0.285 NA
ATOM     13  C   UNL     1      36.427 -22.628 -15.890  0.00  0.00    +0.117 C 
ATOM     14  H   UNL     1      36.337 -23.763 -14.162  0.00  0.00    +0.144 HD
ATOM     15  H   UNL     1      34.831 -23.526 -14.927  0.00  0.00    +0.144 HD
ATOM     16  H   UNL     1      38.250 -22.834 -15.083  0.00  0.00    +0.188 HD
ENDBRANCH   8  13
BRANCH   2  19
ATOM     17  C   UNL     1      34.286 -16.540 -22.957  0.00  0.00    +0.172 C 
ATOM     18  C   UNL     1      34.510 -17.309 -21.815  0.00  0.00    +0.169 C 
ATOM     19  C   UNL     1      34.488 -18.703 -21.894  0.00  0.00    +0.050 C 
ATOM     20  C   UNL     1      34.038 -17.163 -24.179  0.00  0.00    +0.040 C 
ATOM     21  C   UNL     1      34.241 -19.325 -23.119  0.00  0.00    +0.004 C 
ATOM     22  C   UNL     1      34.016 -18.556 -24.260  0.00  0.00    +0.003 C 
BRANCH  18  23
ATOM     23  O   UNL     1      34.752 -16.685 -20.624  0.00  0.00    -0.503 OA
ATOM     24  H   UNL     1      34.099 -16.690 -19.952  0.00  0.00    +0.292 HD
ENDBRANCH  18  23
BRANCH  17  25
ATOM     25  O   UNL     1      34.305 -15.180 -22.892  0.00  0.00    -0.476 OA
BRANCH  25  26
ATOM     26  C   UNL     1      33.051 -14.522 -22.764  0.00  0.00    +0.166 C 
ATOM     27  C   UNL     1      32.963 -13.398 -23.783  0.00  0.00    +0.044 C 
ATOM     28  C   UNL     1      32.971 -13.786 -21.435  0.00  0.00    +0.044 C 
ATOM     29  C   UNL     1      33.763 -12.253 -23.163  0.00  0.00    +0.004 C 
ATOM     30  C   UNL     1      33.794 -12.520 -21.657  0.00  0.00    +0.004 C 
ENDBRANCH  25  26
ENDBRANCH  17  25
ENDBRANCH   2  19
TORSDOF 5
ENDMDL
MODEL 6
REMARK VINA RESULT:     -10.9      3.183      8.985
REMARK  Name = 447478
REMARK  5 active torsions:
REMARK  status: ('A' for Active; 'I' for Inactive)
REMARK    1  A    between atoms: C_2  and  C_19
REMARK    2  A    between atoms: C_8  and  C_13
REMARK    3  A    between atoms: C_17  and  O_25
REMARK    4  A    between atoms: C_18  and  O_23
REMARK    5  A    between atoms: O_25  and  C_26
REMARK                            x       y       z     vdW  Elec       q    Type
REMARK                         _______ _______ _______ _____ _____    ______ ____
ROOT
ATOM      1  N   UNL     1      33.769 -11.189 -23.654  0.00  0.00    -0.312 N 
ATOM      2  C   UNL     1      33.011 -12.229 -23.186  0.00  0.00    +0.051 C 
ATOM      3  C   UNL     1      32.167 -10.288 -22.391  0.00  0.00    +0.015 C 
ATOM      4  C   UNL     1      33.277  -9.993 -23.186  0.00  0.00    +0.048 C 
ATOM      5  C   UNL     1      32.012 -11.702 -22.401  0.00  0.00    +0.016 C 
ATOM      6  C   UNL     1      31.467  -9.228 -21.782  0.00  0.00    +0.004 C 
ATOM      7  C   UNL     1      33.724  -8.685 -23.401  0.00  0.00    +0.015 C 
ATOM      8  C   UNL     1      31.904  -7.914 -21.989  0.00  0.00    +0.031 C 
ATOM      9  C   UNL     1      33.015  -7.649 -22.786  0.00  0.00    +0.004 C 
ATOM     10  H   UNL     1      34.553 -11.285 -24.243  0.00  0.00    +0.152 HD
ENDROOT
BRANCH   8  13
ATOM     11  N   UNL     1      31.310  -6.548 -20.001  0.00  0.00    -0.343 N 
ATOM     12  N   UNL     1      30.396  -6.046 -22.092  0.00  0.00    -0.285 NA
ATOM     13  C   UNL     1      31.186  -6.813 -21.363  0.00  0.00    +0.117 C 
ATOM     14  H   UNL     1      30.814  -5.799 -19.598  0.00  0.00    +0.144 HD
ATOM     15  H   UNL     1      31.892  -7.112 -19.441  0.00  0.00    +0.144 HD
ATOM     16  H   UNL     1      29.908  -5.301 -21.672  0.00  0.00    +0.188 HD
ENDBRANCH   8  13
BRANCH   2  19
ATOM     17  C   UNL     1      34.151 -15.787 -22.930  0.00  0.00    +0.172 C 
ATOM     18  C   UNL     1      33.878 -14.463 -22.586  0.00  0.00    +0.169 C 
ATOM     19  C   UNL     1      33.303 -13.601 -23.522  0.00  0.00    +0.050 C 
ATOM     20  C   UNL     1      33.852 -16.250 -24.211  0.00  0.00    +0.040 C 
ATOM     21  C   UNL     1      33.003 -14.067 -24.803  0.00  0.00    +0.004 C 
ATOM     22  C   UNL     1      33.277 -15.390 -25.147  0.00  0.00    +0.003 C 
BRANCH  18  23
ATOM     23  O   UNL     1      34.176 -14.024 -21.328  0.00  0.00    -0.503 OA
ATOM     24  H   UNL     1      35.070 -13.962 -21.053  0.00  0.00    +0.292 HD
ENDBRANCH  18  23
BRANCH  17  25
ATOM     25  O   UNL     1      34.712 -16.638 -22.026  0.00  0.00    -0.476 OA
BRANCH  25  26
ATOM     26  C   UNL     1      35.297 -17.828 -22.536  0.00  0.00    +0.166 C 
ATOM     27  C   UNL     1      34.405 -19.013 -22.205  0.00  0.00    +0.044 C 
ATOM     28  C   UNL     1      36.583 -18.149 -21.790  0.00  0.00    +0.044 C 
ATOM     29  C   UNL     1      34.724 -19.338 -20.746  0.00  0.00    +0.004 C 
ATOM     30  C   UNL     1      36.111 -18.755 -20.472  0.00  0.00    +0.004 C 
ENDBRANCH  25  26
ENDBRANCH  17  25
ENDBRANCH   2  19
TORSDOF 5
ENDMDL
MODEL 7
REMARK VINA RESULT:     -10.7      8.710     13.357
REMARK  Name = 447478
REMARK  5 active torsions:
REMARK  status: ('A' for Active; 'I' for Inactive)
REMARK    1  A    between atoms: C_2  and  C_19
REMARK    2  A    between atoms: C_8  and  C_13
REMARK    3  A    between atoms: C_17  and  O_25
REMARK    4  A    between atoms: C_18  and  O_23
REMARK    5  A    between atoms: O_25  and  C_26
REMARK                            x       y       z     vdW  Elec       q    Type
REMARK                         _______ _______ _______ _____ _____    ______ ____
ROOT
ATOM      1  N   UNL     1      33.918 -21.570 -18.271  0.00  0.00    -0.312 N 
ATOM      2  C   UNL     1      34.992 -21.781 -17.449  0.00  0.00    +0.051 C 
ATOM      3  C   UNL     1      35.609 -20.389 -19.120  0.00  0.00    +0.015 C 
ATOM      4  C   UNL     1      34.265 -20.723 -19.299  0.00  0.00    +0.048 C 
ATOM      5  C   UNL     1      36.054 -21.064 -17.950  0.00  0.00    +0.016 C 
ATOM      6  C   UNL     1      36.222 -19.522 -20.047  0.00  0.00    +0.004 C 
ATOM      7  C   UNL     1      33.501 -20.233 -20.364  0.00  0.00    +0.015 C 
ATOM      8  C   UNL     1      35.470 -19.025 -21.116  0.00  0.00    +0.031 C 
ATOM      9  C   UNL     1      34.130 -19.375 -21.271  0.00  0.00    +0.004 C 
ATOM     10  H   UNL     1      33.024 -21.965 -18.144  0.00  0.00    +0.152 HD
ENDROOT
BRANCH   8  13
ATOM     11  N   UNL     1      35.333 -17.320 -22.918  0.00  0.00    -0.343 N 
ATOM     12  N   UNL     1      37.412 -18.078 -22.168  0.00  0.00    -0.285 NA
ATOM     13  C   UNL     1      36.095 -18.129 -22.078  0.00  0.00    +0.117 C 
ATOM     14  H   UNL     1      35.777 -16.722 -23.562  0.00  0.00    +0.144 HD
ATOM     15  H   UNL     1      34.350 -17.347 -22.867  0.00  0.00    +0.144 HD
ATOM     16  H   UNL     1      37.839 -17.473 -22.818  0.00  0.00    +0.188 HD
ENDBRANCH   8  13
BRANCH   2  19
ATOM     17  C   UNL     1      33.645 -24.038 -14.781  0.00  0.00    +0.172 C 
ATOM     18  C   UNL     1      33.702 -23.218 -15.909  0.00  0.00    +0.169 C 
ATOM     19  C   UNL     1      34.911 -22.632 -16.287  0.00  0.00    +0.050 C 
ATOM     20  C   UNL     1      34.796 -24.271 -14.030  0.00  0.00    +0.040 C 
ATOM     21  C   UNL     1      36.062 -22.867 -15.534  0.00  0.00    +0.004 C 
ATOM     22  C   UNL     1      36.006 -23.686 -14.407  0.00  0.00    +0.003 C 
BRANCH  18  23
ATOM     23  O   UNL     1      32.566 -23.000 -16.635  0.00  0.00    -0.503 OA
ATOM     24  H   UNL     1      32.058 -22.226 -16.487  0.00  0.00    +0.292 HD
ENDBRANCH  18  23
BRANCH  17  25
ATOM     25  O   UNL     1      32.471 -24.616 -14.402  0.00  0.00    -0.476 OA
BRANCH  25  26
ATOM     26  C   UNL     1      31.853 -24.111 -13.225  0.00  0.00    +0.166 C 
ATOM     27  C   UNL     1      30.495 -24.769 -13.046  0.00  0.00    +0.044 C 
ATOM     28  C   UNL     1      31.502 -22.641 -13.400  0.00  0.00    +0.044 C 
ATOM     29  C   UNL     1      29.572 -24.012 -14.000  0.00  0.00    +0.004 C 
ATOM     30  C   UNL     1      30.236 -22.657 -14.252  0.00  0.00    +0.004 C 
ENDBRANCH  25  26
ENDBRANCH  17  25
ENDBRANCH   2  19
TORSDOF 5
ENDMDL
MODEL 8
REMARK VINA RESULT:     -10.5      8.147     13.295
REMARK  Name = 447478
REMARK  5 active torsions:
REMARK  status: ('A' for Active; 'I' for Inactive)
REMARK    1  A    between atoms: C_2  and  C_19
REMARK    2  A    between atoms: C_8  and  C_13
REMARK    3  A    between atoms: C_17  and  O_25
REMARK    4  A    between atoms: C_18  and  O_23
REMARK    5  A    between atoms: O_25  and  C_26
REMARK                            x       y       z     vdW  Elec       q    Type
REMARK                         _______ _______ _______ _____ _____    ______ ____
ROOT
ATOM      1  N   UNL     1      35.585 -20.718 -18.644  0.00  0.00    -0.312 N 
ATOM      2  C   UNL     1      34.390 -21.314 -18.340  0.00  0.00    +0.051 C 
ATOM      3  C   UNL     1      34.140 -20.082 -20.219  0.00  0.00    +0.015 C 
ATOM      4  C   UNL     1      35.461 -19.961 -19.786  0.00  0.00    +0.048 C 
ATOM      5  C   UNL     1      33.476 -20.939 -19.298  0.00  0.00    +0.016 C 
ATOM      6  C   UNL     1      33.741 -19.398 -21.385  0.00  0.00    +0.004 C 
ATOM      7  C   UNL     1      36.409 -19.184 -20.463  0.00  0.00    +0.015 C 
ATOM      8  C   UNL     1      34.679 -18.617 -22.071  0.00  0.00    +0.031 C 
ATOM      9  C   UNL     1      35.991 -18.514 -21.616  0.00  0.00    +0.004 C 
ATOM     10  H   UNL     1      36.413 -20.818 -18.120  0.00  0.00    +0.152 HD
ENDROOT
BRANCH   8  13
ATOM     11  N   UNL     1      33.484 -18.517 -24.247  0.00  0.00    -0.343 N 
ATOM     12  N   UNL     1      34.668 -16.660 -23.465  0.00  0.00    -0.285 NA
ATOM     13  C   UNL     1      34.276 -17.907 -23.276  0.00  0.00    +0.117 C 
ATOM     14  H   UNL     1      33.224 -18.018 -25.055  0.00  0.00    +0.144 HD
ATOM     15  H   UNL     1      33.186 -19.447 -24.125  0.00  0.00    +0.144 HD
ATOM     16  H   UNL     1      34.398 -16.177 -24.280  0.00  0.00    +0.188 HD
ENDBRANCH   8  13
BRANCH   2  19
ATOM     17  C   UNL     1      35.161 -23.413 -15.336  0.00  0.00    +0.172 C 
ATOM     18  C   UNL     1      35.337 -22.588 -16.447  0.00  0.00    +0.169 C 
ATOM     19  C   UNL     1      34.231 -22.168 -17.188  0.00  0.00    +0.050 C 
ATOM     20  C   UNL     1      33.881 -23.821 -14.966  0.00  0.00    +0.040 C 
ATOM     21  C   UNL     1      32.950 -22.577 -16.816  0.00  0.00    +0.004 C 
ATOM     22  C   UNL     1      32.774 -23.402 -15.707  0.00  0.00    +0.003 C 
BRANCH  18  23
ATOM     23  O   UNL     1      36.598 -22.196 -16.797  0.00  0.00    -0.503 OA
ATOM     24  H   UNL     1      36.733 -21.699 -17.580  0.00  0.00    +0.292 HD
ENDBRANCH  18  23
BRANCH  17  25
ATOM     25  O   UNL     1      36.233 -23.829 -14.605  0.00  0.00    -0.476 OA
BRANCH  25  26
ATOM     26  C   UNL     1      36.603 -23.029 -13.489  0.00  0.00    +0.166 C 
ATOM     27  C   UNL     1      37.832 -23.628 -12.823  0.00  0.00    +0.044 C 
ATOM     28  C   UNL     1      35.546 -23.118 -12.399  0.00  0.00    +0.044 C 
ATOM     29  C   UNL     1      37.287 -24.775 -11.973  0.00  0.00    +0.004 C 
ATOM     30  C   UNL     1      35.811 -24.462 -11.728  0.00  0.00    +0.004 C 
ENDBRANCH  25  26
ENDBRANCH  17  25
ENDBRANCH   2  19
TORSDOF 5
ENDMDL
MODEL 9
REMARK VINA RESULT:     -10.5      1.143      1.652
REMARK  Name = 447478
REMARK  5 active torsions:
REMARK  status: ('A' for Active; 'I' for Inactive)
REMARK    1  A    between atoms: C_2  and  C_19
REMARK    2  A    between atoms: C_8  and  C_13
REMARK    3  A    between atoms: C_17  and  O_25
REMARK    4  A    between atoms: C_18  and  O_23
REMARK    5  A    between atoms: O_25  and  C_26
REMARK                            x       y       z     vdW  Elec       q    Type
REMARK                         _______ _______ _______ _____ _____    ______ ____
ROOT
ATOM      1  N   UNL     1      32.943 -12.758 -21.102  0.00  0.00    -0.312 N 
ATOM      2  C   UNL     1      32.745 -12.168 -22.322  0.00  0.00    +0.051 C 
ATOM      3  C   UNL     1      33.656 -14.214 -22.634  0.00  0.00    +0.015 C 
ATOM      4  C   UNL     1      33.497 -14.007 -21.263  0.00  0.00    +0.048 C 
ATOM      5  C   UNL     1      33.177 -13.045 -23.290  0.00  0.00    +0.016 C 
ATOM      6  C   UNL     1      34.210 -15.431 -23.079  0.00  0.00    +0.004 C 
ATOM      7  C   UNL     1      33.867 -14.961 -20.308  0.00  0.00    +0.015 C 
ATOM      8  C   UNL     1      34.585 -16.394 -22.135  0.00  0.00    +0.031 C 
ATOM      9  C   UNL     1      34.415 -16.161 -20.771  0.00  0.00    +0.004 C 
ATOM     10  H   UNL     1      32.719 -12.347 -20.235  0.00  0.00    +0.152 HD
ENDROOT
BRANCH   8  13
ATOM     11  N   UNL     1      34.403 -18.576 -23.307  0.00  0.00    -0.343 N 
ATOM     12  N   UNL     1      36.415 -17.941 -22.302  0.00  0.00    -0.285 NA
ATOM     13  C   UNL     1      35.157 -17.654 -22.584  0.00  0.00    +0.117 C 
ATOM     14  H   UNL     1      34.810 -19.423 -23.600  0.00  0.00    +0.144 HD
ATOM     15  H   UNL     1      33.463 -18.380 -23.523  0.00  0.00    +0.144 HD
ATOM     16  H   UNL     1      36.806 -18.794 -22.604  0.00  0.00    +0.188 HD
ENDBRANCH   8  13
BRANCH   2  19
ATOM     17  C   UNL     1      32.313  -8.550 -23.187  0.00  0.00    +0.172 C 
ATOM     18  C   UNL     1      32.883  -9.818 -23.072  0.00  0.00    +0.169 C 
ATOM     19  C   UNL     1      32.175 -10.849 -22.452  0.00  0.00    +0.050 C 
ATOM     20  C   UNL     1      31.036  -8.311 -22.682  0.00  0.00    +0.040 C 
ATOM     21  C   UNL     1      30.896 -10.608 -21.947  0.00  0.00    +0.004 C 
ATOM     22  C   UNL     1      30.327  -9.341 -22.062  0.00  0.00    +0.003 C 
BRANCH  18  23
ATOM     23  O   UNL     1      34.134 -10.038 -23.572  0.00  0.00    -0.503 OA
ATOM     24  H   UNL     1      34.887  -9.854 -23.045  0.00  0.00    +0.292 HD
ENDBRANCH  18  23
BRANCH  17  25
ATOM     25  O   UNL     1      32.994  -7.536 -23.790  0.00  0.00    -0.476 OA
BRANCH  25  26
ATOM     26  C   UNL     1      32.312  -6.296 -23.933  0.00  0.00    +0.166 C 
ATOM     27  C   UNL     1      32.004  -6.055 -25.402  0.00  0.00    +0.044 C 
ATOM     28  C   UNL     1      33.236  -5.140 -23.582  0.00  0.00    +0.044 C 
ATOM     29  C   UNL     1      33.317  -5.538 -25.990  0.00  0.00    +0.004 C 
ATOM     30  C   UNL     1      34.121  -4.979 -24.815  0.00  0.00    +0.004 C 
ENDBRANCH  25  26
ENDBRANCH  17  25
ENDBRANCH   2  19
TORSDOF 5
ENDMDL
