MODEL 1
REMARK VINA RESULT:     -13.0      0.000      0.000
REMARK  Name = 44129624
REMARK  6 active torsions:
REMARK  status: ('A' for Active; 'I' for Inactive)
REMARK    1  A    between atoms: C_1  and  O_20
REMARK    2  A    between atoms: C_4  and  C_8
REMARK    3  A    between atoms: C_8  and  C_9
REMARK    4  A    between atoms: C_10  and  C_16
REMARK    5  A    between atoms: O_20  and  C_21
REMARK    6  A    between atoms: C_21  and  C_23
REMARK                            x       y       z     vdW  Elec       q    Type
REMARK                         _______ _______ _______ _____ _____    ______ ____
ROOT
ATOM      1  C   UNL     1      33.662 -21.328 -19.391  0.00  0.00    +0.138 C 
ATOM      2  C   UNL     1      35.045 -21.163 -19.313  0.00  0.00    +0.037 C 
ATOM      3  C   UNL     1      32.898 -20.450 -20.160  0.00  0.00    +0.037 C 
ATOM      4  C   UNL     1      34.899 -19.243 -20.771  0.00  0.00    +0.039 C 
ATOM      5  C   UNL     1      35.663 -20.122 -20.002  0.00  0.00    +0.006 C 
ATOM      6  C   UNL     1      33.517 -19.408 -20.849  0.00  0.00    +0.006 C 
ENDROOT
BRANCH   4   8
ATOM      7  O   UNL     1      36.678 -18.313 -21.970  0.00  0.00    -0.287 OA
ATOM      8  C   UNL     1      35.545 -18.158 -21.492  0.00  0.00    +0.196 C 
BRANCH   8   9
ATOM      9  C   UNL     1      34.893 -16.828 -21.691  0.00  0.00    +0.039 C 
ATOM     10  C   UNL     1      33.675 -14.346 -22.062  0.00  0.00    +0.001 C 
ATOM     11  C   UNL     1      34.729 -16.318 -22.978  0.00  0.00    +0.003 C 
ATOM     12  C   UNL     1      34.449 -16.097 -20.589  0.00  0.00    +0.003 C 
ATOM     13  C   UNL     1      34.120 -15.077 -23.164  0.00  0.00    +0.000 C 
ATOM     14  C   UNL     1      33.840 -14.856 -20.775  0.00  0.00    +0.000 C 
BRANCH  10  16
ATOM     15  S   UNL     1      31.452 -11.096 -21.853  0.00  0.00    -0.086 S 
ATOM     16  C   UNL     1      33.047 -13.069 -22.255  0.00  0.00    +0.007 C 
ATOM     17  C   UNL     1      33.345 -12.108 -23.264  0.00  0.00    +0.007 C 
ATOM     18  C   UNL     1      32.037 -12.646 -21.420  0.00  0.00    +0.035 C 
ATOM     19  C   UNL     1      32.551 -10.987 -23.161  0.00  0.00    +0.035 C 
ENDBRANCH  10  16
ENDBRANCH   8   9
ENDBRANCH   4   8
BRANCH   1  20
ATOM     20  O   UNL     1      33.053 -22.354 -18.712  0.00  0.00    -0.478 OA
BRANCH  20  21
ATOM     21  C   UNL     1      33.293 -22.431 -17.317  0.00  0.00    +0.184 C 
BRANCH  21  23
ATOM     22  N   UNL     1      30.843 -22.160 -17.033  0.00  0.00    +0.388 N 
ATOM     23  C   UNL     1      32.031 -22.928 -16.629  0.00  0.00    -0.017 C 
ATOM     24  C   UNL     1      32.065 -22.744 -15.120  0.00  0.00    -0.020 C 
ATOM     25  C   UNL     1      30.598 -22.709 -14.720  0.00  0.00    -0.025 C 
ATOM     26  C   UNL     1      29.834 -22.477 -16.016  0.00  0.00    -0.082 C 
ATOM     27  H   UNL     1      30.526 -22.450 -17.958  0.00  0.00    -0.084 HD
ATOM     28  H   UNL     1      31.033 -21.160 -17.092  0.00  0.00    -0.084 HD
ENDBRANCH  21  23
ENDBRANCH  20  21
ENDBRANCH   1  20
TORSDOF 6
ENDMDL
MODEL 2
REMARK VINA RESULT:     -13.0      0.078      1.342
REMARK  Name = 44129624
REMARK  6 active torsions:
REMARK  status: ('A' for Active; 'I' for Inactive)
REMARK    1  A    between atoms: C_1  and  O_20
REMARK    2  A    between atoms: C_4  and  C_8
REMARK    3  A    between atoms: C_8  and  C_9
REMARK    4  A    between atoms: C_10  and  C_16
REMARK    5  A    between atoms: O_20  and  C_21
REMARK    6  A    between atoms: C_21  and  C_23
REMARK                            x       y       z     vdW  Elec       q    Type
REMARK                         _______ _______ _______ _____ _____    ______ ____
ROOT
ATOM      1  C   UNL     1      33.673 -21.301 -19.456  0.00  0.00    +0.138 C 
ATOM      2  C   UNL     1      32.901 -20.408 -20.198  0.00  0.00    +0.037 C 
ATOM      3  C   UNL     1      35.058 -21.149 -19.401  0.00  0.00    +0.037 C 
ATOM      4  C   UNL     1      34.899 -19.208 -20.831  0.00  0.00    +0.039 C 
ATOM      5  C   UNL     1      33.514 -19.361 -20.885  0.00  0.00    +0.006 C 
ATOM      6  C   UNL     1      35.671 -20.101 -20.089  0.00  0.00    +0.006 C 
ENDROOT
BRANCH   4   8
ATOM      7  O   UNL     1      36.670 -18.262 -22.031  0.00  0.00    -0.287 OA
ATOM      8  C   UNL     1      35.538 -18.114 -21.546  0.00  0.00    +0.196 C 
BRANCH   8   9
ATOM      9  C   UNL     1      34.880 -16.785 -21.732  0.00  0.00    +0.039 C 
ATOM     10  C   UNL     1      33.652 -14.305 -22.079  0.00  0.00    +0.001 C 
ATOM     11  C   UNL     1      34.452 -16.059 -20.622  0.00  0.00    +0.003 C 
ATOM     12  C   UNL     1      34.693 -16.273 -23.016  0.00  0.00    +0.003 C 
ATOM     13  C   UNL     1      33.838 -14.818 -20.796  0.00  0.00    +0.000 C 
ATOM     14  C   UNL     1      34.080 -15.033 -23.189  0.00  0.00    +0.000 C 
BRANCH  10  16
ATOM     15  S   UNL     1      31.432 -11.057 -21.817  0.00  0.00    -0.086 S 
ATOM     16  C   UNL     1      33.021 -13.027 -22.256  0.00  0.00    +0.007 C 
ATOM     17  C   UNL     1      33.302 -12.062 -23.265  0.00  0.00    +0.007 C 
ATOM     18  C   UNL     1      32.024 -12.609 -21.402  0.00  0.00    +0.035 C 
ATOM     19  C   UNL     1      32.509 -10.941 -23.143  0.00  0.00    +0.035 C 
ENDBRANCH  10  16
ENDBRANCH   8   9
ENDBRANCH   4   8
BRANCH   1  20
ATOM     20  O   UNL     1      33.071 -22.333 -18.779  0.00  0.00    -0.478 OA
BRANCH  20  21
ATOM     21  C   UNL     1      33.278 -22.387 -17.377  0.00  0.00    +0.184 C 
BRANCH  21  23
ATOM     22  N   UNL     1      30.818 -22.165 -17.141  0.00  0.00    +0.388 N 
ATOM     23  C   UNL     1      32.013 -22.910 -16.715  0.00  0.00    -0.017 C 
ATOM     24  C   UNL     1      32.014 -22.728 -15.205  0.00  0.00    -0.020 C 
ATOM     25  C   UNL     1      30.538 -22.722 -14.833  0.00  0.00    -0.025 C 
ATOM     26  C   UNL     1      29.796 -22.503 -16.144  0.00  0.00    -0.082 C 
ATOM     27  H   UNL     1      30.525 -22.460 -18.072  0.00  0.00    -0.084 HD
ATOM     28  H   UNL     1      30.989 -21.161 -17.195  0.00  0.00    -0.084 HD
ENDBRANCH  21  23
ENDBRANCH  20  21
ENDBRANCH   1  20
TORSDOF 6
ENDMDL
MODEL 3
REMARK VINA RESULT:     -12.8      1.178      1.452
REMARK  Name = 44129624
REMARK  6 active torsions:
REMARK  status: ('A' for Active; 'I' for Inactive)
REMARK    1  A    between atoms: C_1  and  O_20
REMARK    2  A    between atoms: C_4  and  C_8
REMARK    3  A    between atoms: C_8  and  C_9
REMARK    4  A    between atoms: C_10  and  C_16
REMARK    5  A    between atoms: O_20  and  C_21
REMARK    6  A    between atoms: C_21  and  C_23
REMARK                            x       y       z     vdW  Elec       q    Type
REMARK                         _______ _______ _______ _____ _____    ______ ____
ROOT
ATOM      1  C   UNL     1      32.959 -21.621 -18.874  0.00  0.00    +0.138 C 
ATOM      2  C   UNL     1      34.343 -21.746 -18.766  0.00  0.00    +0.037 C 
ATOM      3  C   UNL     1      32.409 -20.631 -19.689  0.00  0.00    +0.037 C 
ATOM      4  C   UNL     1      34.630 -19.892 -20.288  0.00  0.00    +0.039 C 
ATOM      5  C   UNL     1      35.179 -20.883 -19.473  0.00  0.00    +0.006 C 
ATOM      6  C   UNL     1      33.246 -19.767 -20.396  0.00  0.00    +0.006 C 
ENDROOT
BRANCH   4   8
ATOM      7  O   UNL     1      36.716 -19.231 -21.112  0.00  0.00    -0.287 OA
ATOM      8  C   UNL     1      35.503 -18.993 -21.026  0.00  0.00    +0.196 C 
BRANCH   8   9
ATOM      9  C   UNL     1      34.995 -17.763 -21.707  0.00  0.00    +0.039 C 
ATOM     10  C   UNL     1      34.047 -15.468 -22.977  0.00  0.00    +0.001 C 
ATOM     11  C   UNL     1      34.702 -17.792 -23.070  0.00  0.00    +0.003 C 
ATOM     12  C   UNL     1      34.815 -16.587 -20.979  0.00  0.00    +0.003 C 
ATOM     13  C   UNL     1      34.228 -16.644 -23.705  0.00  0.00    +0.000 C 
ATOM     14  C   UNL     1      34.341 -15.440 -21.614  0.00  0.00    +0.000 C 
BRANCH  10  16
ATOM     15  S   UNL     1      32.890 -11.828 -23.957  0.00  0.00    -0.086 S 
ATOM     16  C   UNL     1      33.558 -14.287 -23.631  0.00  0.00    +0.007 C 
ATOM     17  C   UNL     1      33.081 -14.181 -24.970  0.00  0.00    +0.007 C 
ATOM     18  C   UNL     1      33.509 -13.081 -22.967  0.00  0.00    +0.035 C 
ATOM     19  C   UNL     1      32.686 -12.898 -25.278  0.00  0.00    +0.035 C 
ENDBRANCH  10  16
ENDBRANCH   8   9
ENDBRANCH   4   8
BRANCH   1  20
ATOM     20  O   UNL     1      32.135 -22.470 -18.178  0.00  0.00    -0.478 OA
BRANCH  20  21
ATOM     21  C   UNL     1      32.479 -22.735 -16.829  0.00  0.00    +0.184 C 
BRANCH  21  23
ATOM     22  N   UNL     1      30.031 -22.387 -16.635  0.00  0.00    +0.388 N 
ATOM     23  C   UNL     1      31.210 -23.043 -16.050  0.00  0.00    -0.017 C 
ATOM     24  C   UNL     1      31.238 -22.502 -14.629  0.00  0.00    -0.020 C 
ATOM     25  C   UNL     1      29.769 -22.361 -14.260  0.00  0.00    -0.025 C 
ATOM     26  C   UNL     1      29.014 -22.443 -15.579  0.00  0.00    -0.082 C 
ATOM     27  H   UNL     1      29.716 -22.888 -17.465  0.00  0.00    -0.084 HD
ATOM     28  H   UNL     1      30.229 -21.431 -16.931  0.00  0.00    -0.084 HD
ENDBRANCH  21  23
ENDBRANCH  20  21
ENDBRANCH   1  20
TORSDOF 6
ENDMDL
MODEL 4
REMARK VINA RESULT:     -12.6      0.909      1.504
REMARK  Name = 44129624
REMARK  6 active torsions:
REMARK  status: ('A' for Active; 'I' for Inactive)
REMARK    1  A    between atoms: C_1  and  O_20
REMARK    2  A    between atoms: C_4  and  C_8
REMARK    3  A    between atoms: C_8  and  C_9
REMARK    4  A    between atoms: C_10  and  C_16
REMARK    5  A    between atoms: O_20  and  C_21
REMARK    6  A    between atoms: C_21  and  C_23
REMARK                            x       y       z     vdW  Elec       q    Type
REMARK                         _______ _______ _______ _____ _____    ______ ____
ROOT
ATOM      1  C   UNL     1      33.671 -21.343 -19.467  0.00  0.00    +0.138 C 
ATOM      2  C   UNL     1      35.055 -21.194 -19.380  0.00  0.00    +0.037 C 
ATOM      3  C   UNL     1      32.918 -20.444 -20.222  0.00  0.00    +0.037 C 
ATOM      4  C   UNL     1      34.935 -19.247 -20.803  0.00  0.00    +0.039 C 
ATOM      5  C   UNL     1      35.687 -20.147 -20.048  0.00  0.00    +0.006 C 
ATOM      6  C   UNL     1      33.551 -19.396 -20.890  0.00  0.00    +0.006 C 
ENDROOT
BRANCH   4   8
ATOM      7  O   UNL     1      36.742 -18.303 -21.948  0.00  0.00    -0.287 OA
ATOM      8  C   UNL     1      35.594 -18.156 -21.502  0.00  0.00    +0.196 C 
BRANCH   8   9
ATOM      9  C   UNL     1      34.941 -16.829 -21.716  0.00  0.00    +0.039 C 
ATOM     10  C   UNL     1      33.721 -14.352 -22.115  0.00  0.00    +0.001 C 
ATOM     11  C   UNL     1      34.466 -16.102 -20.624  0.00  0.00    +0.003 C 
ATOM     12  C   UNL     1      34.805 -16.318 -23.007  0.00  0.00    +0.003 C 
ATOM     13  C   UNL     1      33.857 -14.863 -20.824  0.00  0.00    +0.000 C 
ATOM     14  C   UNL     1      34.195 -15.080 -23.206  0.00  0.00    +0.000 C 
BRANCH  10  16
ATOM     15  S   UNL     1      31.512 -11.091 -21.920  0.00  0.00    -0.086 S 
ATOM     16  C   UNL     1      33.094 -13.076 -22.318  0.00  0.00    +0.007 C 
ATOM     17  C   UNL     1      33.376 -12.134 -23.349  0.00  0.00    +0.007 C 
ATOM     18  C   UNL     1      32.101 -12.636 -21.472  0.00  0.00    +0.035 C 
ATOM     19  C   UNL     1      32.587 -11.008 -23.251  0.00  0.00    +0.035 C 
ENDBRANCH  10  16
ENDBRANCH   8   9
ENDBRANCH   4   8
BRANCH   1  20
ATOM     20  O   UNL     1      33.048 -22.374 -18.808  0.00  0.00    -0.478 OA
BRANCH  20  21
ATOM     21  C   UNL     1      32.322 -22.042 -17.637  0.00  0.00    +0.184 C 
BRANCH  21  23
ATOM     22  N   UNL     1      31.863 -22.849 -15.336  0.00  0.00    +0.388 N 
ATOM     23  C   UNL     1      32.708 -23.010 -16.529  0.00  0.00    -0.017 C 
ATOM     24  C   UNL     1      34.111 -22.772 -15.994  0.00  0.00    -0.020 C 
ATOM     25  C   UNL     1      34.076 -23.361 -14.592  0.00  0.00    -0.025 C 
ATOM     26  C   UNL     1      32.598 -23.532 -14.267  0.00  0.00    -0.082 C 
ATOM     27  H   UNL     1      30.951 -23.282 -15.481  0.00  0.00    -0.084 HD
ATOM     28  H   UNL     1      31.687 -21.868 -15.119  0.00  0.00    -0.084 HD
ENDBRANCH  21  23
ENDBRANCH  20  21
ENDBRANCH   1  20
TORSDOF 6
ENDMDL
MODEL 5
REMARK VINA RESULT:     -12.4      4.163      9.292
REMARK  Name = 44129624
REMARK  6 active torsions:
REMARK  status: ('A' for Active; 'I' for Inactive)
REMARK    1  A    between atoms: C_1  and  O_20
REMARK    2  A    between atoms: C_4  and  C_8
REMARK    3  A    between atoms: C_8  and  C_9
REMARK    4  A    between atoms: C_10  and  C_16
REMARK    5  A    between atoms: O_20  and  C_21
REMARK    6  A    between atoms: C_21  and  C_23
REMARK                            x       y       z     vdW  Elec       q    Type
REMARK                         _______ _______ _______ _____ _____    ______ ____
ROOT
ATOM      1  C   UNL     1      34.145 -14.596 -22.194  0.00  0.00    +0.138 C 
ATOM      2  C   UNL     1      34.214 -15.272 -23.411  0.00  0.00    +0.037 C 
ATOM      3  C   UNL     1      34.207 -15.308 -20.995  0.00  0.00    +0.037 C 
ATOM      4  C   UNL     1      34.406 -17.373 -22.234  0.00  0.00    +0.039 C 
ATOM      5  C   UNL     1      34.344 -16.660 -23.432  0.00  0.00    +0.006 C 
ATOM      6  C   UNL     1      34.337 -16.697 -21.016  0.00  0.00    +0.006 C 
ENDROOT
BRANCH   4   8
ATOM      7  O   UNL     1      34.714 -19.415 -23.330  0.00  0.00    -0.287 OA
ATOM      8  C   UNL     1      34.544 -18.820 -22.255  0.00  0.00    +0.196 C 
BRANCH   8   9
ATOM      9  C   UNL     1      34.491 -19.649 -21.013  0.00  0.00    +0.039 C 
ATOM     10  C   UNL     1      34.391 -21.196 -18.694  0.00  0.00    +0.001 C 
ATOM     11  C   UNL     1      35.672 -20.013 -20.367  0.00  0.00    +0.003 C 
ATOM     12  C   UNL     1      33.260 -20.060 -20.501  0.00  0.00    +0.003 C 
ATOM     13  C   UNL     1      35.622 -20.786 -19.207  0.00  0.00    +0.000 C 
ATOM     14  C   UNL     1      33.210 -20.834 -19.342  0.00  0.00    +0.000 C 
BRANCH  10  16
ATOM     15  S   UNL     1      35.129 -23.084 -15.312  0.00  0.00    -0.086 S 
ATOM     16  C   UNL     1      34.341 -21.992 -17.500  0.00  0.00    +0.007 C 
ATOM     17  C   UNL     1      33.240 -22.760 -17.023  0.00  0.00    +0.007 C 
ATOM     18  C   UNL     1      35.434 -22.079 -16.665  0.00  0.00    +0.035 C 
ATOM     19  C   UNL     1      33.533 -23.405 -15.841  0.00  0.00    +0.035 C 
ENDBRANCH  10  16
ENDBRANCH   8   9
ENDBRANCH   4   8
BRANCH   1  20
ATOM     20  O   UNL     1      34.016 -13.230 -22.172  0.00  0.00    -0.478 OA
BRANCH  20  21
ATOM     21  C   UNL     1      33.323 -12.634 -23.256  0.00  0.00    +0.184 C 
BRANCH  21  23
ATOM     22  N   UNL     1      32.152 -10.478 -22.893  0.00  0.00    +0.388 N 
ATOM     23  C   UNL     1      32.082 -11.937 -22.721  0.00  0.00    -0.017 C 
ATOM     24  C   UNL     1      31.911 -12.099 -21.218  0.00  0.00    -0.020 C 
ATOM     25  C   UNL     1      31.055 -10.909 -20.814  0.00  0.00    -0.025 C 
ATOM     26  C   UNL     1      31.121  -9.949 -21.994  0.00  0.00    -0.082 C 
ATOM     27  H   UNL     1      31.953 -10.220 -23.860  0.00  0.00    -0.084 HD
ATOM     28  H   UNL     1      33.078 -10.108 -22.679  0.00  0.00    -0.084 HD
ENDBRANCH  21  23
ENDBRANCH  20  21
ENDBRANCH   1  20
TORSDOF 6
ENDMDL
MODEL 6
REMARK VINA RESULT:     -12.0      4.804      9.801
REMARK  Name = 44129624
REMARK  6 active torsions:
REMARK  status: ('A' for Active; 'I' for Inactive)
REMARK    1  A    between atoms: C_1  and  O_20
REMARK    2  A    between atoms: C_4  and  C_8
REMARK    3  A    between atoms: C_8  and  C_9
REMARK    4  A    between atoms: C_10  and  C_16
REMARK    5  A    between atoms: O_20  and  C_21
REMARK    6  A    between atoms: C_21  and  C_23
REMARK                            x       y       z     vdW  Elec       q    Type
REMARK                         _______ _______ _______ _____ _____    ______ ____
ROOT
ATOM      1  C   UNL     1      32.752 -11.846 -23.121  0.00  0.00    +0.138 C 
ATOM      2  C   UNL     1      32.589 -12.326 -24.420  0.00  0.00    +0.037 C 
ATOM      3  C   UNL     1      33.367 -12.643 -22.154  0.00  0.00    +0.037 C 
ATOM      4  C   UNL     1      33.657 -14.398 -23.788  0.00  0.00    +0.039 C 
ATOM      5  C   UNL     1      33.042 -13.601 -24.754  0.00  0.00    +0.006 C 
ATOM      6  C   UNL     1      33.819 -13.919 -22.489  0.00  0.00    +0.006 C 
ENDROOT
BRANCH   4   8
ATOM      7  O   UNL     1      34.454 -15.988 -25.306  0.00  0.00    -0.287 OA
ATOM      8  C   UNL     1      34.131 -15.728 -24.138  0.00  0.00    +0.196 C 
BRANCH   8   9
ATOM      9  C   UNL     1      34.252 -16.826 -23.132  0.00  0.00    +0.039 C 
ATOM     10  C   UNL     1      34.480 -18.876 -21.253  0.00  0.00    +0.001 C 
ATOM     11  C   UNL     1      33.813 -18.112 -23.447  0.00  0.00    +0.003 C 
ATOM     12  C   UNL     1      34.805 -16.565 -21.877  0.00  0.00    +0.003 C 
ATOM     13  C   UNL     1      33.927 -19.136 -22.507  0.00  0.00    +0.000 C 
ATOM     14  C   UNL     1      34.918 -17.590 -20.938  0.00  0.00    +0.000 C 
BRANCH  10  16
ATOM     15  S   UNL     1      33.879 -21.830 -18.711  0.00  0.00    -0.086 S 
ATOM     16  C   UNL     1      34.597 -19.932 -20.288  0.00  0.00    +0.007 C 
ATOM     17  C   UNL     1      35.789 -20.401 -19.667  0.00  0.00    +0.007 C 
ATOM     18  C   UNL     1      33.484 -20.622 -19.859  0.00  0.00    +0.035 C 
ATOM     19  C   UNL     1      35.543 -21.432 -18.786  0.00  0.00    +0.035 C 
ENDBRANCH  10  16
ENDBRANCH   8   9
ENDBRANCH   4   8
BRANCH   1  20
ATOM     20  O   UNL     1      32.306 -10.590 -22.790  0.00  0.00    -0.478 OA
BRANCH  20  21
ATOM     21  C   UNL     1      31.269 -10.511 -21.827  0.00  0.00    +0.184 C 
BRANCH  21  23
ATOM     22  N   UNL     1      32.149  -8.196 -21.974  0.00  0.00    +0.388 N 
ATOM     23  C   UNL     1      31.106  -9.060 -21.400  0.00  0.00    -0.017 C 
ATOM     24  C   UNL     1      31.276  -8.859 -19.902  0.00  0.00    -0.020 C 
ATOM     25  C   UNL     1      31.681  -7.398 -19.770  0.00  0.00    -0.025 C 
ATOM     26  C   UNL     1      32.097  -6.970 -21.170  0.00  0.00    -0.082 C 
ATOM     27  H   UNL     1      31.948  -7.994 -22.953  0.00  0.00    -0.084 HD
ATOM     28  H   UNL     1      33.069  -8.635 -21.951  0.00  0.00    -0.084 HD
ENDBRANCH  21  23
ENDBRANCH  20  21
ENDBRANCH   1  20
TORSDOF 6
ENDMDL
MODEL 7
REMARK VINA RESULT:     -11.8      2.475      3.391
REMARK  Name = 44129624
REMARK  6 active torsions:
REMARK  status: ('A' for Active; 'I' for Inactive)
REMARK    1  A    between atoms: C_1  and  O_20
REMARK    2  A    between atoms: C_4  and  C_8
REMARK    3  A    between atoms: C_8  and  C_9
REMARK    4  A    between atoms: C_10  and  C_16
REMARK    5  A    between atoms: O_20  and  C_21
REMARK    6  A    between atoms: C_21  and  C_23
REMARK                            x       y       z     vdW  Elec       q    Type
REMARK                         _______ _______ _______ _____ _____    ______ ____
ROOT
ATOM      1  C   UNL     1      35.589 -19.414 -20.601  0.00  0.00    +0.138 C 
ATOM      2  C   UNL     1      34.297 -19.554 -21.107  0.00  0.00    +0.037 C 
ATOM      3  C   UNL     1      36.432 -18.421 -21.103  0.00  0.00    +0.037 C 
ATOM      4  C   UNL     1      34.689 -17.709 -22.617  0.00  0.00    +0.039 C 
ATOM      5  C   UNL     1      33.847 -18.702 -22.114  0.00  0.00    +0.006 C 
ATOM      6  C   UNL     1      35.980 -17.569 -22.111  0.00  0.00    +0.006 C 
ENDROOT
BRANCH   4   8
ATOM      7  O   UNL     1      34.205 -17.198 -24.847  0.00  0.00    -0.287 OA
ATOM      8  C   UNL     1      34.218 -16.820 -23.666  0.00  0.00    +0.196 C 
BRANCH   8   9
ATOM      9  C   UNL     1      33.734 -15.434 -23.385  0.00  0.00    +0.039 C 
ATOM     10  C   UNL     1      32.831 -12.848 -22.859  0.00  0.00    +0.001 C 
ATOM     11  C   UNL     1      33.141 -14.684 -24.399  0.00  0.00    +0.003 C 
ATOM     12  C   UNL     1      33.877 -14.891 -22.107  0.00  0.00    +0.003 C 
ATOM     13  C   UNL     1      32.689 -13.390 -24.136  0.00  0.00    +0.000 C 
ATOM     14  C   UNL     1      33.426 -13.598 -21.845  0.00  0.00    +0.000 C 
BRANCH  10  16
ATOM     15  S   UNL     1      32.085  -8.975 -22.849  0.00  0.00    -0.086 S 
ATOM     16  C   UNL     1      32.365 -11.517 -22.590  0.00  0.00    +0.007 C 
ATOM     17  C   UNL     1      31.471 -11.110 -21.558  0.00  0.00    +0.007 C 
ATOM     18  C   UNL     1      32.776 -10.455 -23.366  0.00  0.00    +0.035 C 
ATOM     19  C   UNL     1      31.233  -9.753 -21.584  0.00  0.00    +0.035 C 
ENDBRANCH  10  16
ENDBRANCH   8   9
ENDBRANCH   4   8
BRANCH   1  20
ATOM     20  O   UNL     1      36.034 -20.252 -19.609  0.00  0.00    -0.478 OA
BRANCH  20  21
ATOM     21  C   UNL     1      35.051 -21.001 -18.913  0.00  0.00    +0.184 C 
BRANCH  21  23
ATOM     22  N   UNL     1      34.751 -22.189 -16.757  0.00  0.00    +0.388 N 
ATOM     23  C   UNL     1      35.721 -21.747 -17.770  0.00  0.00    -0.017 C 
ATOM     24  C   UNL     1      36.680 -20.876 -16.973  0.00  0.00    -0.020 C 
ATOM     25  C   UNL     1      36.751 -21.555 -15.614  0.00  0.00    -0.025 C 
ATOM     26  C   UNL     1      35.565 -22.508 -15.579  0.00  0.00    -0.082 C 
ATOM     27  H   UNL     1      34.246 -23.015 -17.080  0.00  0.00    -0.084 HD
ATOM     28  H   UNL     1      34.047 -21.478 -16.560  0.00  0.00    -0.084 HD
ENDBRANCH  21  23
ENDBRANCH  20  21
ENDBRANCH   1  20
TORSDOF 6
ENDMDL
MODEL 8
REMARK VINA RESULT:     -11.8      2.991      5.926
REMARK  Name = 44129624
REMARK  6 active torsions:
REMARK  status: ('A' for Active; 'I' for Inactive)
REMARK    1  A    between atoms: C_1  and  O_20
REMARK    2  A    between atoms: C_4  and  C_8
REMARK    3  A    between atoms: C_8  and  C_9
REMARK    4  A    between atoms: C_10  and  C_16
REMARK    5  A    between atoms: O_20  and  C_21
REMARK    6  A    between atoms: C_21  and  C_23
REMARK                            x       y       z     vdW  Elec       q    Type
REMARK                         _______ _______ _______ _____ _____    ______ ____
ROOT
ATOM      1  C   UNL     1      34.601 -16.142 -21.308  0.00  0.00    +0.138 C 
ATOM      2  C   UNL     1      34.025 -15.027 -20.701  0.00  0.00    +0.037 C 
ATOM      3  C   UNL     1      34.615 -16.251 -22.699  0.00  0.00    +0.037 C 
ATOM      4  C   UNL     1      33.477 -14.127 -22.875  0.00  0.00    +0.039 C 
ATOM      5  C   UNL     1      33.463 -14.020 -21.483  0.00  0.00    +0.006 C 
ATOM      6  C   UNL     1      34.053 -15.242 -23.482  0.00  0.00    +0.006 C 
ENDROOT
BRANCH   4   8
ATOM      7  O   UNL     1      32.645 -13.278 -24.888  0.00  0.00    -0.287 OA
ATOM      8  C   UNL     1      32.892 -13.075 -23.691  0.00  0.00    +0.196 C 
BRANCH   8   9
ATOM      9  C   UNL     1      32.567 -11.723 -23.143  0.00  0.00    +0.039 C 
ATOM     10  C   UNL     1      31.959  -9.200 -22.120  0.00  0.00    +0.001 C 
ATOM     11  C   UNL     1      31.560 -11.583 -22.188  0.00  0.00    +0.003 C 
ATOM     12  C   UNL     1      33.268 -10.602 -23.588  0.00  0.00    +0.003 C 
ATOM     13  C   UNL     1      31.257 -10.321 -21.676  0.00  0.00    +0.000 C 
ATOM     14  C   UNL     1      32.964  -9.341 -23.076  0.00  0.00    +0.000 C 
BRANCH  10  16
ATOM     15  S   UNL     1      30.754  -5.493 -21.521  0.00  0.00    -0.086 S 
ATOM     16  C   UNL     1      31.646  -7.902 -21.592  0.00  0.00    +0.007 C 
ATOM     17  C   UNL     1      31.911  -7.422 -20.277  0.00  0.00    +0.007 C 
ATOM     18  C   UNL     1      31.020  -6.955 -22.373  0.00  0.00    +0.035 C 
ATOM     19  C   UNL     1      31.477  -6.125 -20.103  0.00  0.00    +0.035 C 
ENDBRANCH  10  16
ENDBRANCH   8   9
ENDBRANCH   4   8
BRANCH   1  20
ATOM     20  O   UNL     1      35.154 -17.135 -20.538  0.00  0.00    -0.478 OA
BRANCH  20  21
ATOM     21  C   UNL     1      35.841 -18.170 -21.223  0.00  0.00    +0.184 C 
BRANCH  21  23
ATOM     22  N   UNL     1      33.790 -19.316 -20.426  0.00  0.00    +0.388 N 
ATOM     23  C   UNL     1      35.168 -19.497 -20.907  0.00  0.00    -0.017 C 
ATOM     24  C   UNL     1      35.838 -20.246 -19.765  0.00  0.00    -0.020 C 
ATOM     25  C   UNL     1      34.741 -21.151 -19.225  0.00  0.00    -0.025 C 
ATOM     26  C   UNL     1      33.445 -20.598 -19.802  0.00  0.00    -0.082 C 
ATOM     27  H   UNL     1      33.162 -19.114 -21.203  0.00  0.00    -0.084 HD
ATOM     28  H   UNL     1      33.708 -18.535 -19.776  0.00  0.00    -0.084 HD
ENDBRANCH  21  23
ENDBRANCH  20  21
ENDBRANCH   1  20
TORSDOF 6
ENDMDL
MODEL 9
REMARK VINA RESULT:     -11.7      4.426      9.889
REMARK  Name = 44129624
REMARK  6 active torsions:
REMARK  status: ('A' for Active; 'I' for Inactive)
REMARK    1  A    between atoms: C_1  and  O_20
REMARK    2  A    between atoms: C_4  and  C_8
REMARK    3  A    between atoms: C_8  and  C_9
REMARK    4  A    between atoms: C_10  and  C_16
REMARK    5  A    between atoms: O_20  and  C_21
REMARK    6  A    between atoms: C_21  and  C_23
REMARK                            x       y       z     vdW  Elec       q    Type
REMARK                         _______ _______ _______ _____ _____    ______ ____
ROOT
ATOM      1  C   UNL     1      35.178 -18.626 -20.960  0.00  0.00    +0.138 C 
ATOM      2  C   UNL     1      33.829 -18.968 -20.880  0.00  0.00    +0.037 C 
ATOM      3  C   UNL     1      36.137 -19.416 -20.325  0.00  0.00    +0.037 C 
ATOM      4  C   UNL     1      34.395 -20.889 -19.530  0.00  0.00    +0.039 C 
ATOM      5  C   UNL     1      33.437 -20.099 -20.165  0.00  0.00    +0.006 C 
ATOM      6  C   UNL     1      35.745 -20.548 -19.610  0.00  0.00    +0.006 C 
ENDROOT
BRANCH   4   8
ATOM      7  O   UNL     1      33.287 -22.939 -19.330  0.00  0.00    -0.287 OA
ATOM      8  C   UNL     1      33.987 -22.071 -18.787  0.00  0.00    +0.196 C 
BRANCH   8   9
ATOM      9  C   UNL     1      34.378 -22.297 -17.363  0.00  0.00    +0.039 C 
ATOM     10  C   UNL     1      35.108 -22.720 -14.704  0.00  0.00    +0.001 C 
ATOM     11  C   UNL     1      35.662 -21.966 -16.932  0.00  0.00    +0.003 C 
ATOM     12  C   UNL     1      33.459 -22.841 -16.465  0.00  0.00    +0.003 C 
ATOM     13  C   UNL     1      36.027 -22.177 -15.602  0.00  0.00    +0.000 C 
ATOM     14  C   UNL     1      33.824 -23.052 -15.136  0.00  0.00    +0.000 C 
BRANCH  10  16
ATOM     15  S   UNL     1      35.350 -23.795 -10.918  0.00  0.00    -0.086 S 
ATOM     16  C   UNL     1      35.485 -22.936 -13.336  0.00  0.00    +0.007 C 
ATOM     17  C   UNL     1      36.653 -22.450 -12.679  0.00  0.00    +0.007 C 
ATOM     18  C   UNL     1      34.690 -23.682 -12.494  0.00  0.00    +0.035 C 
ATOM     19  C   UNL     1      36.705 -22.845 -11.359  0.00  0.00    +0.035 C 
ENDBRANCH  10  16
ENDBRANCH   8   9
ENDBRANCH   4   8
BRANCH   1  20
ATOM     20  O   UNL     1      35.565 -17.512 -21.662  0.00  0.00    -0.478 OA
BRANCH  20  21
ATOM     21  C   UNL     1      34.682 -17.051 -22.671  0.00  0.00    +0.184 C 
BRANCH  21  23
ATOM     22  N   UNL     1      34.083 -15.048 -21.338  0.00  0.00    +0.388 N 
ATOM     23  C   UNL     1      34.623 -15.533 -22.616  0.00  0.00    -0.017 C 
ATOM     24  C   UNL     1      33.671 -14.937 -23.642  0.00  0.00    -0.020 C 
ATOM     25  C   UNL     1      33.298 -13.584 -23.056  0.00  0.00    -0.025 C 
ATOM     26  C   UNL     1      33.720 -13.650 -21.596  0.00  0.00    -0.082 C 
ATOM     27  H   UNL     1      34.788 -15.107 -20.604  0.00  0.00    -0.084 HD
ATOM     28  H   UNL     1      33.287 -15.601 -21.020  0.00  0.00    -0.084 HD
ENDBRANCH  21  23
ENDBRANCH  20  21
ENDBRANCH   1  20
TORSDOF 6
ENDMDL
