MODEL 1
REMARK VINA RESULT:     -10.4      0.000      0.000
REMARK  Name = 77846445
REMARK  5 active torsions:
REMARK  status: ('A' for Active; 'I' for Inactive)
REMARK    1  A    between atoms: N_2  and  N_20
REMARK    2  A    between atoms: C_3  and  C_9
REMARK    3  A    between atoms: N_7  and  O_14
REMARK    4  A    between atoms: O_14  and  S_15
REMARK    5  A    between atoms: C_21  and  C_24
REMARK                            x       y       z     vdW  Elec       q    Type
REMARK                         _______ _______ _______ _____ _____    ______ ____
ROOT
ATOM      1  O   UNL     1      33.327 -22.591 -14.246  0.00  0.00    -0.272 OA
ATOM      2  N   UNL     1      32.478 -24.595 -13.433  0.00  0.00    -0.233 N 
ATOM      3  C   UNL     1      33.446 -23.623 -13.591  0.00  0.00    +0.256 C 
ATOM      4  H   UNL     1      32.659 -25.395 -12.887  0.00  0.00    +0.173 HD
ENDROOT
BRANCH   3   9
ATOM      5  O   UNL     1      36.531 -26.098 -11.650  0.00  0.00    -0.250 OA
ATOM      6  N   UNL     1      35.321 -25.146 -13.509  0.00  0.00    -0.254 N 
ATOM      7  N   UNL     1      37.574 -25.142 -13.546  0.00  0.00    -0.126 N 
ATOM      8  C   UNL     1      37.098 -24.264 -14.604  0.00  0.00    +0.127 C 
ATOM      9  C   UNL     1      34.723 -23.970 -12.889  0.00  0.00    +0.155 C 
ATOM     10  C   UNL     1      35.775 -24.953 -14.886  0.00  0.00    +0.118 C 
ATOM     11  C   UNL     1      36.763 -22.840 -14.087  0.00  0.00    +0.026 C 
ATOM     12  C   UNL     1      35.745 -22.804 -12.908  0.00  0.00    +0.031 C 
ATOM     13  C   UNL     1      36.501 -25.609 -12.769  0.00  0.00    +0.332 C 
BRANCH   7  14
ATOM     14  O   UNL     1      38.840 -24.934 -13.019  0.00  0.00    -0.094 OA
BRANCH  14  15
ATOM     15  S   UNL     1      40.025 -25.132 -14.140  0.00  0.00    +0.258 S 
ATOM     16  O   UNL     1      41.003 -26.249 -13.468  0.00  0.00    -0.114 OA
ATOM     17  O   UNL     1      40.774 -23.892 -14.232  0.00  0.00    -0.020 OA
ATOM     18  O   UNL     1      39.431 -25.725 -15.324  0.00  0.00    -0.114 OA
ENDBRANCH  14  15
ENDBRANCH   7  14
ENDBRANCH   3   9
BRANCH   2  20
ATOM     19  O   UNL     1      30.387 -23.171 -12.299  0.00  0.00    -0.274 OA
ATOM     20  N   UNL     1      31.262 -24.430 -14.046  0.00  0.00    -0.234 N 
ATOM     21  C   UNL     1      30.281 -23.703 -13.402  0.00  0.00    +0.235 C 
ATOM     22  H   UNL     1      31.092 -24.823 -14.932  0.00  0.00    +0.173 HD
BRANCH  21  24
ATOM     23  N   UNL     1      27.632 -21.960 -15.459  0.00  0.00    +0.384 N 
ATOM     24  C   UNL     1      29.030 -23.590 -14.216  0.00  0.00    +0.057 C 
ATOM     25  C   UNL     1      29.134 -24.474 -15.460  0.00  0.00    +0.005 C 
ATOM     26  C   UNL     1      28.807 -22.124 -14.600  0.00  0.00    -0.072 C 
ATOM     27  C   UNL     1      27.945 -24.236 -16.387  0.00  0.00    -0.023 C 
ATOM     28  C   UNL     1      27.765 -22.749 -16.685  0.00  0.00    -0.082 C 
ATOM     29  H   UNL     1      27.532 -20.975 -15.704  0.00  0.00    -0.085 HD
ATOM     30  H   UNL     1      26.809 -22.286 -14.950  0.00  0.00    -0.085 HD
ENDBRANCH  21  24
ENDBRANCH   2  20
TORSDOF 5
ENDMDL
MODEL 2
REMARK VINA RESULT:     -10.0      5.289      6.642
REMARK  Name = 77846445
REMARK  5 active torsions:
REMARK  status: ('A' for Active; 'I' for Inactive)
REMARK    1  A    between atoms: N_2  and  N_20
REMARK    2  A    between atoms: C_3  and  C_9
REMARK    3  A    between atoms: N_7  and  O_14
REMARK    4  A    between atoms: O_14  and  S_15
REMARK    5  A    between atoms: C_21  and  C_24
REMARK                            x       y       z     vdW  Elec       q    Type
REMARK                         _______ _______ _______ _____ _____    ______ ____
ROOT
ATOM      1  O   UNL     1      32.094 -22.048 -17.815  0.00  0.00    -0.272 OA
ATOM      2  N   UNL     1      34.294 -22.625 -18.293  0.00  0.00    -0.233 N 
ATOM      3  C   UNL     1      33.120 -22.678 -17.569  0.00  0.00    +0.256 C 
ATOM      4  H   UNL     1      35.071 -23.168 -18.025  0.00  0.00    +0.173 HD
ENDROOT
BRANCH   3   9
ATOM      5  O   UNL     1      34.836 -25.633 -14.788  0.00  0.00    -0.250 OA
ATOM      6  N   UNL     1      34.532 -23.446 -15.764  0.00  0.00    -0.254 N 
ATOM      7  N   UNL     1      34.536 -23.658 -13.521  0.00  0.00    -0.126 N 
ATOM      8  C   UNL     1      34.044 -22.329 -13.855  0.00  0.00    +0.127 C 
ATOM      9  C   UNL     1      33.221 -23.590 -16.384  0.00  0.00    +0.155 C 
ATOM     10  C   UNL     1      34.790 -22.138 -15.163  0.00  0.00    +0.118 C 
ATOM     11  C   UNL     1      32.531 -22.326 -14.194  0.00  0.00    +0.026 C 
ATOM     12  C   UNL     1      32.120 -23.313 -15.328  0.00  0.00    +0.031 C 
ATOM     13  C   UNL     1      34.731 -24.420 -14.684  0.00  0.00    +0.332 C 
BRANCH   7  14
ATOM     14  O   UNL     1      34.168 -24.226 -12.311  0.00  0.00    -0.094 OA
BRANCH  14  15
ATOM     15  S   UNL     1      35.401 -24.242 -11.225  0.00  0.00    +0.258 S 
ATOM     16  O   UNL     1      36.313 -25.506 -11.702  0.00  0.00    -0.114 OA
ATOM     17  O   UNL     1      34.853 -24.563  -9.921  0.00  0.00    -0.020 OA
ATOM     18  O   UNL     1      36.187 -23.037 -11.419  0.00  0.00    -0.114 OA
ENDBRANCH  14  15
ENDBRANCH   7  14
ENDBRANCH   3   9
BRANCH   2  20
ATOM     19  O   UNL     1      36.116 -20.549 -18.529  0.00  0.00    -0.274 OA
ATOM     20  N   UNL     1      34.362 -21.806 -19.391  0.00  0.00    -0.234 N 
ATOM     21  C   UNL     1      35.304 -20.798 -19.417  0.00  0.00    +0.235 C 
ATOM     22  H   UNL     1      33.748 -21.935 -20.150  0.00  0.00    +0.173 HD
BRANCH  21  24
ATOM     23  N   UNL     1      33.776 -18.642 -22.121  0.00  0.00    +0.384 N 
ATOM     24  C   UNL     1      35.269 -20.018 -20.695  0.00  0.00    +0.057 C 
ATOM     25  C   UNL     1      36.292 -18.882 -20.642  0.00  0.00    +0.005 C 
ATOM     26  C   UNL     1      33.855 -19.475 -20.917  0.00  0.00    -0.072 C 
ATOM     27  C   UNL     1      36.148 -17.974 -21.860  0.00  0.00    -0.023 C 
ATOM     28  C   UNL     1      34.703 -17.512 -22.037  0.00  0.00    -0.082 C 
ATOM     29  H   UNL     1      32.825 -18.288 -22.220  0.00  0.00    -0.085 HD
ATOM     30  H   UNL     1      34.030 -19.212 -22.928  0.00  0.00    -0.085 HD
ENDBRANCH  21  24
ENDBRANCH   2  20
TORSDOF 5
ENDMDL
MODEL 3
REMARK VINA RESULT:      -9.8     16.746     19.180
REMARK  Name = 77846445
REMARK  5 active torsions:
REMARK  status: ('A' for Active; 'I' for Inactive)
REMARK    1  A    between atoms: N_2  and  N_20
REMARK    2  A    between atoms: C_3  and  C_9
REMARK    3  A    between atoms: N_7  and  O_14
REMARK    4  A    between atoms: O_14  and  S_15
REMARK    5  A    between atoms: C_21  and  C_24
REMARK                            x       y       z     vdW  Elec       q    Type
REMARK                         _______ _______ _______ _____ _____    ______ ____
ROOT
ATOM      1  O   UNL     1      31.308 -10.112 -21.763  0.00  0.00    -0.272 OA
ATOM      2  N   UNL     1      32.870 -10.685 -23.386  0.00  0.00    -0.233 N 
ATOM      3  C   UNL     1      32.000  -9.831 -22.739  0.00  0.00    +0.256 C 
ATOM      4  H   UNL     1      33.388 -10.375 -24.164  0.00  0.00    +0.173 HD
ENDROOT
BRANCH   3   9
ATOM      5  O   UNL     1      30.275  -6.203 -24.550  0.00  0.00    -0.250 OA
ATOM      6  N   UNL     1      30.911  -7.673 -22.743  0.00  0.00    -0.254 N 
ATOM      7  N   UNL     1      31.391  -5.476 -22.595  0.00  0.00    -0.126 N 
ATOM      8  C   UNL     1      32.127  -6.176 -21.553  0.00  0.00    +0.127 C 
ATOM      9  C   UNL     1      31.946  -8.478 -23.380  0.00  0.00    +0.155 C 
ATOM     10  C   UNL     1      31.168  -7.334 -21.344  0.00  0.00    +0.118 C 
ATOM     11  C   UNL     1      33.457  -6.782 -22.072  0.00  0.00    +0.026 C 
ATOM     12  C   UNL     1      33.301  -7.729 -23.300  0.00  0.00    +0.031 C 
ATOM     13  C   UNL     1      30.724  -6.388 -23.429  0.00  0.00    +0.332 C 
BRANCH   7  14
ATOM     14  O   UNL     1      31.873  -4.261 -23.057  0.00  0.00    -0.094 OA
BRANCH  14  15
ATOM     15  S   UNL     1      30.774  -3.050 -22.897  0.00  0.00    +0.258 S 
ATOM     16  O   UNL     1      30.097  -2.952 -24.377  0.00  0.00    -0.114 OA
ATOM     17  O   UNL     1      31.494  -1.812 -22.662  0.00  0.00    -0.020 OA
ATOM     18  O   UNL     1      29.746  -3.493 -21.974  0.00  0.00    -0.114 OA
ENDBRANCH  14  15
ENDBRANCH   7  14
ENDBRANCH   3   9
BRANCH   2  20
ATOM     19  O   UNL     1      32.766 -12.904 -25.045  0.00  0.00    -0.274 OA
ATOM     20  N   UNL     1      33.001 -11.972 -22.929  0.00  0.00    -0.234 N 
ATOM     21  C   UNL     1      32.935 -13.013 -23.833  0.00  0.00    +0.235 C 
ATOM     22  H   UNL     1      33.141 -12.151 -21.971  0.00  0.00    +0.173 HD
BRANCH  21  24
ATOM     23  N   UNL     1      34.208 -16.557 -23.502  0.00  0.00    +0.384 N 
ATOM     24  C   UNL     1      33.129 -14.347 -23.180  0.00  0.00    +0.057 C 
ATOM     25  C   UNL     1      33.845 -14.173 -21.840  0.00  0.00    +0.005 C 
ATOM     26  C   UNL     1      33.927 -15.257 -24.117  0.00  0.00    -0.072 C 
ATOM     27  C   UNL     1      34.206 -15.532 -21.246  0.00  0.00    -0.023 C 
ATOM     28  C   UNL     1      34.960 -16.395 -22.256  0.00  0.00    -0.082 C 
ATOM     29  H   UNL     1      34.755 -17.122 -24.151  0.00  0.00    -0.085 HD
ATOM     30  H   UNL     1      33.322 -17.015 -23.289  0.00  0.00    -0.085 HD
ENDBRANCH  21  24
ENDBRANCH   2  20
TORSDOF 5
ENDMDL
MODEL 4
REMARK VINA RESULT:      -9.5     17.155     19.603
REMARK  Name = 77846445
REMARK  5 active torsions:
REMARK  status: ('A' for Active; 'I' for Inactive)
REMARK    1  A    between atoms: N_2  and  N_20
REMARK    2  A    between atoms: C_3  and  C_9
REMARK    3  A    between atoms: N_7  and  O_14
REMARK    4  A    between atoms: O_14  and  S_15
REMARK    5  A    between atoms: C_21  and  C_24
REMARK                            x       y       z     vdW  Elec       q    Type
REMARK                         _______ _______ _______ _____ _____    ______ ____
ROOT
ATOM      1  O   UNL     1      33.793  -8.758 -23.296  0.00  0.00    -0.272 OA
ATOM      2  N   UNL     1      32.116 -10.286 -22.792  0.00  0.00    -0.233 N 
ATOM      3  C   UNL     1      32.670  -9.024 -22.876  0.00  0.00    +0.256 C 
ATOM      4  H   UNL     1      31.204 -10.409 -22.441  0.00  0.00    +0.173 HD
ENDROOT
BRANCH   3   9
ATOM      5  O   UNL     1      31.313  -5.539 -20.545  0.00  0.00    -0.250 OA
ATOM      6  N   UNL     1      32.435  -6.675 -22.356  0.00  0.00    -0.254 N 
ATOM      7  N   UNL     1      31.113  -4.910 -22.817  0.00  0.00    -0.126 N 
ATOM      8  C   UNL     1      31.421  -5.589 -24.067  0.00  0.00    +0.127 C 
ATOM      9  C   UNL     1      31.750  -7.961 -22.355  0.00  0.00    +0.155 C 
ATOM     10  C   UNL     1      32.775  -6.158 -23.682  0.00  0.00    +0.118 C 
ATOM     11  C   UNL     1      30.484  -6.796 -24.332  0.00  0.00    +0.026 C 
ATOM     12  C   UNL     1      30.445  -7.849 -23.184  0.00  0.00    +0.031 C 
ATOM     13  C   UNL     1      31.624  -5.628 -21.723  0.00  0.00    +0.332 C 
BRANCH   7  14
ATOM     14  O   UNL     1      29.956  -4.149 -22.733  0.00  0.00    -0.094 OA
BRANCH  14  15
ATOM     15  S   UNL     1      30.234  -2.554 -23.011  0.00  0.00    +0.258 S 
ATOM     16  O   UNL     1      29.713  -2.337 -24.541  0.00  0.00    -0.114 OA
ATOM     17  O   UNL     1      31.669  -2.335 -23.001  0.00  0.00    -0.020 OA
ATOM     18  O   UNL     1      29.364  -1.786 -22.140  0.00  0.00    -0.114 OA
ENDBRANCH  14  15
ENDBRANCH   7  14
ENDBRANCH   3   9
BRANCH   2  20
ATOM     19  O   UNL     1      32.365 -12.612 -21.305  0.00  0.00    -0.274 OA
ATOM     20  N   UNL     1      32.855 -11.365 -23.204  0.00  0.00    -0.234 N 
ATOM     21  C   UNL     1      32.920 -12.481 -22.394  0.00  0.00    +0.235 C 
ATOM     22  H   UNL     1      33.332 -11.345 -24.064  0.00  0.00    +0.173 HD
BRANCH  21  24
ATOM     23  N   UNL     1      34.762 -15.780 -22.494  0.00  0.00    +0.384 N 
ATOM     24  C   UNL     1      33.737 -13.579 -23.000  0.00  0.00    +0.057 C 
ATOM     25  C   UNL     1      32.997 -14.180 -24.197  0.00  0.00    +0.005 C 
ATOM     26  C   UNL     1      34.022 -14.644 -21.938  0.00  0.00    -0.072 C 
ATOM     27  C   UNL     1      33.733 -15.412 -24.717  0.00  0.00    -0.023 C 
ATOM     28  C   UNL     1      34.019 -16.403 -23.591  0.00  0.00    -0.082 C 
ATOM     29  H   UNL     1      34.914 -16.471 -21.758  0.00  0.00    -0.085 HD
ATOM     30  H   UNL     1      35.654 -15.442 -22.855  0.00  0.00    -0.085 HD
ENDBRANCH  21  24
ENDBRANCH   2  20
TORSDOF 5
ENDMDL
MODEL 5
REMARK VINA RESULT:      -9.4      8.346      9.925
REMARK  Name = 77846445
REMARK  5 active torsions:
REMARK  status: ('A' for Active; 'I' for Inactive)
REMARK    1  A    between atoms: N_2  and  N_20
REMARK    2  A    between atoms: C_3  and  C_9
REMARK    3  A    between atoms: N_7  and  O_14
REMARK    4  A    between atoms: O_14  and  S_15
REMARK    5  A    between atoms: C_21  and  C_24
REMARK                            x       y       z     vdW  Elec       q    Type
REMARK                         _______ _______ _______ _____ _____    ______ ____
ROOT
ATOM      1  O   UNL     1      35.942 -20.478 -18.766  0.00  0.00    -0.272 OA
ATOM      2  N   UNL     1      34.204 -21.668 -19.748  0.00  0.00    -0.233 N 
ATOM      3  C   UNL     1      35.244 -20.760 -19.737  0.00  0.00    +0.256 C 
ATOM      4  H   UNL     1      33.695 -21.834 -20.575  0.00  0.00    +0.173 HD
ENDROOT
BRANCH   3   9
ATOM      5  O   UNL     1      34.544 -19.746 -23.967  0.00  0.00    -0.250 OA
ATOM      6  N   UNL     1      34.146 -19.660 -21.588  0.00  0.00    -0.254 N 
ATOM      7  N   UNL     1      34.210 -17.738 -22.761  0.00  0.00    -0.126 N 
ATOM      8  C   UNL     1      34.260 -17.410 -21.344  0.00  0.00    +0.127 C 
ATOM      9  C   UNL     1      35.435 -20.095 -21.066  0.00  0.00    +0.155 C 
ATOM     10  C   UNL     1      33.490 -18.607 -20.813  0.00  0.00    +0.118 C 
ATOM     11  C   UNL     1      35.695 -17.504 -20.765  0.00  0.00    +0.026 C 
ATOM     12  C   UNL     1      36.394 -18.879 -20.988  0.00  0.00    +0.031 C 
ATOM     13  C   UNL     1      34.263 -19.129 -22.951  0.00  0.00    +0.332 C 
BRANCH   7  14
ATOM     14  O   UNL     1      34.739 -16.841 -23.677  0.00  0.00    -0.094 OA
BRANCH  14  15
ATOM     15  S   UNL     1      33.584 -15.901 -24.372  0.00  0.00    +0.258 S 
ATOM     16  O   UNL     1      34.398 -15.089 -25.528  0.00  0.00    -0.114 OA
ATOM     17  O   UNL     1      33.135 -14.933 -23.389  0.00  0.00    -0.020 OA
ATOM     18  O   UNL     1      32.633 -16.773 -25.037  0.00  0.00    -0.114 OA
ENDBRANCH  14  15
ENDBRANCH   7  14
ENDBRANCH   3   9
BRANCH   2  20
ATOM     19  O   UNL     1      31.765 -21.404 -18.458  0.00  0.00    -0.274 OA
ATOM     20  N   UNL     1      33.890 -22.334 -18.591  0.00  0.00    -0.234 N 
ATOM     21  C   UNL     1      32.648 -22.138 -18.022  0.00  0.00    +0.235 C 
ATOM     22  H   UNL     1      34.540 -22.944 -18.173  0.00  0.00    +0.173 HD
BRANCH  21  24
ATOM     23  N   UNL     1      33.420 -23.409 -14.546  0.00  0.00    +0.384 N 
ATOM     24  C   UNL     1      32.452 -22.960 -16.786  0.00  0.00    +0.057 C 
ATOM     25  C   UNL     1      31.097 -22.638 -16.154  0.00  0.00    +0.005 C 
ATOM     26  C   UNL     1      33.596 -22.682 -15.806  0.00  0.00    -0.072 C 
ATOM     27  C   UNL     1      30.956 -23.335 -14.804  0.00  0.00    -0.023 C 
ATOM     28  C   UNL     1      32.155 -23.044 -13.903  0.00  0.00    -0.082 C 
ATOM     29  H   UNL     1      34.191 -23.181 -13.919  0.00  0.00    -0.085 HD
ATOM     30  H   UNL     1      33.406 -24.409 -14.746  0.00  0.00    -0.085 HD
ENDBRANCH  21  24
ENDBRANCH   2  20
TORSDOF 5
ENDMDL
MODEL 6
REMARK VINA RESULT:      -9.2     15.780     18.197
REMARK  Name = 77846445
REMARK  5 active torsions:
REMARK  status: ('A' for Active; 'I' for Inactive)
REMARK    1  A    between atoms: N_2  and  N_20
REMARK    2  A    between atoms: C_3  and  C_9
REMARK    3  A    between atoms: N_7  and  O_14
REMARK    4  A    between atoms: O_14  and  S_15
REMARK    5  A    between atoms: C_21  and  C_24
REMARK                            x       y       z     vdW  Elec       q    Type
REMARK                         _______ _______ _______ _____ _____    ______ ____
ROOT
ATOM      1  O   UNL     1      31.773 -11.454 -21.538  0.00  0.00    -0.272 OA
ATOM      2  N   UNL     1      33.415 -11.488 -23.182  0.00  0.00    -0.233 N 
ATOM      3  C   UNL     1      32.313 -10.972 -22.530  0.00  0.00    +0.256 C 
ATOM      4  H   UNL     1      33.784 -11.035 -23.975  0.00  0.00    +0.173 HD
ENDROOT
BRANCH   3   9
ATOM      5  O   UNL     1      29.470  -7.796 -23.646  0.00  0.00    -0.250 OA
ATOM      6  N   UNL     1      31.051  -8.935 -22.220  0.00  0.00    -0.254 N 
ATOM      7  N   UNL     1      31.235  -6.707 -22.506  0.00  0.00    -0.126 N 
ATOM      8  C   UNL     1      32.451  -7.188 -21.867  0.00  0.00    +0.127 C 
ATOM      9  C   UNL     1      31.788  -9.733 -23.190  0.00  0.00    +0.155 C 
ATOM     10  C   UNL     1      31.860  -8.380 -21.135  0.00  0.00    +0.118 C 
ATOM     11  C   UNL     1      33.474  -7.750 -22.889  0.00  0.00    +0.026 C 
ATOM     12  C   UNL     1      32.915  -8.871 -23.814  0.00  0.00    +0.031 C 
ATOM     13  C   UNL     1      30.397  -7.781 -22.850  0.00  0.00    +0.332 C 
BRANCH   7  14
ATOM     14  O   UNL     1      31.282  -5.534 -23.244  0.00  0.00    -0.094 OA
BRANCH  14  15
ATOM     15  S   UNL     1      30.627  -4.260 -22.438  0.00  0.00    +0.258 S 
ATOM     16  O   UNL     1      30.199  -3.235 -23.631  0.00  0.00    -0.114 OA
ATOM     17  O   UNL     1      31.678  -3.622 -21.667  0.00  0.00    -0.020 OA
ATOM     18  O   UNL     1      29.409  -4.714 -21.793  0.00  0.00    -0.114 OA
ENDBRANCH  14  15
ENDBRANCH   7  14
ENDBRANCH   3   9
BRANCH   2  20
ATOM     19  O   UNL     1      33.012 -13.972 -24.347  0.00  0.00    -0.274 OA
ATOM     20  N   UNL     1      33.987 -12.642 -22.709  0.00  0.00    -0.234 N 
ATOM     21  C   UNL     1      33.727 -13.833 -23.357  0.00  0.00    +0.235 C 
ATOM     22  H   UNL     1      34.575 -12.621 -21.920  0.00  0.00    +0.173 HD
BRANCH  21  24
ATOM     23  N   UNL     1      34.575 -16.354 -20.672  0.00  0.00    +0.384 N 
ATOM     24  C   UNL     1      34.451 -14.988 -22.738  0.00  0.00    +0.057 C 
ATOM     25  C   UNL     1      34.239 -16.248 -23.579  0.00  0.00    +0.005 C 
ATOM     26  C   UNL     1      33.950 -15.191 -21.306  0.00  0.00    -0.072 C 
ATOM     27  C   UNL     1      34.822 -17.468 -22.871  0.00  0.00    -0.023 C 
ATOM     28  C   UNL     1      34.307 -17.574 -21.437  0.00  0.00    -0.082 C 
ATOM     29  H   UNL     1      34.200 -16.462 -19.729  0.00  0.00    -0.085 HD
ATOM     30  H   UNL     1      35.583 -16.205 -20.639  0.00  0.00    -0.085 HD
ENDBRANCH  21  24
ENDBRANCH   2  20
TORSDOF 5
ENDMDL
MODEL 7
REMARK VINA RESULT:      -9.0      8.336     10.662
REMARK  Name = 77846445
REMARK  5 active torsions:
REMARK  status: ('A' for Active; 'I' for Inactive)
REMARK    1  A    between atoms: N_2  and  N_20
REMARK    2  A    between atoms: C_3  and  C_9
REMARK    3  A    between atoms: N_7  and  O_14
REMARK    4  A    between atoms: O_14  and  S_15
REMARK    5  A    between atoms: C_21  and  C_24
REMARK                            x       y       z     vdW  Elec       q    Type
REMARK                         _______ _______ _______ _____ _____    ______ ____
ROOT
ATOM      1  O   UNL     1      33.786 -21.166 -19.500  0.00  0.00    -0.272 OA
ATOM      2  N   UNL     1      36.075 -20.942 -19.170  0.00  0.00    -0.233 N 
ATOM      3  C   UNL     1      34.895 -20.792 -19.871  0.00  0.00    +0.256 C 
ATOM      4  H   UNL     1      36.924 -20.611 -19.544  0.00  0.00    +0.173 HD
ENDROOT
BRANCH   3   9
ATOM      5  O   UNL     1      34.060 -19.529 -24.009  0.00  0.00    -0.250 OA
ATOM      6  N   UNL     1      33.882 -19.444 -21.602  0.00  0.00    -0.254 N 
ATOM      7  N   UNL     1      34.220 -17.534 -22.748  0.00  0.00    -0.126 N 
ATOM      8  C   UNL     1      34.449 -17.267 -21.336  0.00  0.00    +0.127 C 
ATOM      9  C   UNL     1      35.102 -20.134 -21.201  0.00  0.00    +0.155 C 
ATOM     10  C   UNL     1      33.509 -18.310 -20.758  0.00  0.00    +0.118 C 
ATOM     11  C   UNL     1      35.882 -17.652 -20.884  0.00  0.00    +0.026 C 
ATOM     12  C   UNL     1      36.280 -19.128 -21.188  0.00  0.00    +0.031 C 
ATOM     13  C   UNL     1      33.988 -18.902 -22.962  0.00  0.00    +0.332 C 
BRANCH   7  14
ATOM     14  O   UNL     1      34.836 -16.726 -23.692  0.00  0.00    -0.094 OA
BRANCH  14  15
ATOM     15  S   UNL     1      33.785 -15.682 -24.404  0.00  0.00    +0.258 S 
ATOM     16  O   UNL     1      32.638 -16.660 -25.024  0.00  0.00    -0.114 OA
ATOM     17  O   UNL     1      34.464 -15.043 -25.516  0.00  0.00    -0.020 OA
ATOM     18  O   UNL     1      33.165 -14.886 -23.361  0.00  0.00    -0.114 OA
ENDBRANCH  14  15
ENDBRANCH   7  14
ENDBRANCH   3   9
BRANCH   2  20
ATOM     19  O   UNL     1      37.227 -19.852 -16.896  0.00  0.00    -0.274 OA
ATOM     20  N   UNL     1      36.047 -21.558 -17.944  0.00  0.00    -0.234 N 
ATOM     21  C   UNL     1      36.649 -20.936 -16.869  0.00  0.00    +0.235 C 
ATOM     22  H   UNL     1      35.603 -22.429 -17.833  0.00  0.00    +0.173 HD
BRANCH  21  24
ATOM     23  N   UNL     1      34.948 -23.226 -14.388  0.00  0.00    +0.384 N 
ATOM     24  C   UNL     1      36.502 -21.721 -15.602  0.00  0.00    +0.057 C 
ATOM     25  C   UNL     1      37.616 -22.764 -15.501  0.00  0.00    +0.005 C 
ATOM     26  C   UNL     1      35.123 -22.386 -15.576  0.00  0.00    -0.072 C 
ATOM     27  C   UNL     1      37.381 -23.685 -14.308  0.00  0.00    -0.023 C 
ATOM     28  C   UNL     1      35.971 -24.272 -14.332  0.00  0.00    -0.082 C 
ATOM     29  H   UNL     1      34.026 -23.661 -14.421  0.00  0.00    -0.085 HD
ATOM     30  H   UNL     1      35.036 -22.639 -13.558  0.00  0.00    -0.085 HD
ENDBRANCH  21  24
ENDBRANCH   2  20
TORSDOF 5
ENDMDL
MODEL 8
REMARK VINA RESULT:      -9.0     17.030     19.297
REMARK  Name = 77846445
REMARK  5 active torsions:
REMARK  status: ('A' for Active; 'I' for Inactive)
REMARK    1  A    between atoms: N_2  and  N_20
REMARK    2  A    between atoms: C_3  and  C_9
REMARK    3  A    between atoms: N_7  and  O_14
REMARK    4  A    between atoms: O_14  and  S_15
REMARK    5  A    between atoms: C_21  and  C_24
REMARK                            x       y       z     vdW  Elec       q    Type
REMARK                         _______ _______ _______ _____ _____    ______ ____
ROOT
ATOM      1  O   UNL     1      31.638  -9.280 -20.127  0.00  0.00    -0.272 OA
ATOM      2  N   UNL     1      31.487  -9.787 -22.390  0.00  0.00    -0.233 N 
ATOM      3  C   UNL     1      31.477  -8.943 -21.297  0.00  0.00    +0.256 C 
ATOM      4  H   UNL     1      31.349  -9.431 -23.298  0.00  0.00    +0.173 HD
ENDROOT
BRANCH   3   9
ATOM      5  O   UNL     1      31.783  -4.548 -21.261  0.00  0.00    -0.250 OA
ATOM      6  N   UNL     1      32.468  -6.798 -21.805  0.00  0.00    -0.254 N 
ATOM      7  N   UNL     1      32.488  -5.223 -23.416  0.00  0.00    -0.126 N 
ATOM      8  C   UNL     1      32.645  -6.525 -24.047  0.00  0.00    +0.127 C 
ATOM      9  C   UNL     1      31.208  -7.520 -21.678  0.00  0.00    +0.155 C 
ATOM     10  C   UNL     1      33.328  -7.247 -22.900  0.00  0.00    +0.118 C 
ATOM     11  C   UNL     1      31.287  -7.237 -24.283  0.00  0.00    +0.026 C 
ATOM     12  C   UNL     1      30.413  -7.401 -23.003  0.00  0.00    +0.031 C 
ATOM     13  C   UNL     1      32.252  -5.365 -22.039  0.00  0.00    +0.332 C 
BRANCH   7  14
ATOM     14  O   UNL     1      31.962  -4.176 -24.158  0.00  0.00    -0.094 OA
BRANCH  14  15
ATOM     15  S   UNL     1      32.929  -3.752 -25.416  0.00  0.00    +0.258 S 
ATOM     16  O   UNL     1      32.818  -2.125 -25.450  0.00  0.00    -0.114 OA
ATOM     17  O   UNL     1      32.332  -4.258 -26.638  0.00  0.00    -0.020 OA
ATOM     18  O   UNL     1      34.297  -4.089 -25.067  0.00  0.00    -0.114 OA
ENDBRANCH  14  15
ENDBRANCH   7  14
ENDBRANCH   3   9
BRANCH   2  20
ATOM     19  O   UNL     1      33.442 -11.237 -23.715  0.00  0.00    -0.274 OA
ATOM     20  N   UNL     1      31.691 -11.129 -22.192  0.00  0.00    -0.234 N 
ATOM     21  C   UNL     1      32.690 -11.766 -22.900  0.00  0.00    +0.235 C 
ATOM     22  H   UNL     1      31.133 -11.631 -21.555  0.00  0.00    +0.173 HD
BRANCH  21  24
ATOM     23  N   UNL     1      33.568 -15.404 -23.430  0.00  0.00    +0.384 N 
ATOM     24  C   UNL     1      32.804 -13.216 -22.546  0.00  0.00    +0.057 C 
ATOM     25  C   UNL     1      33.694 -13.385 -21.313  0.00  0.00    +0.005 C 
ATOM     26  C   UNL     1      33.369 -13.986 -23.742  0.00  0.00    -0.072 C 
ATOM     27  C   UNL     1      33.961 -14.863 -21.044  0.00  0.00    -0.023 C 
ATOM     28  C   UNL     1      34.480 -15.568 -22.296  0.00  0.00    -0.082 C 
ATOM     29  H   UNL     1      33.961 -15.873 -24.246  0.00  0.00    -0.085 HD
ATOM     30  H   UNL     1      32.666 -15.813 -23.184  0.00  0.00    -0.085 HD
ENDBRANCH  21  24
ENDBRANCH   2  20
TORSDOF 5
ENDMDL
MODEL 9
REMARK VINA RESULT:      -8.9      5.662      6.659
REMARK  Name = 77846445
REMARK  5 active torsions:
REMARK  status: ('A' for Active; 'I' for Inactive)
REMARK    1  A    between atoms: N_2  and  N_20
REMARK    2  A    between atoms: C_3  and  C_9
REMARK    3  A    between atoms: N_7  and  O_14
REMARK    4  A    between atoms: O_14  and  S_15
REMARK    5  A    between atoms: C_21  and  C_24
REMARK                            x       y       z     vdW  Elec       q    Type
REMARK                         _______ _______ _______ _____ _____    ______ ____
ROOT
ATOM      1  O   UNL     1      36.739 -20.674 -17.067  0.00  0.00    -0.272 OA
ATOM      2  N   UNL     1      35.116 -21.617 -18.436  0.00  0.00    -0.233 N 
ATOM      3  C   UNL     1      35.951 -21.576 -17.338  0.00  0.00    +0.256 C 
ATOM      4  H   UNL     1      34.512 -22.383 -18.577  0.00  0.00    +0.173 HD
ENDROOT
BRANCH   3   9
ATOM      5  O   UNL     1      37.191 -25.080 -14.972  0.00  0.00    -0.250 OA
ATOM      6  N   UNL     1      36.794 -22.736 -15.393  0.00  0.00    -0.254 N 
ATOM      7  N   UNL     1      36.083 -23.642 -13.456  0.00  0.00    -0.126 N 
ATOM      8  C   UNL     1      35.472 -22.328 -13.599  0.00  0.00    +0.127 C 
ATOM      9  C   UNL     1      35.829 -22.800 -16.482  0.00  0.00    +0.155 C 
ATOM     10  C   UNL     1      36.561 -21.666 -14.424  0.00  0.00    +0.118 C 
ATOM     11  C   UNL     1      34.196 -22.361 -14.480  0.00  0.00    +0.026 C 
ATOM     12  C   UNL     1      34.405 -22.975 -15.897  0.00  0.00    +0.031 C 
ATOM     13  C   UNL     1      36.811 -23.977 -14.609  0.00  0.00    +0.332 C 
BRANCH   7  14
ATOM     14  O   UNL     1      35.452 -24.594 -12.670  0.00  0.00    -0.094 OA
BRANCH  14  15
ATOM     15  S   UNL     1      36.238 -24.857 -11.252  0.00  0.00    +0.258 S 
ATOM     16  O   UNL     1      35.047 -24.797 -10.139  0.00  0.00    -0.114 OA
ATOM     17  O   UNL     1      37.123 -23.733 -11.008  0.00  0.00    -0.020 OA
ATOM     18  O   UNL     1      36.754 -26.214 -11.267  0.00  0.00    -0.114 OA
ENDBRANCH  14  15
ENDBRANCH   7  14
ENDBRANCH   3   9
BRANCH   2  20
ATOM     19  O   UNL     1      32.850 -20.660 -19.715  0.00  0.00    -0.274 OA
ATOM     20  N   UNL     1      35.140 -20.576 -19.329  0.00  0.00    -0.234 N 
ATOM     21  C   UNL     1      33.958 -20.170 -19.916  0.00  0.00    +0.235 C 
ATOM     22  H   UNL     1      35.987 -20.125 -19.548  0.00  0.00    +0.173 HD
BRANCH  21  24
ATOM     23  N   UNL     1      35.899 -17.586 -21.877  0.00  0.00    +0.384 N 
ATOM     24  C   UNL     1      34.151 -19.006 -20.838  0.00  0.00    +0.057 C 
ATOM     25  C   UNL     1      33.571 -19.329 -22.215  0.00  0.00    +0.005 C 
ATOM     26  C   UNL     1      35.643 -18.676 -20.932  0.00  0.00    -0.072 C 
ATOM     27  C   UNL     1      33.913 -18.226 -23.213  0.00  0.00    -0.023 C 
ATOM     28  C   UNL     1      35.411 -17.927 -23.215  0.00  0.00    -0.082 C 
ATOM     29  H   UNL     1      36.904 -17.412 -21.922  0.00  0.00    -0.085 HD
ATOM     30  H   UNL     1      35.408 -16.752 -21.553  0.00  0.00    -0.085 HD
ENDBRANCH  21  24
ENDBRANCH   2  20
TORSDOF 5
ENDMDL
