MODEL 1
REMARK VINA RESULT:     -13.4      0.000      0.000
REMARK  Name = 124173720
REMARK  4 active torsions:
REMARK  status: ('A' for Active; 'I' for Inactive)
REMARK    1  A    between atoms: C_13  and  N_24
REMARK    2  A    between atoms: C_18  and  C_23
REMARK    3  A    between atoms: N_24  and  C_26
REMARK    4  A    between atoms: C_26  and  C_30
REMARK                            x       y       z     vdW  Elec       q    Type
REMARK                         _______ _______ _______ _____ _____    ______ ____
ROOT
ATOM      1  O   UNL     1      32.075 -22.032 -18.438  0.00  0.00    -0.473 OA
ATOM      2  N   UNL     1      33.555 -23.159 -16.044  0.00  0.00    -0.272 N 
ATOM      3  N   UNL     1      35.733 -22.822 -16.133  0.00  0.00    -0.374 NA
ATOM      4  C   UNL     1      35.439 -23.608 -15.054  0.00  0.00    +0.190 C 
ATOM      5  C   UNL     1      34.582 -22.553 -16.740  0.00  0.00    +0.188 C 
ATOM      6  C   UNL     1      32.134 -23.137 -16.319  0.00  0.00    +0.141 C 
ATOM      7  C   UNL     1      34.092 -23.836 -14.978  0.00  0.00    +0.169 C 
ATOM      8  C   UNL     1      34.480 -21.729 -17.962  0.00  0.00    +0.078 C 
ATOM      9  C   UNL     1      31.695 -21.902 -17.072  0.00  0.00    +0.227 C 
ATOM     10  C   UNL     1      33.315 -21.526 -18.720  0.00  0.00    +0.144 C 
ATOM     11  C   UNL     1      35.666 -21.124 -18.431  0.00  0.00    +0.008 C 
ATOM     12  C   UNL     1      33.357 -20.792 -19.919  0.00  0.00    +0.051 C 
ATOM     13  C   UNL     1      34.542 -20.212 -20.358  0.00  0.00    +0.048 C 
ATOM     14  C   UNL     1      35.699 -20.373 -19.609  0.00  0.00    +0.015 C 
ATOM     15  O   UNL     1      38.429 -24.614 -13.357  0.00  0.00    -0.432 OA
ATOM     16  O   UNL     1      38.340 -23.075 -15.049  0.00  0.00    -0.226 OA
ATOM     17  N   UNL     1      36.395 -24.087 -14.192  0.00  0.00    -0.194 N 
ATOM     18  C   UNL     1      36.144 -24.923 -13.039  0.00  0.00    +0.195 C 
ATOM     19  C   UNL     1      37.500 -25.566 -12.829  0.00  0.00    +0.236 C 
ATOM     20  C   UNL     1      37.768 -23.843 -14.287  0.00  0.00    +0.411 C 
ENDROOT
BRANCH  18  23
ATOM     21  F   UNL     1      34.555 -24.603 -11.352  0.00  0.00    -0.196 F 
ATOM     22  F   UNL     1      36.642 -24.233 -10.858  0.00  0.00    -0.196 F 
ATOM     23  C   UNL     1      35.712 -24.100 -11.827  0.00  0.00    +0.340 C 
ENDBRANCH  18  23
BRANCH  13  24
ATOM     24  N   UNL     1      34.568 -19.467 -21.554  0.00  0.00    -0.327 N 
ATOM     25  H   UNL     1      34.220 -19.884 -22.374  0.00  0.00    +0.147 HD
BRANCH  24  26
ATOM     26  C   UNL     1      35.076 -18.132 -21.628  0.00  0.00    +0.146 C 
ATOM     27  C   UNL     1      36.596 -18.171 -21.702  0.00  0.00    +0.031 C 
BRANCH  26  30
ATOM     28  O   UNL     1      33.793 -18.014 -23.684  0.00  0.00    -0.274 OA
ATOM     29  N   UNL     1      34.827 -16.109 -22.926  0.00  0.00    -0.327 N 
ATOM     30  C   UNL     1      34.493 -17.444 -22.850  0.00  0.00    +0.237 C 
ATOM     31  H   UNL     1      34.504 -15.562 -23.679  0.00  0.00    +0.145 HD
ATOM     32  H   UNL     1      35.390 -15.701 -22.228  0.00  0.00    +0.145 HD
ENDBRANCH  26  30
ENDBRANCH  24  26
ENDBRANCH  13  24
TORSDOF 4
ENDMDL
MODEL 2
REMARK VINA RESULT:     -11.2      7.605     11.356
REMARK  Name = 124173720
REMARK  4 active torsions:
REMARK  status: ('A' for Active; 'I' for Inactive)
REMARK    1  A    between atoms: C_13  and  N_24
REMARK    2  A    between atoms: C_18  and  C_23
REMARK    3  A    between atoms: N_24  and  C_26
REMARK    4  A    between atoms: C_26  and  C_30
REMARK                            x       y       z     vdW  Elec       q    Type
REMARK                         _______ _______ _______ _____ _____    ______ ____
ROOT
ATOM      1  O   UNL     1      32.541 -11.692 -25.057  0.00  0.00    -0.473 OA
ATOM      2  N   UNL     1      33.617 -14.435 -24.341  0.00  0.00    -0.272 N 
ATOM      3  N   UNL     1      33.785 -14.760 -22.166  0.00  0.00    -0.374 NA
ATOM      4  C   UNL     1      34.327 -15.826 -22.828  0.00  0.00    +0.190 C 
ATOM      5  C   UNL     1      33.357 -13.909 -23.091  0.00  0.00    +0.188 C 
ATOM      6  C   UNL     1      33.321 -13.875 -25.642  0.00  0.00    +0.141 C 
ATOM      7  C   UNL     1      34.238 -15.648 -24.182  0.00  0.00    +0.169 C 
ATOM      8  C   UNL     1      32.712 -12.618 -22.772  0.00  0.00    +0.078 C 
ATOM      9  C   UNL     1      32.138 -12.934 -25.628  0.00  0.00    +0.227 C 
ATOM     10  C   UNL     1      32.366 -11.622 -23.701  0.00  0.00    +0.144 C 
ATOM     11  C   UNL     1      32.456 -12.345 -21.411  0.00  0.00    +0.008 C 
ATOM     12  C   UNL     1      31.836 -10.393 -23.271  0.00  0.00    +0.051 C 
ATOM     13  C   UNL     1      31.600 -10.152 -21.922  0.00  0.00    +0.048 C 
ATOM     14  C   UNL     1      31.905 -11.132 -20.990  0.00  0.00    +0.015 C 
ATOM     15  O   UNL     1      35.718 -18.186 -20.520  0.00  0.00    -0.432 OA
ATOM     16  O   UNL     1      34.451 -16.373 -19.932  0.00  0.00    -0.226 OA
ATOM     17  N   UNL     1      34.879 -16.908 -22.184  0.00  0.00    -0.194 N 
ATOM     18  C   UNL     1      35.467 -18.060 -22.830  0.00  0.00    +0.195 C 
ATOM     19  C   UNL     1      36.358 -18.603 -21.731  0.00  0.00    +0.236 C 
ATOM     20  C   UNL     1      34.959 -17.071 -20.799  0.00  0.00    +0.411 C 
ENDROOT
BRANCH  18  23
ATOM     21  F   UNL     1      33.387 -19.029 -22.373  0.00  0.00    -0.196 F 
ATOM     22  F   UNL     1      33.918 -18.713 -24.459  0.00  0.00    -0.196 F 
ATOM     23  C   UNL     1      34.406 -19.074 -23.254  0.00  0.00    +0.340 C 
ENDBRANCH  18  23
BRANCH  13  24
ATOM     24  N   UNL     1      31.055  -8.920 -21.506  0.00  0.00    -0.327 N 
ATOM     25  H   UNL     1      30.084  -8.861 -21.361  0.00  0.00    +0.147 HD
BRANCH  24  26
ATOM     26  C   UNL     1      31.852  -7.752 -21.286  0.00  0.00    +0.146 C 
ATOM     27  C   UNL     1      31.161  -6.543 -21.900  0.00  0.00    +0.031 C 
BRANCH  26  30
ATOM     28  O   UNL     1      31.650  -8.352 -18.944  0.00  0.00    -0.274 OA
ATOM     29  N   UNL     1      32.734  -6.401 -19.486  0.00  0.00    -0.327 N 
ATOM     30  C   UNL     1      32.051  -7.559 -19.793  0.00  0.00    +0.237 C 
ATOM     31  H   UNL     1      32.920  -6.173 -18.547  0.00  0.00    +0.145 HD
ATOM     32  H   UNL     1      33.035  -5.801 -20.207  0.00  0.00    +0.145 HD
ENDBRANCH  26  30
ENDBRANCH  24  26
ENDBRANCH  13  24
TORSDOF 4
ENDMDL
MODEL 3
REMARK VINA RESULT:     -10.9      3.973      6.256
REMARK  Name = 124173720
REMARK  4 active torsions:
REMARK  status: ('A' for Active; 'I' for Inactive)
REMARK    1  A    between atoms: C_13  and  N_24
REMARK    2  A    between atoms: C_18  and  C_23
REMARK    3  A    between atoms: N_24  and  C_26
REMARK    4  A    between atoms: C_26  and  C_30
REMARK                            x       y       z     vdW  Elec       q    Type
REMARK                         _______ _______ _______ _____ _____    ______ ____
ROOT
ATOM      1  O   UNL     1      32.265 -21.981 -17.371  0.00  0.00    -0.473 OA
ATOM      2  N   UNL     1      34.731 -22.843 -15.831  0.00  0.00    -0.272 N 
ATOM      3  N   UNL     1      34.272 -23.600 -13.811  0.00  0.00    -0.374 NA
ATOM      4  C   UNL     1      35.627 -23.530 -13.973  0.00  0.00    +0.190 C 
ATOM      5  C   UNL     1      33.725 -23.175 -14.945  0.00  0.00    +0.188 C 
ATOM      6  C   UNL     1      34.620 -22.347 -17.187  0.00  0.00    +0.141 C 
ATOM      7  C   UNL     1      35.939 -23.059 -15.219  0.00  0.00    +0.169 C 
ATOM      8  C   UNL     1      32.267 -23.092 -15.164  0.00  0.00    +0.078 C 
ATOM      9  C   UNL     1      33.340 -22.770 -17.871  0.00  0.00    +0.227 C 
ATOM     10  C   UNL     1      31.636 -22.525 -16.283  0.00  0.00    +0.144 C 
ATOM     11  C   UNL     1      31.432 -23.593 -14.141  0.00  0.00    +0.008 C 
ATOM     12  C   UNL     1      30.235 -22.421 -16.342  0.00  0.00    +0.051 C 
ATOM     13  C   UNL     1      29.440 -22.919 -15.316  0.00  0.00    +0.048 C 
ATOM     14  C   UNL     1      30.040 -23.512 -14.214  0.00  0.00    +0.015 C 
ATOM     15  O   UNL     1      37.320 -24.465 -10.957  0.00  0.00    -0.432 OA
ATOM     16  O   UNL     1      35.069 -24.676 -11.313  0.00  0.00    -0.226 OA
ATOM     17  N   UNL     1      36.519 -23.889 -12.992  0.00  0.00    -0.194 N 
ATOM     18  C   UNL     1      37.960 -23.835 -13.105  0.00  0.00    +0.195 C 
ATOM     19  C   UNL     1      38.378 -23.792 -11.649  0.00  0.00    +0.236 C 
ATOM     20  C   UNL     1      36.180 -24.369 -11.724  0.00  0.00    +0.411 C 
ENDROOT
BRANCH  18  23
ATOM     21  F   UNL     1      38.982 -24.688 -15.029  0.00  0.00    -0.196 F 
ATOM     22  F   UNL     1      39.565 -25.539 -13.113  0.00  0.00    -0.196 F 
ATOM     23  C   UNL     1      38.518 -25.064 -13.820  0.00  0.00    +0.340 C 
ENDBRANCH  18  23
BRANCH  13  24
ATOM     24  N   UNL     1      28.036 -22.822 -15.394  0.00  0.00    -0.327 N 
ATOM     25  H   UNL     1      27.505 -23.033 -14.593  0.00  0.00    +0.147 HD
BRANCH  24  26
ATOM     26  C   UNL     1      27.348 -22.430 -16.586  0.00  0.00    +0.146 C 
ATOM     27  C   UNL     1      27.020 -23.665 -17.412  0.00  0.00    +0.031 C 
BRANCH  26  30
ATOM     28  O   UNL     1      25.569 -21.730 -15.093  0.00  0.00    -0.274 OA
ATOM     29  N   UNL     1      25.569 -20.934 -17.246  0.00  0.00    -0.327 N 
ATOM     30  C   UNL     1      26.083 -21.680 -16.208  0.00  0.00    +0.237 C 
ATOM     31  H   UNL     1      24.748 -20.406 -17.115  0.00  0.00    +0.145 HD
ATOM     32  H   UNL     1      26.023 -20.928 -18.120  0.00  0.00    +0.145 HD
ENDBRANCH  26  30
ENDBRANCH  24  26
ENDBRANCH  13  24
TORSDOF 4
ENDMDL
