MODEL 1
REMARK VINA RESULT:     -12.8      0.000      0.000
REMARK  Name = 5287979
REMARK  6 active torsions:
REMARK  status: ('A' for Active; 'I' for Inactive)
REMARK    1  A    between atoms: C_1  and  C_7
REMARK    2  A    between atoms: C_2  and  C_21
REMARK    3  A    between atoms: C_3  and  N_25
REMARK    4  A    between atoms: C_10  and  C_15
REMARK    5  A    between atoms: N_14  and  O_17
REMARK    6  A    between atoms: C_26  and  C_28
REMARK                            x       y       z     vdW  Elec       q    Type
REMARK                         _______ _______ _______ _____ _____    ______ ____
ROOT
ATOM      1  C   UNL     1      34.242 -22.569 -16.585  0.00  0.00    +0.001 C 
ATOM      2  C   UNL     1      31.843 -22.409 -16.827  0.00  0.00    +0.055 C 
ATOM      3  C   UNL     1      33.292 -21.238 -18.365  0.00  0.00    +0.051 C 
ATOM      4  C   UNL     1      32.958 -22.906 -16.153  0.00  0.00    +0.005 C 
ATOM      5  C   UNL     1      34.408 -21.736 -17.691  0.00  0.00    +0.015 C 
ATOM      6  C   UNL     1      32.010 -21.575 -17.934  0.00  0.00    +0.019 C 
ENDROOT
BRANCH   1   7
ATOM      7  C   UNL     1      35.399 -23.084 -15.886  0.00  0.00    +0.000 C 
ATOM      8  C   UNL     1      35.295 -24.253 -15.133  0.00  0.00    +0.000 C 
ATOM      9  C   UNL     1      36.619 -22.412 -15.966  0.00  0.00    +0.000 C 
ATOM     10  C   UNL     1      37.631 -24.079 -14.538  0.00  0.00    +0.055 C 
ATOM     11  C   UNL     1      36.411 -24.751 -14.459  0.00  0.00    +0.005 C 
ATOM     12  C   UNL     1      37.735 -22.910 -15.293  0.00  0.00    +0.005 C 
BRANCH  10  15
ATOM     13  O   UNL     1      39.215 -24.038 -12.807  0.00  0.00    -0.268 OA
ATOM     14  N   UNL     1      39.408 -25.720 -14.371  0.00  0.00    -0.193 N 
ATOM     15  C   UNL     1      38.793 -24.597 -13.835  0.00  0.00    +0.268 C 
ATOM     16  H   UNL     1      39.066 -26.156 -15.186  0.00  0.00    +0.183 HD
BRANCH  14  17
ATOM     17  O   UNL     1      40.537 -26.205 -13.696  0.00  0.00    -0.295 OA
ATOM     18  H   UNL     1      41.337 -25.822 -14.089  0.00  0.00    +0.241 HD
ENDBRANCH  14  17
ENDBRANCH  10  15
ENDBRANCH   1   7
BRANCH   2  21
ATOM     19  O   UNL     1      29.556 -22.286 -17.015  0.00  0.00    -0.270 OA
ATOM     20  N   UNL     1      30.362 -23.592 -15.252  0.00  0.00    -0.273 N 
ATOM     21  C   UNL     1      30.505 -22.760 -16.377  0.00  0.00    +0.249 C 
ATOM     22  C   UNL     1      31.513 -24.128 -14.530  0.00  0.00    +0.115 C 
ATOM     23  C   UNL     1      29.056 -23.974 -14.732  0.00  0.00    +0.115 C 
ENDBRANCH   2  21
BRANCH   3  25
ATOM     24  O   UNL     1      35.794 -20.161 -19.617  0.00  0.00    -0.270 OA
ATOM     25  N   UNL     1      33.460 -20.405 -19.471  0.00  0.00    -0.280 N 
ATOM     26  C   UNL     1      34.658 -19.929 -20.018  0.00  0.00    +0.249 C 
ATOM     27  H   UNL     1      32.634 -20.117 -19.925  0.00  0.00    +0.155 HD
BRANCH  26  28
ATOM     28  C   UNL     1      34.509 -19.029 -21.192  0.00  0.00    +0.054 C 
ATOM     29  C   UNL     1      33.913 -19.519 -22.335  0.00  0.00    +0.004 C 
ATOM     30  C   UNL     1      34.972 -17.733 -21.099  0.00  0.00    +0.004 C 
ATOM     31  C   UNL     1      34.233 -17.360 -23.370  0.00  0.00    -0.022 C 
ATOM     32  C   UNL     1      33.774 -18.675 -23.436  0.00  0.00    -0.004 C 
ATOM     33  C   UNL     1      34.833 -16.889 -22.201  0.00  0.00    -0.004 C 
ATOM     34  C   UNL     1      34.084 -16.457 -24.547  0.00  0.00    +0.031 C 
ENDBRANCH  26  28
ENDBRANCH   3  25
TORSDOF 6
ENDMDL
MODEL 2
REMARK VINA RESULT:     -12.1      2.215      8.504
REMARK  Name = 5287979
REMARK  6 active torsions:
REMARK  status: ('A' for Active; 'I' for Inactive)
REMARK    1  A    between atoms: C_1  and  C_7
REMARK    2  A    between atoms: C_2  and  C_21
REMARK    3  A    between atoms: C_3  and  N_25
REMARK    4  A    between atoms: C_10  and  C_15
REMARK    5  A    between atoms: N_14  and  O_17
REMARK    6  A    between atoms: C_26  and  C_28
REMARK                            x       y       z     vdW  Elec       q    Type
REMARK                         _______ _______ _______ _____ _____    ______ ____
ROOT
ATOM      1  C   UNL     1      33.445 -21.594 -18.264  0.00  0.00    +0.001 C 
ATOM      2  C   UNL     1      32.032 -22.613 -16.590  0.00  0.00    +0.055 C 
ATOM      3  C   UNL     1      34.419 -22.986 -16.545  0.00  0.00    +0.051 C 
ATOM      4  C   UNL     1      32.179 -21.809 -17.720  0.00  0.00    +0.005 C 
ATOM      5  C   UNL     1      34.565 -22.181 -17.675  0.00  0.00    +0.015 C 
ATOM      6  C   UNL     1      33.153 -23.201 -16.002  0.00  0.00    +0.019 C 
ENDROOT
BRANCH   1   7
ATOM      7  C   UNL     1      33.598 -20.759 -19.436  0.00  0.00    +0.000 C 
ATOM      8  C   UNL     1      34.870 -20.371 -19.855  0.00  0.00    +0.000 C 
ATOM      9  C   UNL     1      32.472 -20.342 -20.147  0.00  0.00    +0.000 C 
ATOM     10  C   UNL     1      33.893 -19.149 -21.696  0.00  0.00    +0.055 C 
ATOM     11  C   UNL     1      35.018 -19.566 -20.984  0.00  0.00    +0.005 C 
ATOM     12  C   UNL     1      32.620 -19.538 -21.277  0.00  0.00    +0.005 C 
BRANCH  10  15
ATOM     13  O   UNL     1      33.704 -18.722 -23.996  0.00  0.00    -0.268 OA
ATOM     14  N   UNL     1      34.600 -17.051 -22.685  0.00  0.00    -0.193 N 
ATOM     15  C   UNL     1      34.046 -18.310 -22.873  0.00  0.00    +0.268 C 
ATOM     16  H   UNL     1      34.868 -16.734 -21.792  0.00  0.00    +0.183 HD
BRANCH  14  17
ATOM     17  O   UNL     1      34.758 -16.253 -23.827  0.00  0.00    -0.295 OA
ATOM     18  H   UNL     1      34.001 -15.653 -23.909  0.00  0.00    +0.241 HD
ENDBRANCH  14  17
ENDBRANCH  10  15
ENDBRANCH   1   7
BRANCH   2  21
ATOM     19  O   UNL     1      29.744 -22.425 -16.675  0.00  0.00    -0.270 OA
ATOM     20  N   UNL     1      30.605 -23.487 -14.780  0.00  0.00    -0.273 N 
ATOM     21  C   UNL     1      30.712 -22.838 -16.023  0.00  0.00    +0.249 C 
ATOM     22  C   UNL     1      31.777 -23.958 -14.046  0.00  0.00    +0.115 C 
ATOM     23  C   UNL     1      29.320 -23.734 -14.142  0.00  0.00    +0.115 C 
ENDBRANCH   2  21
BRANCH   3  25
ATOM     24  O   UNL     1      36.071 -22.096 -14.207  0.00  0.00    -0.270 OA
ATOM     25  N   UNL     1      35.540 -23.574 -15.957  0.00  0.00    -0.280 N 
ATOM     26  C   UNL     1      36.278 -23.114 -14.860  0.00  0.00    +0.249 C 
ATOM     27  H   UNL     1      35.849 -24.416 -16.363  0.00  0.00    +0.155 HD
BRANCH  26  28
ATOM     28  C   UNL     1      37.447 -23.953 -14.482  0.00  0.00    +0.054 C 
ATOM     29  C   UNL     1      38.603 -23.857 -15.226  0.00  0.00    +0.004 C 
ATOM     30  C   UNL     1      37.333 -24.801 -13.400  0.00  0.00    +0.004 C 
ATOM     31  C   UNL     1      39.612 -25.511 -13.782  0.00  0.00    -0.022 C 
ATOM     32  C   UNL     1      39.698 -24.644 -14.872  0.00  0.00    -0.004 C 
ATOM     33  C   UNL     1      38.428 -25.589 -13.046  0.00  0.00    -0.004 C 
ATOM     34  C   UNL     1      40.782 -26.352 -13.403  0.00  0.00    +0.031 C 
ENDBRANCH  26  28
ENDBRANCH   3  25
TORSDOF 6
ENDMDL
MODEL 3
REMARK VINA RESULT:     -11.0      1.851      5.888
REMARK  Name = 5287979
REMARK  6 active torsions:
REMARK  status: ('A' for Active; 'I' for Inactive)
REMARK    1  A    between atoms: C_1  and  C_7
REMARK    2  A    between atoms: C_2  and  C_21
REMARK    3  A    between atoms: C_3  and  N_25
REMARK    4  A    between atoms: C_10  and  C_15
REMARK    5  A    between atoms: N_14  and  O_17
REMARK    6  A    between atoms: C_26  and  C_28
REMARK                            x       y       z     vdW  Elec       q    Type
REMARK                         _______ _______ _______ _____ _____    ______ ____
ROOT
ATOM      1  C   UNL     1      33.275 -22.381 -16.786  0.00  0.00    +0.001 C 
ATOM      2  C   UNL     1      35.671 -22.072 -16.706  0.00  0.00    +0.055 C 
ATOM      3  C   UNL     1      34.376 -21.034 -18.463  0.00  0.00    +0.051 C 
ATOM      4  C   UNL     1      34.505 -22.624 -16.173  0.00  0.00    +0.005 C 
ATOM      5  C   UNL     1      33.211 -21.586 -17.930  0.00  0.00    +0.015 C 
ATOM      6  C   UNL     1      35.606 -21.276 -17.851  0.00  0.00    +0.019 C 
ENDROOT
BRANCH   1   7
ATOM      7  C   UNL     1      32.067 -22.953 -16.233  0.00  0.00    +0.000 C 
ATOM      8  C   UNL     1      32.146 -23.890 -15.203  0.00  0.00    +0.000 C 
ATOM      9  C   UNL     1      30.821 -22.568 -16.732  0.00  0.00    +0.000 C 
ATOM     10  C   UNL     1      29.736 -24.058 -15.168  0.00  0.00    +0.055 C 
ATOM     11  C   UNL     1      30.981 -24.442 -14.671  0.00  0.00    +0.005 C 
ATOM     12  C   UNL     1      29.657 -23.120 -16.199  0.00  0.00    +0.005 C 
BRANCH  10  15
ATOM     13  O   UNL     1      27.454 -23.995 -14.623  0.00  0.00    -0.268 OA
ATOM     14  N   UNL     1      28.617 -25.906 -14.067  0.00  0.00    -0.193 N 
ATOM     15  C   UNL     1      28.521 -24.633 -14.613  0.00  0.00    +0.268 C 
ATOM     16  H   UNL     1      29.467 -26.403 -14.064  0.00  0.00    +0.183 HD
BRANCH  14  17
ATOM     17  O   UNL     1      27.445 -26.448 -13.521  0.00  0.00    -0.295 OA
ATOM     18  H   UNL     1      27.427 -27.405 -13.682  0.00  0.00    +0.241 HD
ENDBRANCH  14  17
ENDBRANCH  10  15
ENDBRANCH   1   7
BRANCH   2  21
ATOM     19  O   UNL     1      37.867 -21.526 -16.310  0.00  0.00    -0.270 OA
ATOM     20  N   UNL     1      37.089 -23.451 -15.237  0.00  0.00    -0.273 N 
ATOM     21  C   UNL     1      36.953 -22.325 -16.068  0.00  0.00    +0.249 C 
ATOM     22  C   UNL     1      35.981 -24.367 -14.981  0.00  0.00    +0.115 C 
ATOM     23  C   UNL     1      38.345 -23.779 -14.576  0.00  0.00    +0.115 C 
ENDBRANCH   2  21
BRANCH   3  25
ATOM     24  O   UNL     1      36.466 -19.308 -19.743  0.00  0.00    -0.270 OA
ATOM     25  N   UNL     1      34.311 -20.238 -19.607  0.00  0.00    -0.280 N 
ATOM     26  C   UNL     1      35.323 -19.447 -20.165  0.00  0.00    +0.249 C 
ATOM     27  H   UNL     1      33.448 -20.233 -20.082  0.00  0.00    +0.155 HD
BRANCH  26  28
ATOM     28  C   UNL     1      34.938 -18.686 -21.383  0.00  0.00    +0.054 C 
ATOM     29  C   UNL     1      35.296 -17.359 -21.480  0.00  0.00    +0.004 C 
ATOM     30  C   UNL     1      34.233 -19.335 -22.376  0.00  0.00    +0.004 C 
ATOM     31  C   UNL     1      34.220 -17.276 -23.642  0.00  0.00    -0.022 C 
ATOM     32  C   UNL     1      34.933 -16.645 -22.622  0.00  0.00    -0.004 C 
ATOM     33  C   UNL     1      33.870 -18.621 -23.518  0.00  0.00    -0.004 C 
ATOM     34  C   UNL     1      33.834 -16.514 -24.864  0.00  0.00    +0.031 C 
ENDBRANCH  26  28
ENDBRANCH   3  25
TORSDOF 6
ENDMDL
MODEL 4
REMARK VINA RESULT:     -10.9      1.997      5.901
REMARK  Name = 5287979
REMARK  6 active torsions:
REMARK  status: ('A' for Active; 'I' for Inactive)
REMARK    1  A    between atoms: C_1  and  C_7
REMARK    2  A    between atoms: C_2  and  C_21
REMARK    3  A    between atoms: C_3  and  N_25
REMARK    4  A    between atoms: C_10  and  C_15
REMARK    5  A    between atoms: N_14  and  O_17
REMARK    6  A    between atoms: C_26  and  C_28
REMARK                            x       y       z     vdW  Elec       q    Type
REMARK                         _______ _______ _______ _____ _____    ______ ____
ROOT
ATOM      1  C   UNL     1      34.409 -22.903 -15.633  0.00  0.00    +0.001 C 
ATOM      2  C   UNL     1      36.821 -22.849 -15.765  0.00  0.00    +0.055 C 
ATOM      3  C   UNL     1      35.498 -21.538 -17.304  0.00  0.00    +0.051 C 
ATOM      4  C   UNL     1      35.654 -23.321 -15.164  0.00  0.00    +0.005 C 
ATOM      5  C   UNL     1      34.331 -22.010 -16.702  0.00  0.00    +0.015 C 
ATOM      6  C   UNL     1      36.743 -21.957 -16.835  0.00  0.00    +0.019 C 
ENDROOT
BRANCH   1   7
ATOM      7  C   UNL     1      33.198 -23.392 -15.009  0.00  0.00    +0.000 C 
ATOM      8  C   UNL     1      33.274 -24.164 -13.851  0.00  0.00    +0.000 C 
ATOM      9  C   UNL     1      31.955 -23.092 -15.568  0.00  0.00    +0.000 C 
ATOM     10  C   UNL     1      30.864 -24.336 -13.807  0.00  0.00    +0.055 C 
ATOM     11  C   UNL     1      32.107 -24.636 -13.249  0.00  0.00    +0.005 C 
ATOM     12  C   UNL     1      30.789 -23.564 -14.966  0.00  0.00    +0.005 C 
BRANCH  10  15
ATOM     13  O   UNL     1      29.442 -24.652 -11.966  0.00  0.00    -0.268 OA
ATOM     14  N   UNL     1      28.750 -25.510 -13.990  0.00  0.00    -0.193 N 
ATOM     15  C   UNL     1      29.648 -24.829 -13.180  0.00  0.00    +0.268 C 
ATOM     16  H   UNL     1      28.922 -25.646 -14.950  0.00  0.00    +0.183 HD
BRANCH  14  17
ATOM     17  O   UNL     1      27.587 -25.995 -13.376  0.00  0.00    -0.295 OA
ATOM     18  H   UNL     1      27.569 -25.710 -12.448  0.00  0.00    +0.241 HD
ENDBRANCH  14  17
ENDBRANCH  10  15
ENDBRANCH   1   7
BRANCH   2  21
ATOM     19  O   UNL     1      39.074 -22.518 -15.455  0.00  0.00    -0.270 OA
ATOM     20  N   UNL     1      38.224 -24.542 -14.652  0.00  0.00    -0.273 N 
ATOM     21  C   UNL     1      38.119 -23.286 -15.276  0.00  0.00    +0.249 C 
ATOM     22  C   UNL     1      37.069 -25.416 -14.464  0.00  0.00    +0.115 C 
ATOM     23  C   UNL     1      39.492 -25.055 -14.151  0.00  0.00    +0.115 C 
ENDBRANCH   2  21
BRANCH   3  25
ATOM     24  O   UNL     1      34.636 -21.985 -20.140  0.00  0.00    -0.270 OA
ATOM     25  N   UNL     1      35.420 -20.646 -18.374  0.00  0.00    -0.280 N 
ATOM     26  C   UNL     1      35.008 -20.908 -19.686  0.00  0.00    +0.249 C 
ATOM     27  H   UNL     1      35.685 -19.717 -18.182  0.00  0.00    +0.155 HD
BRANCH  26  28
ATOM     28  C   UNL     1      35.059 -19.747 -20.614  0.00  0.00    +0.054 C 
ATOM     29  C   UNL     1      36.193 -18.962 -20.634  0.00  0.00    +0.004 C 
ATOM     30  C   UNL     1      33.970 -19.492 -21.421  0.00  0.00    +0.004 C 
ATOM     31  C   UNL     1      35.154 -17.592 -22.332  0.00  0.00    -0.022 C 
ATOM     32  C   UNL     1      36.240 -17.873 -21.504  0.00  0.00    -0.004 C 
ATOM     33  C   UNL     1      34.018 -18.403 -22.291  0.00  0.00    -0.004 C 
ATOM     34  C   UNL     1      35.205 -16.428 -23.263  0.00  0.00    +0.031 C 
ENDBRANCH  26  28
ENDBRANCH   3  25
TORSDOF 6
ENDMDL
MODEL 5
REMARK VINA RESULT:      -9.9      2.390      9.112
REMARK  Name = 5287979
REMARK  6 active torsions:
REMARK  status: ('A' for Active; 'I' for Inactive)
REMARK    1  A    between atoms: C_1  and  C_7
REMARK    2  A    between atoms: C_2  and  C_21
REMARK    3  A    between atoms: C_3  and  N_25
REMARK    4  A    between atoms: C_10  and  C_15
REMARK    5  A    between atoms: N_14  and  O_17
REMARK    6  A    between atoms: C_26  and  C_28
REMARK                            x       y       z     vdW  Elec       q    Type
REMARK                         _______ _______ _______ _____ _____    ______ ____
ROOT
ATOM      1  C   UNL     1      34.861 -21.154 -18.343  0.00  0.00    +0.001 C 
ATOM      2  C   UNL     1      36.169 -22.126 -16.558  0.00  0.00    +0.055 C 
ATOM      3  C   UNL     1      33.800 -22.576 -16.703  0.00  0.00    +0.051 C 
ATOM      4  C   UNL     1      36.087 -21.328 -17.700  0.00  0.00    +0.005 C 
ATOM      5  C   UNL     1      33.718 -21.779 -17.845  0.00  0.00    +0.015 C 
ATOM      6  C   UNL     1      35.025 -22.750 -16.060  0.00  0.00    +0.019 C 
ENDROOT
BRANCH   1   7
ATOM      7  C   UNL     1      34.775 -20.327 -19.527  0.00  0.00    +0.000 C 
ATOM      8  C   UNL     1      35.910 -19.672 -20.004  0.00  0.00    +0.000 C 
ATOM      9  C   UNL     1      33.557 -20.184 -20.192  0.00  0.00    +0.000 C 
ATOM     10  C   UNL     1      34.611 -18.731 -21.810  0.00  0.00    +0.055 C 
ATOM     11  C   UNL     1      35.829 -18.874 -21.145  0.00  0.00    +0.005 C 
ATOM     12  C   UNL     1      33.475 -19.386 -21.334  0.00  0.00    +0.005 C 
BRANCH  10  15
ATOM     13  O   UNL     1      34.084 -18.360 -24.067  0.00  0.00    -0.268 OA
ATOM     14  N   UNL     1      34.969 -16.589 -22.889  0.00  0.00    -0.193 N 
ATOM     15  C   UNL     1      34.526 -17.899 -23.000  0.00  0.00    +0.268 C 
ATOM     16  H   UNL     1      35.318 -16.232 -22.039  0.00  0.00    +0.183 HD
BRANCH  14  17
ATOM     17  O   UNL     1      34.898 -15.797 -24.043  0.00  0.00    -0.295 OA
ATOM     18  H   UNL     1      33.974 -15.732 -24.334  0.00  0.00    +0.241 HD
ENDBRANCH  14  17
ENDBRANCH  10  15
ENDBRANCH   1   7
BRANCH   2  21
ATOM     19  O   UNL     1      38.302 -21.429 -16.065  0.00  0.00    -0.270 OA
ATOM     20  N   UNL     1      37.646 -23.455 -15.101  0.00  0.00    -0.273 N 
ATOM     21  C   UNL     1      37.447 -22.307 -15.888  0.00  0.00    +0.249 C 
ATOM     22  C   UNL     1      36.606 -24.465 -14.922  0.00  0.00    +0.115 C 
ATOM     23  C   UNL     1      38.903 -23.714 -14.413  0.00  0.00    +0.115 C 
ENDBRANCH   2  21
BRANCH   3  25
ATOM     24  O   UNL     1      31.978 -21.779 -14.459  0.00  0.00    -0.270 OA
ATOM     25  N   UNL     1      32.656 -23.201 -16.205  0.00  0.00    -0.280 N 
ATOM     26  C   UNL     1      31.836 -22.783 -15.148  0.00  0.00    +0.249 C 
ATOM     27  H   UNL     1      32.391 -24.038 -16.652  0.00  0.00    +0.155 HD
BRANCH  26  28
ATOM     28  C   UNL     1      30.696 -23.684 -14.833  0.00  0.00    +0.054 C 
ATOM     29  C   UNL     1      30.674 -24.328 -13.614  0.00  0.00    +0.004 C 
ATOM     30  C   UNL     1      29.698 -23.846 -15.772  0.00  0.00    +0.004 C 
ATOM     31  C   UNL     1      28.581 -25.356 -14.250  0.00  0.00    -0.022 C 
ATOM     32  C   UNL     1      29.605 -25.173 -13.319  0.00  0.00    -0.004 C 
ATOM     33  C   UNL     1      28.629 -24.691 -15.477  0.00  0.00    -0.004 C 
ATOM     34  C   UNL     1      27.437 -26.258 -13.934  0.00  0.00    +0.031 C 
ENDBRANCH  26  28
ENDBRANCH   3  25
TORSDOF 6
ENDMDL
MODEL 6
REMARK VINA RESULT:      -9.9     11.607     17.868
REMARK  Name = 5287979
REMARK  6 active torsions:
REMARK  status: ('A' for Active; 'I' for Inactive)
REMARK    1  A    between atoms: C_1  and  C_7
REMARK    2  A    between atoms: C_2  and  C_21
REMARK    3  A    between atoms: C_3  and  N_25
REMARK    4  A    between atoms: C_10  and  C_15
REMARK    5  A    between atoms: N_14  and  O_17
REMARK    6  A    between atoms: C_26  and  C_28
REMARK                            x       y       z     vdW  Elec       q    Type
REMARK                         _______ _______ _______ _____ _____    ______ ____
ROOT
ATOM      1  C   UNL     1      33.690  -6.173 -24.191  0.00  0.00    +0.001 C 
ATOM      2  C   UNL     1      32.553  -6.416 -22.073  0.00  0.00    +0.055 C 
ATOM      3  C   UNL     1      33.313  -8.374 -23.268  0.00  0.00    +0.051 C 
ATOM      4  C   UNL     1      33.059  -5.601 -23.087  0.00  0.00    +0.005 C 
ATOM      5  C   UNL     1      33.818  -7.559 -24.281  0.00  0.00    +0.015 C 
ATOM      6  C   UNL     1      32.681  -7.803 -22.164  0.00  0.00    +0.019 C 
ENDROOT
BRANCH   1   7
ATOM      7  C   UNL     1      34.215  -5.328 -25.242  0.00  0.00    +0.000 C 
ATOM      8  C   UNL     1      34.944  -5.890 -26.290  0.00  0.00    +0.000 C 
ATOM      9  C   UNL     1      33.992  -3.951 -25.208  0.00  0.00    +0.000 C 
ATOM     10  C   UNL     1      35.228  -3.700 -27.269  0.00  0.00    +0.055 C 
ATOM     11  C   UNL     1      35.450  -5.076 -27.303  0.00  0.00    +0.005 C 
ATOM     12  C   UNL     1      34.498  -3.138 -26.221  0.00  0.00    +0.005 C 
BRANCH  10  15
ATOM     13  O   UNL     1      35.119  -1.859 -28.721  0.00  0.00    -0.268 OA
ATOM     14  N   UNL     1      36.981  -3.208 -28.870  0.00  0.00    -0.193 N 
ATOM     15  C   UNL     1      35.756  -2.851 -28.325  0.00  0.00    +0.268 C 
ATOM     16  H   UNL     1      37.479  -3.996 -28.550  0.00  0.00    +0.183 HD
BRANCH  14  17
ATOM     17  O   UNL     1      37.477  -2.394 -29.898  0.00  0.00    -0.295 OA
ATOM     18  H   UNL     1      36.798  -1.751 -30.158  0.00  0.00    +0.241 HD
ENDBRANCH  14  17
ENDBRANCH  10  15
ENDBRANCH   1   7
BRANCH   2  21
ATOM     19  O   UNL     1      32.435  -5.980 -19.820  0.00  0.00    -0.270 OA
ATOM     20  N   UNL     1      30.689  -5.120 -21.114  0.00  0.00    -0.273 N 
ATOM     21  C   UNL     1      31.893  -5.821 -20.922  0.00  0.00    +0.249 C 
ATOM     22  C   UNL     1      30.086  -4.958 -22.435  0.00  0.00    +0.115 C 
ATOM     23  C   UNL     1      29.963  -4.510 -20.009  0.00  0.00    +0.115 C 
ENDBRANCH   2  21
BRANCH   3  25
ATOM     24  O   UNL     1      31.400 -10.551 -22.499  0.00  0.00    -0.270 OA
ATOM     25  N   UNL     1      33.441  -9.760 -23.358  0.00  0.00    -0.280 N 
ATOM     26  C   UNL     1      32.511 -10.738 -22.983  0.00  0.00    +0.249 C 
ATOM     27  H   UNL     1      34.289 -10.093 -23.734  0.00  0.00    +0.155 HD
BRANCH  26  28
ATOM     28  C   UNL     1      32.953 -12.145 -23.178  0.00  0.00    +0.054 C 
ATOM     29  C   UNL     1      32.742 -12.744 -24.401  0.00  0.00    +0.004 C 
ATOM     30  C   UNL     1      33.558 -12.803 -22.128  0.00  0.00    +0.004 C 
ATOM     31  C   UNL     1      33.770 -14.754 -23.540  0.00  0.00    -0.022 C 
ATOM     32  C   UNL     1      33.155 -14.064 -24.584  0.00  0.00    -0.004 C 
ATOM     33  C   UNL     1      33.971 -14.123 -22.311  0.00  0.00    -0.004 C 
ATOM     34  C   UNL     1      34.213 -16.164 -23.735  0.00  0.00    +0.031 C 
ENDBRANCH  26  28
ENDBRANCH   3  25
TORSDOF 6
ENDMDL
