MODEL 1
REMARK VINA RESULT:     -12.2      0.000      0.000
REMARK  Name = 16124688
REMARK  3 active torsions:
REMARK  status: ('A' for Active; 'I' for Inactive)
REMARK    1  A    between atoms: N_3  and  N_16
REMARK    2  A    between atoms: C_17  and  C_19
REMARK    3  A    between atoms: C_24  and  C_28
REMARK                            x       y       z     vdW  Elec       q    Type
REMARK                         _______ _______ _______ _____ _____    ______ ____
ROOT
ATOM      1  O   UNL     1      34.728  -8.900 -23.612  0.00  0.00    -0.273 OA
ATOM      2  O   UNL     1      30.453  -9.972 -22.153  0.00  0.00    -0.273 OA
ATOM      3  N   UNL     1      32.673  -9.731 -22.857  0.00  0.00    -0.154 N 
ATOM      4  C   UNL     1      32.190  -5.188 -23.350  0.00  0.00    +0.000 C 
ATOM      5  C   UNL     1      30.791  -5.538 -22.875  0.00  0.00    +0.000 C 
ATOM      6  C   UNL     1      31.461  -4.273 -22.395  0.00  0.00    +0.000 C 
ATOM      7  C   UNL     1      33.186  -6.284 -22.937  0.00  0.00    +0.009 C 
ATOM      8  C   UNL     1      30.801  -6.882 -22.125  0.00  0.00    +0.009 C 
ATOM      9  C   UNL     1      32.700  -7.566 -23.684  0.00  0.00    +0.087 C 
ATOM     10  C   UNL     1      31.254  -7.928 -23.191  0.00  0.00    +0.087 C 
ATOM     11  C   UNL     1      33.093  -6.579 -21.444  0.00  0.00    +0.001 C 
ATOM     12  C   UNL     1      31.854  -6.889 -21.022  0.00  0.00    +0.001 C 
ATOM     13  C   UNL     1      33.528  -8.799 -23.398  0.00  0.00    +0.247 C 
ATOM     14  C   UNL     1      31.368  -9.341 -22.661  0.00  0.00    +0.247 C 
ENDROOT
BRANCH   3  16
ATOM     15  O   UNL     1      32.729 -11.795 -24.670  0.00  0.00    -0.269 OA
ATOM     16  N   UNL     1      33.098 -10.983 -22.533  0.00  0.00    -0.221 N 
ATOM     17  C   UNL     1      33.093 -11.965 -23.509  0.00  0.00    +0.262 C 
ATOM     18  H   UNL     1      33.403 -11.187 -21.619  0.00  0.00    +0.174 HD
BRANCH  17  19
ATOM     19  C   UNL     1      33.550 -13.313 -23.078  0.00  0.00    +0.055 C 
ATOM     20  C   UNL     1      33.694 -13.598 -21.721  0.00  0.00    +0.005 C 
ATOM     21  C   UNL     1      33.832 -14.292 -24.030  0.00  0.00    +0.005 C 
ATOM     22  C   UNL     1      34.120 -14.862 -21.315  0.00  0.00    +0.004 C 
ATOM     23  C   UNL     1      34.260 -15.556 -23.625  0.00  0.00    +0.004 C 
ATOM     24  C   UNL     1      34.403 -15.841 -22.267  0.00  0.00    +0.071 C 
BRANCH  24  28
ATOM     25  F   UNL     1      34.053 -18.208 -22.265  0.00  0.00    -0.166 F 
ATOM     26  F   UNL     1      36.110 -17.517 -22.281  0.00  0.00    -0.166 F 
ATOM     27  F   UNL     1      34.913 -17.319 -20.476  0.00  0.00    -0.166 F 
ATOM     28  C   UNL     1      34.860 -17.194 -21.834  0.00  0.00    +0.419 C 
ENDBRANCH  24  28
ENDBRANCH  17  19
ENDBRANCH   3  16
TORSDOF 3
ENDMDL
MODEL 2
REMARK VINA RESULT:     -11.3      9.786     14.022
REMARK  Name = 16124688
REMARK  3 active torsions:
REMARK  status: ('A' for Active; 'I' for Inactive)
REMARK    1  A    between atoms: N_3  and  N_16
REMARK    2  A    between atoms: C_17  and  C_19
REMARK    3  A    between atoms: C_24  and  C_28
REMARK                            x       y       z     vdW  Elec       q    Type
REMARK                         _______ _______ _______ _____ _____    ______ ____
ROOT
ATOM      1  O   UNL     1      30.017 -21.944 -17.240  0.00  0.00    -0.273 OA
ATOM      2  O   UNL     1      34.194 -23.210 -15.660  0.00  0.00    -0.273 OA
ATOM      3  N   UNL     1      32.240 -22.413 -16.673  0.00  0.00    -0.154 N 
ATOM      4  C   UNL     1      29.583 -24.524 -13.574  0.00  0.00    +0.000 C 
ATOM      5  C   UNL     1      30.949 -24.941 -13.058  0.00  0.00    +0.000 C 
ATOM      6  C   UNL     1      29.847 -24.588 -12.088  0.00  0.00    +0.000 C 
ATOM      7  C   UNL     1      29.700 -23.258 -14.439  0.00  0.00    +0.009 C 
ATOM      8  C   UNL     1      32.030 -23.967 -13.558  0.00  0.00    +0.009 C 
ATOM      9  C   UNL     1      30.594 -23.682 -15.646  0.00  0.00    +0.087 C 
ATOM     10  C   UNL     1      32.007 -24.111 -15.112  0.00  0.00    +0.087 C 
ATOM     11  C   UNL     1      30.448 -22.153 -13.700  0.00  0.00    +0.001 C 
ATOM     12  C   UNL     1      31.658 -22.522 -13.242  0.00  0.00    +0.001 C 
ATOM     13  C   UNL     1      30.873 -22.568 -16.630  0.00  0.00    +0.247 C 
ATOM     14  C   UNL     1      32.985 -23.208 -15.832  0.00  0.00    +0.247 C 
ENDROOT
BRANCH   3  16
ATOM     15  O   UNL     1      33.402 -23.144 -19.053  0.00  0.00    -0.269 OA
ATOM     16  N   UNL     1      32.828 -21.515 -17.509  0.00  0.00    -0.221 N 
ATOM     17  C   UNL     1      33.391 -21.970 -18.690  0.00  0.00    +0.262 C 
ATOM     18  H   UNL     1      32.854 -20.558 -17.279  0.00  0.00    +0.174 HD
BRANCH  17  19
ATOM     19  C   UNL     1      34.035 -20.938 -19.544  0.00  0.00    +0.055 C 
ATOM     20  C   UNL     1      33.249 -20.104 -20.341  0.00  0.00    +0.005 C 
ATOM     21  C   UNL     1      35.423 -20.800 -19.547  0.00  0.00    +0.005 C 
ATOM     22  C   UNL     1      33.852 -19.134 -21.141  0.00  0.00    +0.004 C 
ATOM     23  C   UNL     1      36.025 -19.830 -20.348  0.00  0.00    +0.004 C 
ATOM     24  C   UNL     1      35.240 -18.997 -21.145  0.00  0.00    +0.071 C 
BRANCH  24  28
ATOM     25  F   UNL     1      35.459 -16.689 -21.735  0.00  0.00    -0.166 F 
ATOM     26  F   UNL     1      37.245 -17.914 -21.872  0.00  0.00    -0.166 F 
ATOM     27  F   UNL     1      35.649 -18.155 -23.331  0.00  0.00    -0.166 F 
ATOM     28  C   UNL     1      35.885 -17.959 -22.000  0.00  0.00    +0.419 C 
ENDBRANCH  24  28
ENDBRANCH  17  19
ENDBRANCH   3  16
TORSDOF 3
ENDMDL
MODEL 3
REMARK VINA RESULT:     -11.1     10.176     14.893
REMARK  Name = 16124688
REMARK  3 active torsions:
REMARK  status: ('A' for Active; 'I' for Inactive)
REMARK    1  A    between atoms: N_3  and  N_16
REMARK    2  A    between atoms: C_17  and  C_19
REMARK    3  A    between atoms: C_24  and  C_28
REMARK                            x       y       z     vdW  Elec       q    Type
REMARK                         _______ _______ _______ _____ _____    ______ ____
ROOT
ATOM      1  O   UNL     1      38.417 -22.400 -15.949  0.00  0.00    -0.273 OA
ATOM      2  O   UNL     1      33.960 -22.008 -14.710  0.00  0.00    -0.273 OA
ATOM      3  N   UNL     1      36.141 -22.009 -15.563  0.00  0.00    -0.154 N 
ATOM      4  C   UNL     1      37.544 -25.037 -12.403  0.00  0.00    +0.000 C 
ATOM      5  C   UNL     1      36.086 -24.908 -11.996  0.00  0.00    +0.000 C 
ATOM      6  C   UNL     1      36.772 -26.252 -11.947  0.00  0.00    +0.000 C 
ATOM      7  C   UNL     1      37.731 -24.608 -13.869  0.00  0.00    +0.009 C 
ATOM      8  C   UNL     1      35.245 -24.388 -13.175  0.00  0.00    +0.009 C 
ATOM      9  C   UNL     1      37.325 -23.100 -13.896  0.00  0.00    +0.087 C 
ATOM     10  C   UNL     1      35.819 -22.968 -13.476  0.00  0.00    +0.087 C 
ATOM     11  C   UNL     1      36.762 -25.345 -14.787  0.00  0.00    +0.001 C 
ATOM     12  C   UNL     1      35.471 -25.230 -14.426  0.00  0.00    +0.001 C 
ATOM     13  C   UNL     1      37.404 -22.464 -15.267  0.00  0.00    +0.247 C 
ATOM     14  C   UNL     1      35.152 -22.266 -14.640  0.00  0.00    +0.247 C 
ENDROOT
BRANCH   3  16
ATOM     15  O   UNL     1      34.311 -22.888 -17.414  0.00  0.00    -0.269 OA
ATOM     16  N   UNL     1      35.880 -21.334 -16.715  0.00  0.00    -0.221 N 
ATOM     17  C   UNL     1      34.941 -21.850 -17.594  0.00  0.00    +0.262 C 
ATOM     18  H   UNL     1      36.349 -20.494 -16.922  0.00  0.00    +0.174 HD
BRANCH  17  19
ATOM     19  C   UNL     1      34.722 -21.071 -18.842  0.00  0.00    +0.055 C 
ATOM     20  C   UNL     1      33.429 -20.889 -19.331  0.00  0.00    +0.005 C 
ATOM     21  C   UNL     1      35.809 -20.521 -19.521  0.00  0.00    +0.005 C 
ATOM     22  C   UNL     1      33.223 -20.157 -20.500  0.00  0.00    +0.004 C 
ATOM     23  C   UNL     1      35.602 -19.791 -20.691  0.00  0.00    +0.004 C 
ATOM     24  C   UNL     1      34.309 -19.608 -21.180  0.00  0.00    +0.071 C 
BRANCH  24  28
ATOM     25  F   UNL     1      32.845 -18.992 -22.970  0.00  0.00    -0.166 F 
ATOM     26  F   UNL     1      34.227 -17.476 -22.262  0.00  0.00    -0.166 F 
ATOM     27  F   UNL     1      34.966 -19.162 -23.421  0.00  0.00    -0.166 F 
ATOM     28  C   UNL     1      34.089 -18.825 -22.431  0.00  0.00    +0.419 C 
ENDBRANCH  24  28
ENDBRANCH  17  19
ENDBRANCH   3  16
TORSDOF 3
ENDMDL
MODEL 4
REMARK VINA RESULT:     -11.0      1.720      2.766
REMARK  Name = 16124688
REMARK  3 active torsions:
REMARK  status: ('A' for Active; 'I' for Inactive)
REMARK    1  A    between atoms: N_3  and  N_16
REMARK    2  A    between atoms: C_17  and  C_19
REMARK    3  A    between atoms: C_24  and  C_28
REMARK                            x       y       z     vdW  Elec       q    Type
REMARK                         _______ _______ _______ _____ _____    ______ ____
ROOT
ATOM      1  O   UNL     1      30.837  -8.061 -24.704  0.00  0.00    -0.273 OA
ATOM      2  O   UNL     1      32.252  -7.562 -20.311  0.00  0.00    -0.273 OA
ATOM      3  N   UNL     1      31.632  -8.107 -22.502  0.00  0.00    -0.154 N 
ATOM      4  C   UNL     1      30.231  -3.811 -23.342  0.00  0.00    +0.000 C 
ATOM      5  C   UNL     1      30.692  -3.647 -21.904  0.00  0.00    +0.000 C 
ATOM      6  C   UNL     1      30.949  -2.553 -22.912  0.00  0.00    +0.000 C 
ATOM      7  C   UNL     1      30.904  -5.036 -23.984  0.00  0.00    +0.009 C 
ATOM      8  C   UNL     1      31.691  -4.757 -21.532  0.00  0.00    +0.009 C 
ATOM      9  C   UNL     1      30.399  -6.252 -23.145  0.00  0.00    +0.087 C 
ATOM     10  C   UNL     1      30.877  -6.083 -21.659  0.00  0.00    +0.087 C 
ATOM     11  C   UNL     1      32.419  -4.983 -23.819  0.00  0.00    +0.001 C 
ATOM     12  C   UNL     1      32.828  -4.838 -22.546  0.00  0.00    +0.001 C 
ATOM     13  C   UNL     1      30.964  -7.584 -23.586  0.00  0.00    +0.247 C 
ATOM     14  C   UNL     1      31.679  -7.332 -21.365  0.00  0.00    +0.247 C 
ENDROOT
BRANCH   3  16
ATOM     15  O   UNL     1      30.367 -10.389 -21.643  0.00  0.00    -0.269 OA
ATOM     16  N   UNL     1      32.218  -9.334 -22.551  0.00  0.00    -0.221 N 
ATOM     17  C   UNL     1      31.507 -10.433 -22.096  0.00  0.00    +0.262 C 
ATOM     18  H   UNL     1      33.131  -9.440 -22.904  0.00  0.00    +0.174 HD
BRANCH  17  19
ATOM     19  C   UNL     1      32.217 -11.738 -22.161  0.00  0.00    +0.055 C 
ATOM     20  C   UNL     1      32.835 -12.137 -23.346  0.00  0.00    +0.005 C 
ATOM     21  C   UNL     1      32.268 -12.561 -21.036  0.00  0.00    +0.005 C 
ATOM     22  C   UNL     1      33.503 -13.359 -23.406  0.00  0.00    +0.004 C 
ATOM     23  C   UNL     1      32.935 -13.785 -21.097  0.00  0.00    +0.004 C 
ATOM     24  C   UNL     1      33.553 -14.183 -22.283  0.00  0.00    +0.071 C 
BRANCH  24  28
ATOM     25  F   UNL     1      34.653 -15.965 -21.125  0.00  0.00    -0.166 F 
ATOM     26  F   UNL     1      33.521 -16.495 -22.899  0.00  0.00    -0.166 F 
ATOM     27  F   UNL     1      35.408 -15.430 -23.094  0.00  0.00    -0.166 F 
ATOM     28  C   UNL     1      34.267 -15.492 -22.347  0.00  0.00    +0.419 C 
ENDBRANCH  24  28
ENDBRANCH  17  19
ENDBRANCH   3  16
TORSDOF 3
ENDMDL
MODEL 5
REMARK VINA RESULT:     -11.0      1.525      2.161
REMARK  Name = 16124688
REMARK  3 active torsions:
REMARK  status: ('A' for Active; 'I' for Inactive)
REMARK    1  A    between atoms: N_3  and  N_16
REMARK    2  A    between atoms: C_17  and  C_19
REMARK    3  A    between atoms: C_24  and  C_28
REMARK                            x       y       z     vdW  Elec       q    Type
REMARK                         _______ _______ _______ _____ _____    ______ ____
ROOT
ATOM      1  O   UNL     1      31.199  -8.469 -24.537  0.00  0.00    -0.273 OA
ATOM      2  O   UNL     1      32.201  -8.045 -20.025  0.00  0.00    -0.273 OA
ATOM      3  N   UNL     1      31.789  -8.551 -22.273  0.00  0.00    -0.154 N 
ATOM      4  C   UNL     1      30.425  -4.253 -23.157  0.00  0.00    +0.000 C 
ATOM      5  C   UNL     1      30.750  -4.114 -21.679  0.00  0.00    +0.000 C 
ATOM      6  C   UNL     1      31.086  -2.997 -22.639  0.00  0.00    +0.000 C 
ATOM      7  C   UNL     1      31.167  -5.459 -23.757  0.00  0.00    +0.009 C 
ATOM      8  C   UNL     1      31.723  -5.222 -21.239  0.00  0.00    +0.009 C 
ATOM      9  C   UNL     1      30.600  -6.696 -22.991  0.00  0.00    +0.087 C 
ATOM     10  C   UNL     1      30.939  -6.552 -21.465  0.00  0.00    +0.087 C 
ATOM     11  C   UNL     1      32.660  -5.395 -23.453  0.00  0.00    +0.001 C 
ATOM     12  C   UNL     1      32.948  -5.271 -22.145  0.00  0.00    +0.001 C 
ATOM     13  C   UNL     1      31.218  -8.014 -23.403  0.00  0.00    +0.247 C 
ATOM     14  C   UNL     1      31.724  -7.799 -21.122  0.00  0.00    +0.247 C 
ENDROOT
BRANCH   3  16
ATOM     15  O   UNL     1      30.437 -10.880 -21.726  0.00  0.00    -0.269 OA
ATOM     16  N   UNL     1      32.391  -9.772 -22.292  0.00  0.00    -0.221 N 
ATOM     17  C   UNL     1      31.633 -10.895 -22.003  0.00  0.00    +0.262 C 
ATOM     18  H   UNL     1      33.348  -9.856 -22.506  0.00  0.00    +0.174 HD
BRANCH  17  19
ATOM     19  C   UNL     1      32.360 -12.192 -22.021  0.00  0.00    +0.055 C 
ATOM     20  C   UNL     1      32.578 -12.886 -20.831  0.00  0.00    +0.005 C 
ATOM     21  C   UNL     1      32.823 -12.716 -23.228  0.00  0.00    +0.005 C 
ATOM     22  C   UNL     1      33.258 -14.103 -20.848  0.00  0.00    +0.004 C 
ATOM     23  C   UNL     1      33.504 -13.933 -23.244  0.00  0.00    +0.004 C 
ATOM     24  C   UNL     1      33.721 -14.627 -22.054  0.00  0.00    +0.071 C 
BRANCH  24  28
ATOM     25  F   UNL     1      33.748 -16.939 -22.666  0.00  0.00    -0.166 F 
ATOM     26  F   UNL     1      35.640 -15.880 -22.740  0.00  0.00    -0.166 F 
ATOM     27  F   UNL     1      34.750 -16.379 -20.819  0.00  0.00    -0.166 F 
ATOM     28  C   UNL     1      34.449 -15.929 -22.072  0.00  0.00    +0.419 C 
ENDBRANCH  24  28
ENDBRANCH  17  19
ENDBRANCH   3  16
TORSDOF 3
ENDMDL
MODEL 6
REMARK VINA RESULT:     -10.7      1.292      2.728
REMARK  Name = 16124688
REMARK  3 active torsions:
REMARK  status: ('A' for Active; 'I' for Inactive)
REMARK    1  A    between atoms: N_3  and  N_16
REMARK    2  A    between atoms: C_17  and  C_19
REMARK    3  A    between atoms: C_24  and  C_28
REMARK                            x       y       z     vdW  Elec       q    Type
REMARK                         _______ _______ _______ _____ _____    ______ ____
ROOT
ATOM      1  O   UNL     1      30.150  -9.524 -22.515  0.00  0.00    -0.273 OA
ATOM      2  O   UNL     1      34.510  -8.204 -23.409  0.00  0.00    -0.273 OA
ATOM      3  N   UNL     1      32.416  -9.159 -22.977  0.00  0.00    -0.154 N 
ATOM      4  C   UNL     1      30.407  -5.033 -22.740  0.00  0.00    +0.000 C 
ATOM      5  C   UNL     1      31.834  -4.600 -23.031  0.00  0.00    +0.000 C 
ATOM      6  C   UNL     1      30.675  -3.870 -23.667  0.00  0.00    +0.000 C 
ATOM      7  C   UNL     1      30.187  -6.487 -23.188  0.00  0.00    +0.009 C 
ATOM      8  C   UNL     1      32.619  -5.750 -23.685  0.00  0.00    +0.009 C 
ATOM      9  C   UNL     1      31.164  -7.327 -22.307  0.00  0.00    +0.087 C 
ATOM     10  C   UNL     1      32.638  -6.880 -22.609  0.00  0.00    +0.087 C 
ATOM     11  C   UNL     1      30.614  -6.688 -24.638  0.00  0.00    +0.001 C 
ATOM     12  C   UNL     1      31.877  -6.305 -24.896  0.00  0.00    +0.001 C 
ATOM     13  C   UNL     1      31.140  -8.811 -22.600  0.00  0.00    +0.247 C 
ATOM     14  C   UNL     1      33.344  -8.144 -23.051  0.00  0.00    +0.247 C 
ENDROOT
BRANCH   3  16
ATOM     15  O   UNL     1      32.271 -11.175 -21.115  0.00  0.00    -0.269 OA
ATOM     16  N   UNL     1      32.748 -10.448 -23.262  0.00  0.00    -0.221 N 
ATOM     17  C   UNL     1      32.646 -11.401 -22.263  0.00  0.00    +0.262 C 
ATOM     18  H   UNL     1      33.056 -10.698 -24.163  0.00  0.00    +0.174 HD
BRANCH  17  19
ATOM     19  C   UNL     1      33.044 -12.783 -22.640  0.00  0.00    +0.055 C 
ATOM     20  C   UNL     1      32.756 -13.267 -23.916  0.00  0.00    +0.005 C 
ATOM     21  C   UNL     1      33.708 -13.594 -21.720  0.00  0.00    +0.005 C 
ATOM     22  C   UNL     1      33.131 -14.563 -24.271  0.00  0.00    +0.004 C 
ATOM     23  C   UNL     1      34.082 -14.890 -22.074  0.00  0.00    +0.004 C 
ATOM     24  C   UNL     1      33.794 -15.374 -23.350  0.00  0.00    +0.071 C 
BRANCH  24  28
ATOM     25  F   UNL     1      35.260 -17.235 -23.019  0.00  0.00    -0.166 F 
ATOM     26  F   UNL     1      33.205 -17.684 -23.551  0.00  0.00    -0.166 F 
ATOM     27  F   UNL     1      34.556 -16.860 -25.043  0.00  0.00    -0.166 F 
ATOM     28  C   UNL     1      34.196 -16.760 -23.730  0.00  0.00    +0.419 C 
ENDBRANCH  24  28
ENDBRANCH  17  19
ENDBRANCH   3  16
TORSDOF 3
ENDMDL
MODEL 7
REMARK VINA RESULT:     -10.3     14.328     16.643
REMARK  Name = 16124688
REMARK  3 active torsions:
REMARK  status: ('A' for Active; 'I' for Inactive)
REMARK    1  A    between atoms: N_3  and  N_16
REMARK    2  A    between atoms: C_17  and  C_19
REMARK    3  A    between atoms: C_24  and  C_28
REMARK                            x       y       z     vdW  Elec       q    Type
REMARK                         _______ _______ _______ _____ _____    ______ ____
ROOT
ATOM      1  O   UNL     1      36.092 -22.583 -16.473  0.00  0.00    -0.273 OA
ATOM      2  O   UNL     1      35.291 -23.182 -11.940  0.00  0.00    -0.273 OA
ATOM      3  N   UNL     1      35.407 -22.772 -14.242  0.00  0.00    -0.154 N 
ATOM      4  C   UNL     1      39.688 -24.425 -14.483  0.00  0.00    +0.000 C 
ATOM      5  C   UNL     1      39.428 -24.620 -12.999  0.00  0.00    +0.000 C 
ATOM      6  C   UNL     1      40.193 -25.662 -13.779  0.00  0.00    +0.000 C 
ATOM      7  C   UNL     1      38.359 -24.326 -15.252  0.00  0.00    +0.009 C 
ATOM      8  C   UNL     1      37.915 -24.659 -12.722  0.00  0.00    +0.009 C 
ATOM      9  C   UNL     1      37.666 -23.048 -14.684  0.00  0.00    +0.087 C 
ATOM     10  C   UNL     1      37.396 -23.251 -13.151  0.00  0.00    +0.087 C 
ATOM     11  C   UNL     1      37.448 -25.506 -14.931  0.00  0.00    +0.001 C 
ATOM     12  C   UNL     1      37.217 -25.678 -13.616  0.00  0.00    +0.001 C 
ATOM     13  C   UNL     1      36.306 -22.765 -15.284  0.00  0.00    +0.247 C 
ATOM     14  C   UNL     1      35.901 -23.068 -12.993  0.00  0.00    +0.247 C 
ENDROOT
BRANCH   3  16
ATOM     15  O   UNL     1      33.528 -24.733 -14.657  0.00  0.00    -0.269 OA
ATOM     16  N   UNL     1      34.089 -22.496 -14.439  0.00  0.00    -0.221 N 
ATOM     17  C   UNL     1      33.209 -23.548 -14.641  0.00  0.00    +0.262 C 
ATOM     18  H   UNL     1      33.765 -21.567 -14.438  0.00  0.00    +0.174 HD
BRANCH  17  19
ATOM     19  C   UNL     1      31.789 -23.172 -14.869  0.00  0.00    +0.055 C 
ATOM     20  C   UNL     1      31.360 -22.813 -16.147  0.00  0.00    +0.005 C 
ATOM     21  C   UNL     1      30.885 -23.180 -13.807  0.00  0.00    +0.005 C 
ATOM     22  C   UNL     1      30.028 -22.462 -16.362  0.00  0.00    +0.004 C 
ATOM     23  C   UNL     1      29.553 -22.828 -14.022  0.00  0.00    +0.004 C 
ATOM     24  C   UNL     1      29.124 -22.469 -15.300  0.00  0.00    +0.071 C 
BRANCH  24  28
ATOM     25  F   UNL     1      27.152 -21.367 -14.511  0.00  0.00    -0.166 F 
ATOM     26  F   UNL     1      27.507 -21.338 -16.652  0.00  0.00    -0.166 F 
ATOM     27  F   UNL     1      26.888 -23.183 -15.680  0.00  0.00    -0.166 F 
ATOM     28  C   UNL     1      27.699 -22.095 -15.530  0.00  0.00    +0.419 C 
ENDBRANCH  24  28
ENDBRANCH  17  19
ENDBRANCH   3  16
TORSDOF 3
ENDMDL
MODEL 8
REMARK VINA RESULT:     -10.3      9.931     14.883
REMARK  Name = 16124688
REMARK  3 active torsions:
REMARK  status: ('A' for Active; 'I' for Inactive)
REMARK    1  A    between atoms: N_3  and  N_16
REMARK    2  A    between atoms: C_17  and  C_19
REMARK    3  A    between atoms: C_24  and  C_28
REMARK                            x       y       z     vdW  Elec       q    Type
REMARK                         _______ _______ _______ _____ _____    ______ ____
ROOT
ATOM      1  O   UNL     1      33.537 -22.516 -14.973  0.00  0.00    -0.273 OA
ATOM      2  O   UNL     1      38.050 -23.139 -15.869  0.00  0.00    -0.273 OA
ATOM      3  N   UNL     1      35.763 -22.672 -15.685  0.00  0.00    -0.154 N 
ATOM      4  C   UNL     1      35.506 -24.747 -11.593  0.00  0.00    +0.000 C 
ATOM      5  C   UNL     1      36.983 -24.953 -11.886  0.00  0.00    +0.000 C 
ATOM      6  C   UNL     1      36.525 -24.631 -10.484  0.00  0.00    +0.000 C 
ATOM      7  C   UNL     1      34.957 -23.569 -12.414  0.00  0.00    +0.009 C 
ATOM      8  C   UNL     1      37.474 -23.919 -12.914  0.00  0.00    +0.009 C 
ATOM      9  C   UNL     1      35.125 -24.009 -13.903  0.00  0.00    +0.087 C 
ATOM     10  C   UNL     1      36.650 -24.221 -14.205  0.00  0.00    +0.087 C 
ATOM     11  C   UNL     1      35.808 -22.319 -12.223  0.00  0.00    +0.001 C 
ATOM     12  C   UNL     1      37.116 -22.501 -12.482  0.00  0.00    +0.001 C 
ATOM     13  C   UNL     1      34.669 -22.975 -14.908  0.00  0.00    +0.247 C 
ATOM     14  C   UNL     1      36.949 -23.290 -15.361  0.00  0.00    +0.247 C 
ENDROOT
BRANCH   3  16
ATOM     15  O   UNL     1      34.032 -23.044 -17.786  0.00  0.00    -0.269 OA
ATOM     16  N   UNL     1      35.676 -21.802 -16.728  0.00  0.00    -0.221 N 
ATOM     17  C   UNL     1      34.775 -22.067 -17.747  0.00  0.00    +0.262 C 
ATOM     18  H   UNL     1      36.243 -20.999 -16.759  0.00  0.00    +0.174 HD
BRANCH  17  19
ATOM     19  C   UNL     1      34.749 -21.086 -18.863  0.00  0.00    +0.055 C 
ATOM     20  C   UNL     1      33.535 -20.733 -19.452  0.00  0.00    +0.005 C 
ATOM     21  C   UNL     1      35.937 -20.516 -19.320  0.00  0.00    +0.005 C 
ATOM     22  C   UNL     1      33.510 -19.811 -20.498  0.00  0.00    +0.004 C 
ATOM     23  C   UNL     1      35.912 -19.595 -20.367  0.00  0.00    +0.004 C 
ATOM     24  C   UNL     1      34.698 -19.242 -20.956  0.00  0.00    +0.071 C 
BRANCH  24  28
ATOM     25  F   UNL     1      33.659 -18.466 -22.966  0.00  0.00    -0.166 F 
ATOM     26  F   UNL     1      34.519 -16.963 -21.659  0.00  0.00    -0.166 F 
ATOM     27  F   UNL     1      35.820 -18.270 -22.813  0.00  0.00    -0.166 F 
ATOM     28  C   UNL     1      34.671 -18.256 -22.074  0.00  0.00    +0.419 C 
ENDBRANCH  24  28
ENDBRANCH  17  19
ENDBRANCH   3  16
TORSDOF 3
ENDMDL
MODEL 9
REMARK VINA RESULT:     -10.1      1.231      1.993
REMARK  Name = 16124688
REMARK  3 active torsions:
REMARK  status: ('A' for Active; 'I' for Inactive)
REMARK    1  A    between atoms: N_3  and  N_16
REMARK    2  A    between atoms: C_17  and  C_19
REMARK    3  A    between atoms: C_24  and  C_28
REMARK                            x       y       z     vdW  Elec       q    Type
REMARK                         _______ _______ _______ _____ _____    ______ ____
ROOT
ATOM      1  O   UNL     1      31.591  -9.925 -24.018  0.00  0.00    -0.273 OA
ATOM      2  O   UNL     1      31.557  -9.693 -19.382  0.00  0.00    -0.273 OA
ATOM      3  N   UNL     1      31.623 -10.112 -21.684  0.00  0.00    -0.154 N 
ATOM      4  C   UNL     1      31.027  -5.664 -22.673  0.00  0.00    +0.000 C 
ATOM      5  C   UNL     1      31.014  -5.587 -21.155  0.00  0.00    +0.000 C 
ATOM      6  C   UNL     1      31.695  -4.509 -21.964  0.00  0.00    +0.000 C 
ATOM      7  C   UNL     1      31.738  -6.946 -23.138  0.00  0.00    +0.009 C 
ATOM      8  C   UNL     1      31.717  -6.815 -20.551  0.00  0.00    +0.009 C 
ATOM      9  C   UNL     1      30.865  -8.112 -22.576  0.00  0.00    +0.087 C 
ATOM     10  C   UNL     1      30.853  -8.032 -21.008  0.00  0.00    +0.087 C 
ATOM     11  C   UNL     1      33.116  -7.075 -22.498  0.00  0.00    +0.001 C 
ATOM     12  C   UNL     1      33.105  -7.007 -21.154  0.00  0.00    +0.001 C 
ATOM     13  C   UNL     1      31.399  -9.491 -22.891  0.00  0.00    +0.247 C 
ATOM     14  C   UNL     1      31.382  -9.374 -20.548  0.00  0.00    +0.247 C 
ENDROOT
BRANCH   3  16
ATOM     15  O   UNL     1      33.876 -10.982 -22.995  0.00  0.00    -0.269 OA
ATOM     16  N   UNL     1      32.062 -11.399 -21.616  0.00  0.00    -0.221 N 
ATOM     17  C   UNL     1      33.208 -11.752 -22.309  0.00  0.00    +0.262 C 
ATOM     18  H   UNL     1      31.573 -12.068 -21.084  0.00  0.00    +0.174 HD
BRANCH  17  19
ATOM     19  C   UNL     1      33.617 -13.178 -22.207  0.00  0.00    +0.055 C 
ATOM     20  C   UNL     1      33.920 -13.900 -23.361  0.00  0.00    +0.005 C 
ATOM     21  C   UNL     1      33.698 -13.792 -20.957  0.00  0.00    +0.005 C 
ATOM     22  C   UNL     1      34.305 -15.237 -23.265  0.00  0.00    +0.004 C 
ATOM     23  C   UNL     1      34.082 -15.130 -20.862  0.00  0.00    +0.004 C 
ATOM     24  C   UNL     1      34.386 -15.852 -22.016  0.00  0.00    +0.071 C 
BRANCH  24  28
ATOM     25  F   UNL     1      36.148 -17.470 -21.992  0.00  0.00    -0.166 F 
ATOM     26  F   UNL     1      34.423 -17.876 -20.741  0.00  0.00    -0.166 F 
ATOM     27  F   UNL     1      34.261 -18.055 -22.902  0.00  0.00    -0.166 F 
ATOM     28  C   UNL     1      34.798 -17.282 -21.913  0.00  0.00    +0.419 C 
ENDBRANCH  24  28
ENDBRANCH  17  19
ENDBRANCH   3  16
TORSDOF 3
ENDMDL
