MODEL 1
REMARK VINA RESULT:     -12.2      0.000      0.000
REMARK  Name = 3152
REMARK  6 active torsions:
REMARK  status: ('A' for Active; 'I' for Inactive)
REMARK    1  A    between atoms: C_1  and  C_3
REMARK    2  A    between atoms: C_1  and  C_17
REMARK    3  A    between atoms: C_10  and  O_12
REMARK    4  A    between atoms: C_11  and  O_14
REMARK    5  A    between atoms: N_16  and  C_23
REMARK    6  A    between atoms: C_23  and  C_24
REMARK                            x       y       z     vdW  Elec       q    Type
REMARK                         _______ _______ _______ _____ _____    ______ ____
ROOT
ATOM      1  C   UNL     1      34.596 -19.153 -22.514  0.00  0.00    +0.008 C 
ENDROOT
BRANCH   1   3
ATOM      2  O   UNL     1      32.095 -19.838 -20.965  0.00  0.00    -0.291 OA
ATOM      3  C   UNL     1      34.404 -19.024 -21.016  0.00  0.00    +0.066 C 
ATOM      4  C   UNL     1      35.621 -19.540 -20.214  0.00  0.00    +0.034 C 
ATOM      5  C   UNL     1      33.235 -19.867 -20.536  0.00  0.00    +0.173 C 
ATOM      6  C   UNL     1      35.036 -20.537 -19.264  0.00  0.00    -0.016 C 
ATOM      7  C   UNL     1      33.674 -20.733 -19.454  0.00  0.00    +0.034 C 
ATOM      8  C   UNL     1      35.702 -21.253 -18.281  0.00  0.00    +0.036 C 
ATOM      9  C   UNL     1      32.928 -21.619 -18.701  0.00  0.00    +0.043 C 
ATOM     10  C   UNL     1      34.973 -22.155 -17.500  0.00  0.00    +0.172 C 
ATOM     11  C   UNL     1      33.596 -22.338 -17.709  0.00  0.00    +0.172 C 
BRANCH  10  12
ATOM     12  O   UNL     1      35.618 -22.864 -16.530  0.00  0.00    -0.468 OA
ATOM     13  C   UNL     1      36.633 -22.182 -15.796  0.00  0.00    +0.253 C 
ENDBRANCH  10  12
BRANCH  11  14
ATOM     14  O   UNL     1      32.898 -23.224 -16.943  0.00  0.00    -0.468 OA
ATOM     15  C   UNL     1      31.659 -22.773 -16.400  0.00  0.00    +0.253 C 
ENDBRANCH  11  14
ENDBRANCH   1   3
BRANCH   1  17
ATOM     16  N   UNL     1      33.399 -15.174 -23.692  0.00  0.00    +0.390 N 
ATOM     17  C   UNL     1      34.632 -17.786 -23.191  0.00  0.00    -0.004 C 
ATOM     18  C   UNL     1      33.437 -17.607 -24.135  0.00  0.00    -0.023 C 
ATOM     19  C   UNL     1      34.646 -16.658 -22.155  0.00  0.00    -0.023 C 
ATOM     20  C   UNL     1      33.412 -16.202 -24.740  0.00  0.00    -0.077 C 
ATOM     21  C   UNL     1      34.581 -15.284 -22.826  0.00  0.00    -0.077 C 
ATOM     22  H   UNL     1      32.571 -15.322 -23.114  0.00  0.00    -0.079 HD
BRANCH  16  23
ATOM     23  C   UNL     1      33.323 -13.838 -24.284  0.00  0.00    -0.050 C 
BRANCH  23  24
ATOM     24  C   UNL     1      32.729 -12.834 -23.332  0.00  0.00    -0.043 C 
ATOM     25  C   UNL     1      32.712 -11.491 -23.679  0.00  0.00    -0.006 C 
ATOM     26  C   UNL     1      32.206 -13.267 -22.121  0.00  0.00    -0.006 C 
ATOM     27  C   UNL     1      32.161 -10.561 -22.797  0.00  0.00    -0.000 C 
ATOM     28  C   UNL     1      31.655 -12.337 -21.239  0.00  0.00    -0.000 C 
ATOM     29  C   UNL     1      31.633 -10.984 -21.578  0.00  0.00    -0.000 C 
ENDBRANCH  23  24
ENDBRANCH  16  23
ENDBRANCH   1  17
TORSDOF 6
ENDMDL
MODEL 2
REMARK VINA RESULT:     -12.0      2.258      4.438
REMARK  Name = 3152
REMARK  6 active torsions:
REMARK  status: ('A' for Active; 'I' for Inactive)
REMARK    1  A    between atoms: C_1  and  C_3
REMARK    2  A    between atoms: C_1  and  C_17
REMARK    3  A    between atoms: C_10  and  O_12
REMARK    4  A    between atoms: C_11  and  O_14
REMARK    5  A    between atoms: N_16  and  C_23
REMARK    6  A    between atoms: C_23  and  C_24
REMARK                            x       y       z     vdW  Elec       q    Type
REMARK                         _______ _______ _______ _____ _____    ______ ____
ROOT
ATOM      1  C   UNL     1      34.197 -22.034 -19.050  0.00  0.00    +0.008 C 
ENDROOT
BRANCH   1   3
ATOM      2  O   UNL     1      32.696 -22.663 -16.505  0.00  0.00    -0.291 OA
ATOM      3  C   UNL     1      34.539 -21.538 -17.658  0.00  0.00    +0.066 C 
ATOM      4  C   UNL     1      36.053 -21.620 -17.354  0.00  0.00    +0.034 C 
ATOM      5  C   UNL     1      33.880 -22.394 -16.591  0.00  0.00    +0.173 C 
ATOM      6  C   UNL     1      36.128 -22.403 -16.082  0.00  0.00    -0.016 C 
ATOM      7  C   UNL     1      34.888 -22.856 -15.650  0.00  0.00    +0.034 C 
ATOM      8  C   UNL     1      37.265 -22.713 -15.351  0.00  0.00    +0.036 C 
ATOM      9  C   UNL     1      34.719 -23.614 -14.506  0.00  0.00    +0.043 C 
ATOM     10  C   UNL     1      37.125 -23.475 -14.187  0.00  0.00    +0.172 C 
ATOM     11  C   UNL     1      35.862 -23.923 -13.768  0.00  0.00    +0.172 C 
BRANCH  10  12
ATOM     12  O   UNL     1      38.237 -23.785 -13.460  0.00  0.00    -0.468 OA
ATOM     13  C   UNL     1      39.172 -24.681 -14.057  0.00  0.00    +0.253 C 
ENDBRANCH  10  12
BRANCH  11  14
ATOM     14  O   UNL     1      35.740 -24.669 -12.633  0.00  0.00    -0.468 OA
ATOM     15  C   UNL     1      35.228 -24.009 -11.477  0.00  0.00    +0.253 C 
ENDBRANCH  11  14
ENDBRANCH   1   3
BRANCH   1  17
ATOM     16  N   UNL     1      35.050 -18.297 -21.039  0.00  0.00    +0.390 N 
ATOM     17  C   UNL     1      34.664 -21.054 -20.121  0.00  0.00    -0.004 C 
ATOM     18  C   UNL     1      33.505 -20.181 -20.613  0.00  0.00    -0.023 C 
ATOM     19  C   UNL     1      35.796 -20.164 -19.598  0.00  0.00    -0.023 C 
ATOM     20  C   UNL     1      33.987 -19.129 -21.615  0.00  0.00    -0.077 C 
ATOM     21  C   UNL     1      36.202 -19.113 -20.633  0.00  0.00    -0.077 C 
ATOM     22  H   UNL     1      34.677 -17.842 -20.204  0.00  0.00    -0.079 HD
BRANCH  16  23
ATOM     23  C   UNL     1      35.464 -17.263 -21.988  0.00  0.00    -0.050 C 
BRANCH  23  24
ATOM     24  C   UNL     1      34.643 -16.009 -21.847  0.00  0.00    -0.043 C 
ATOM     25  C   UNL     1      34.217 -15.609 -20.588  0.00  0.00    -0.006 C 
ATOM     26  C   UNL     1      34.324 -15.271 -22.978  0.00  0.00    -0.006 C 
ATOM     27  C   UNL     1      33.457 -14.447 -20.458  0.00  0.00    -0.000 C 
ATOM     28  C   UNL     1      33.564 -14.107 -22.848  0.00  0.00    -0.000 C 
ATOM     29  C   UNL     1      33.131 -13.696 -21.588  0.00  0.00    -0.000 C 
ENDBRANCH  23  24
ENDBRANCH  16  23
ENDBRANCH   1  17
TORSDOF 6
ENDMDL
MODEL 3
REMARK VINA RESULT:     -12.0      4.277      9.768
REMARK  Name = 3152
REMARK  6 active torsions:
REMARK  status: ('A' for Active; 'I' for Inactive)
REMARK    1  A    between atoms: C_1  and  C_3
REMARK    2  A    between atoms: C_1  and  C_17
REMARK    3  A    between atoms: C_10  and  O_12
REMARK    4  A    between atoms: C_11  and  O_14
REMARK    5  A    between atoms: N_16  and  C_23
REMARK    6  A    between atoms: C_23  and  C_24
REMARK                            x       y       z     vdW  Elec       q    Type
REMARK                         _______ _______ _______ _____ _____    ______ ____
ROOT
ATOM      1  C   UNL     1      33.440 -14.905 -23.834  0.00  0.00    +0.008 C 
ENDROOT
BRANCH   1   3
ATOM      2  O   UNL     1      33.558 -12.120 -24.997  0.00  0.00    -0.291 OA
ATOM      3  C   UNL     1      33.800 -13.634 -23.088  0.00  0.00    +0.066 C 
ATOM      4  C   UNL     1      33.122 -13.546 -21.702  0.00  0.00    +0.034 C 
ATOM      5  C   UNL     1      33.321 -12.403 -23.836  0.00  0.00    +0.173 C 
ATOM      6  C   UNL     1      32.418 -12.226 -21.723  0.00  0.00    -0.016 C 
ATOM      7  C   UNL     1      32.522 -11.576 -22.945  0.00  0.00    +0.034 C 
ATOM      8  C   UNL     1      31.699 -11.641 -20.692  0.00  0.00    +0.036 C 
ATOM      9  C   UNL     1      31.937 -10.350 -23.199  0.00  0.00    +0.043 C 
ATOM     10  C   UNL     1      31.098 -10.398 -20.918  0.00  0.00    +0.172 C 
ATOM     11  C   UNL     1      31.215  -9.758 -22.162  0.00  0.00    +0.172 C 
BRANCH  10  12
ATOM     12  O   UNL     1      30.388  -9.813 -19.910  0.00  0.00    -0.468 OA
ATOM     13  C   UNL     1      31.133  -9.300 -18.808  0.00  0.00    +0.253 C 
ENDBRANCH  10  12
BRANCH  11  14
ATOM     14  O   UNL     1      30.621  -8.548 -22.370  0.00  0.00    -0.468 OA
ATOM     15  C   UNL     1      31.456  -7.395 -22.291  0.00  0.00    +0.253 C 
ENDBRANCH  11  14
ENDBRANCH   1   3
BRANCH   1  17
ATOM     16  N   UNL     1      34.534 -18.466 -21.649  0.00  0.00    +0.390 N 
ATOM     17  C   UNL     1      34.266 -16.091 -23.346  0.00  0.00    -0.004 C 
ATOM     18  C   UNL     1      34.525 -15.999 -21.838  0.00  0.00    -0.023 C 
ATOM     19  C   UNL     1      33.572 -17.418 -23.672  0.00  0.00    -0.023 C 
ATOM     20  C   UNL     1      35.267 -17.236 -21.326  0.00  0.00    -0.077 C 
ATOM     21  C   UNL     1      34.346 -18.607 -23.099  0.00  0.00    -0.077 C 
ATOM     22  H   UNL     1      33.611 -18.406 -21.216  0.00  0.00    -0.079 HD
BRANCH  16  23
ATOM     23  C   UNL     1      35.228 -19.634 -21.107  0.00  0.00    -0.050 C 
BRANCH  23  24
ATOM     24  C   UNL     1      34.375 -20.389 -20.122  0.00  0.00    -0.043 C 
ATOM     25  C   UNL     1      33.003 -20.182 -20.107  0.00  0.00    -0.006 C 
ATOM     26  C   UNL     1      34.973 -21.281 -19.243  0.00  0.00    -0.006 C 
ATOM     27  C   UNL     1      32.213 -20.881 -19.195  0.00  0.00    -0.000 C 
ATOM     28  C   UNL     1      34.182 -21.982 -18.331  0.00  0.00    -0.000 C 
ATOM     29  C   UNL     1      32.803 -21.781 -18.307  0.00  0.00    -0.000 C 
ENDBRANCH  23  24
ENDBRANCH  16  23
ENDBRANCH   1  17
TORSDOF 6
ENDMDL
MODEL 4
REMARK VINA RESULT:     -12.0      2.020      4.025
REMARK  Name = 3152
REMARK  6 active torsions:
REMARK  status: ('A' for Active; 'I' for Inactive)
REMARK    1  A    between atoms: C_1  and  C_3
REMARK    2  A    between atoms: C_1  and  C_17
REMARK    3  A    between atoms: C_10  and  O_12
REMARK    4  A    between atoms: C_11  and  O_14
REMARK    5  A    between atoms: N_16  and  C_23
REMARK    6  A    between atoms: C_23  and  C_24
REMARK                            x       y       z     vdW  Elec       q    Type
REMARK                         _______ _______ _______ _____ _____    ______ ____
ROOT
ATOM      1  C   UNL     1      35.883 -20.256 -18.985  0.00  0.00    +0.008 C 
ENDROOT
BRANCH   1   3
ATOM      2  O   UNL     1      36.627 -21.992 -16.627  0.00  0.00    -0.291 OA
ATOM      3  C   UNL     1      35.325 -21.631 -18.669  0.00  0.00    +0.066 C 
ATOM      4  C   UNL     1      33.793 -21.708 -18.856  0.00  0.00    +0.034 C 
ATOM      5  C   UNL     1      35.561 -22.000 -17.215  0.00  0.00    +0.173 C 
ATOM      6  C   UNL     1      33.291 -22.228 -17.546  0.00  0.00    -0.016 C 
ATOM      7  C   UNL     1      34.299 -22.386 -16.603  0.00  0.00    +0.034 C 
ATOM      8  C   UNL     1      31.981 -22.532 -17.208  0.00  0.00    +0.036 C 
ATOM      9  C   UNL     1      34.066 -22.839 -15.318  0.00  0.00    +0.043 C 
ATOM     10  C   UNL     1      31.714 -22.995 -15.916  0.00  0.00    +0.172 C 
ATOM     11  C   UNL     1      32.748 -23.147 -14.977  0.00  0.00    +0.172 C 
BRANCH  10  12
ATOM     12  O   UNL     1      30.429 -23.297 -15.572  0.00  0.00    -0.468 OA
ATOM     13  C   UNL     1      29.400 -22.499 -16.152  0.00  0.00    +0.253 C 
ENDBRANCH  10  12
BRANCH  11  14
ATOM     14  O   UNL     1      32.473 -23.597 -13.720  0.00  0.00    -0.468 OA
ATOM     15  C   UNL     1      33.583 -23.794 -12.847  0.00  0.00    +0.253 C 
ENDBRANCH  11  14
ENDBRANCH   1   3
BRANCH   1  17
ATOM     16  N   UNL     1      34.605 -17.824 -22.317  0.00  0.00    +0.390 N 
ATOM     17  C   UNL     1      35.564 -19.841 -20.417  0.00  0.00    -0.004 C 
ATOM     18  C   UNL     1      34.078 -19.500 -20.575  0.00  0.00    -0.023 C 
ATOM     19  C   UNL     1      36.418 -18.643 -20.847  0.00  0.00    -0.023 C 
ATOM     20  C   UNL     1      33.772 -18.986 -21.984  0.00  0.00    -0.077 C 
ATOM     21  C   UNL     1      36.035 -18.158 -22.246  0.00  0.00    -0.077 C 
ATOM     22  H   UNL     1      34.419 -17.094 -21.629  0.00  0.00    -0.079 HD
BRANCH  16  23
ATOM     23  C   UNL     1      34.265 -17.313 -23.645  0.00  0.00    -0.050 C 
BRANCH  23  24
ATOM     24  C   UNL     1      33.911 -15.850 -23.610  0.00  0.00    -0.043 C 
ATOM     25  C   UNL     1      34.175 -15.110 -22.467  0.00  0.00    -0.006 C 
ATOM     26  C   UNL     1      33.324 -15.263 -24.723  0.00  0.00    -0.006 C 
ATOM     27  C   UNL     1      33.848 -13.754 -22.435  0.00  0.00    -0.000 C 
ATOM     28  C   UNL     1      32.997 -13.907 -24.691  0.00  0.00    -0.000 C 
ATOM     29  C   UNL     1      33.258 -13.153 -23.547  0.00  0.00    -0.000 C 
ENDBRANCH  23  24
ENDBRANCH  16  23
ENDBRANCH   1  17
TORSDOF 6
ENDMDL
MODEL 5
REMARK VINA RESULT:     -11.9      2.428      4.403
REMARK  Name = 3152
REMARK  6 active torsions:
REMARK  status: ('A' for Active; 'I' for Inactive)
REMARK    1  A    between atoms: C_1  and  C_3
REMARK    2  A    between atoms: C_1  and  C_17
REMARK    3  A    between atoms: C_10  and  O_12
REMARK    4  A    between atoms: C_11  and  O_14
REMARK    5  A    between atoms: N_16  and  C_23
REMARK    6  A    between atoms: C_23  and  C_24
REMARK                            x       y       z     vdW  Elec       q    Type
REMARK                         _______ _______ _______ _____ _____    ______ ____
ROOT
ATOM      1  C   UNL     1      33.903 -22.300 -19.190  0.00  0.00    +0.008 C 
ENDROOT
BRANCH   1   3
ATOM      2  O   UNL     1      31.287 -21.999 -17.709  0.00  0.00    -0.291 OA
ATOM      3  C   UNL     1      33.713 -21.687 -17.816  0.00  0.00    +0.066 C 
ATOM      4  C   UNL     1      34.786 -22.153 -16.805  0.00  0.00    +0.034 C 
ATOM      5  C   UNL     1      32.390 -22.109 -17.203  0.00  0.00    +0.173 C 
ATOM      6  C   UNL     1      33.995 -22.685 -15.652  0.00  0.00    -0.016 C 
ATOM      7  C   UNL     1      32.625 -22.670 -15.882  0.00  0.00    +0.034 C 
ATOM      8  C   UNL     1      34.484 -23.178 -14.452  0.00  0.00    +0.036 C 
ATOM      9  C   UNL     1      31.701 -23.129 -14.962  0.00  0.00    +0.043 C 
ATOM     10  C   UNL     1      33.574 -23.647 -13.500  0.00  0.00    +0.172 C 
ATOM     11  C   UNL     1      32.192 -23.623 -13.753  0.00  0.00    +0.172 C 
BRANCH  10  12
ATOM     12  O   UNL     1      34.044 -24.134 -12.316  0.00  0.00    -0.468 OA
ATOM     13  C   UNL     1      34.966 -23.316 -11.601  0.00  0.00    +0.253 C 
ENDBRANCH  10  12
BRANCH  11  14
ATOM     14  O   UNL     1      31.315 -24.086 -12.817  0.00  0.00    -0.468 OA
ATOM     15  C   UNL     1      30.049 -24.542 -13.287  0.00  0.00    +0.253 C 
ENDBRANCH  11  14
ENDBRANCH   1   3
BRANCH   1  17
ATOM     16  N   UNL     1      35.068 -18.503 -20.885  0.00  0.00    +0.390 N 
ATOM     17  C   UNL     1      34.454 -21.282 -20.184  0.00  0.00    -0.004 C 
ATOM     18  C   UNL     1      33.372 -20.281 -20.605  0.00  0.00    -0.023 C 
ATOM     19  C   UNL     1      35.652 -20.531 -19.595  0.00  0.00    -0.023 C 
ATOM     20  C   UNL     1      33.944 -19.198 -21.522  0.00  0.00    -0.077 C 
ATOM     21  C   UNL     1      36.148 -19.440 -20.546  0.00  0.00    -0.077 C 
ATOM     22  H   UNL     1      34.731 -18.085 -20.017  0.00  0.00    -0.079 HD
BRANCH  16  23
ATOM     23  C   UNL     1      35.570 -17.437 -21.752  0.00  0.00    -0.050 C 
BRANCH  23  24
ATOM     24  C   UNL     1      34.717 -16.198 -21.672  0.00  0.00    -0.043 C 
ATOM     25  C   UNL     1      34.243 -15.774 -20.439  0.00  0.00    -0.006 C 
ATOM     26  C   UNL     1      34.417 -15.499 -22.833  0.00  0.00    -0.006 C 
ATOM     27  C   UNL     1      33.454 -14.627 -20.365  0.00  0.00    -0.000 C 
ATOM     28  C   UNL     1      33.628 -14.351 -22.758  0.00  0.00    -0.000 C 
ATOM     29  C   UNL     1      33.146 -13.915 -21.524  0.00  0.00    -0.000 C 
ENDBRANCH  23  24
ENDBRANCH  16  23
ENDBRANCH   1  17
TORSDOF 6
ENDMDL
MODEL 6
REMARK VINA RESULT:     -11.8      1.974      3.530
REMARK  Name = 3152
REMARK  6 active torsions:
REMARK  status: ('A' for Active; 'I' for Inactive)
REMARK    1  A    between atoms: C_1  and  C_3
REMARK    2  A    between atoms: C_1  and  C_17
REMARK    3  A    between atoms: C_10  and  O_12
REMARK    4  A    between atoms: C_11  and  O_14
REMARK    5  A    between atoms: N_16  and  C_23
REMARK    6  A    between atoms: C_23  and  C_24
REMARK                            x       y       z     vdW  Elec       q    Type
REMARK                         _______ _______ _______ _____ _____    ______ ____
ROOT
ATOM      1  C   UNL     1      35.165 -21.530 -19.949  0.00  0.00    +0.008 C 
ENDROOT
BRANCH   1   3
ATOM      2  O   UNL     1      32.978 -22.078 -17.939  0.00  0.00    -0.291 OA
ATOM      3  C   UNL     1      35.093 -20.997 -18.531  0.00  0.00    +0.066 C 
ATOM      4  C   UNL     1      36.451 -21.078 -17.796  0.00  0.00    +0.034 C 
ATOM      5  C   UNL     1      34.140 -21.818 -17.682  0.00  0.00    +0.173 C 
ATOM      6  C   UNL     1      36.141 -21.825 -16.538  0.00  0.00    -0.016 C 
ATOM      7  C   UNL     1      34.822 -22.259 -16.475  0.00  0.00    +0.034 C 
ATOM      8  C   UNL     1      37.010 -22.120 -15.499  0.00  0.00    +0.036 C 
ATOM      9  C   UNL     1      34.316 -22.982 -15.412  0.00  0.00    +0.043 C 
ATOM     10  C   UNL     1      36.526 -22.848 -14.408  0.00  0.00    +0.172 C 
ATOM     11  C   UNL     1      35.189 -23.277 -14.364  0.00  0.00    +0.172 C 
BRANCH  10  12
ATOM     12  O   UNL     1      37.373 -23.143 -13.379  0.00  0.00    -0.468 OA
ATOM     13  C   UNL     1      38.172 -24.316 -13.516  0.00  0.00    +0.253 C 
ENDBRANCH  10  12
BRANCH  11  14
ATOM     14  O   UNL     1      34.731 -23.989 -13.296  0.00  0.00    -0.468 OA
ATOM     15  C   UNL     1      33.342 -23.878 -12.992  0.00  0.00    +0.253 C 
ENDBRANCH  11  14
ENDBRANCH   1   3
BRANCH   1  17
ATOM     16  N   UNL     1      34.983 -17.568 -21.658  0.00  0.00    +0.390 N 
ATOM     17  C   UNL     1      35.296 -20.399 -20.964  0.00  0.00    -0.004 C 
ATOM     18  C   UNL     1      33.931 -19.774 -21.272  0.00  0.00    -0.023 C 
ATOM     19  C   UNL     1      36.260 -19.318 -20.463  0.00  0.00    -0.023 C 
ATOM     20  C   UNL     1      34.069 -18.574 -22.212  0.00  0.00    -0.077 C 
ATOM     21  C   UNL     1      36.320 -18.134 -21.430  0.00  0.00    -0.077 C 
ATOM     22  H   UNL     1      34.612 -17.266 -20.756  0.00  0.00    -0.079 HD
BRANCH  16  23
ATOM     23  C   UNL     1      35.064 -16.405 -22.542  0.00  0.00    -0.050 C 
BRANCH  23  24
ATOM     24  C   UNL     1      34.220 -15.261 -22.045  0.00  0.00    -0.043 C 
ATOM     25  C   UNL     1      33.964 -15.141 -20.687  0.00  0.00    -0.006 C 
ATOM     26  C   UNL     1      33.710 -14.344 -22.953  0.00  0.00    -0.006 C 
ATOM     27  C   UNL     1      33.183 -14.081 -20.226  0.00  0.00    -0.000 C 
ATOM     28  C   UNL     1      32.930 -13.283 -22.493  0.00  0.00    -0.000 C 
ATOM     29  C   UNL     1      32.666 -13.152 -21.129  0.00  0.00    -0.000 C 
ENDBRANCH  23  24
ENDBRANCH  16  23
ENDBRANCH   1  17
TORSDOF 6
ENDMDL
MODEL 7
REMARK VINA RESULT:     -11.3      5.067     11.496
REMARK  Name = 3152
REMARK  6 active torsions:
REMARK  status: ('A' for Active; 'I' for Inactive)
REMARK    1  A    between atoms: C_1  and  C_3
REMARK    2  A    between atoms: C_1  and  C_17
REMARK    3  A    between atoms: C_10  and  O_12
REMARK    4  A    between atoms: C_11  and  O_14
REMARK    5  A    between atoms: N_16  and  C_23
REMARK    6  A    between atoms: C_23  and  C_24
REMARK                            x       y       z     vdW  Elec       q    Type
REMARK                         _______ _______ _______ _____ _____    ______ ____
ROOT
ATOM      1  C   UNL     1      32.404 -11.960 -21.761  0.00  0.00    +0.008 C 
ENDROOT
BRANCH   1   3
ATOM      2  O   UNL     1      30.066 -10.050 -21.835  0.00  0.00    -0.291 OA
ATOM      3  C   UNL     1      32.122 -10.926 -22.834  0.00  0.00    +0.066 C 
ATOM      4  C   UNL     1      33.389 -10.149 -23.259  0.00  0.00    +0.034 C 
ATOM      5  C   UNL     1      31.161  -9.862 -22.335  0.00  0.00    +0.173 C 
ATOM      6  C   UNL     1      33.011  -8.712 -23.088  0.00  0.00    -0.016 C 
ATOM      7  C   UNL     1      31.741  -8.546 -22.549  0.00  0.00    +0.034 C 
ATOM      8  C   UNL     1      33.781  -7.599 -23.386  0.00  0.00    +0.036 C 
ATOM      9  C   UNL     1      31.189  -7.306 -22.289  0.00  0.00    +0.043 C 
ATOM     10  C   UNL     1      33.248  -6.330 -23.136  0.00  0.00    +0.172 C 
ATOM     11  C   UNL     1      31.962  -6.185 -22.591  0.00  0.00    +0.172 C 
BRANCH  10  12
ATOM     12  O   UNL     1      33.997  -5.228 -23.427  0.00  0.00    -0.468 OA
ATOM     13  C   UNL     1      34.086  -4.848 -24.798  0.00  0.00    +0.253 C 
ENDBRANCH  10  12
BRANCH  11  14
ATOM     14  O   UNL     1      31.455  -4.942 -22.349  0.00  0.00    -0.468 OA
ATOM     15  C   UNL     1      30.059  -4.854 -22.076  0.00  0.00    +0.253 C 
ENDBRANCH  11  14
ENDBRANCH   1   3
BRANCH   1  17
ATOM     16  N   UNL     1      33.803 -15.865 -22.965  0.00  0.00    +0.390 N 
ATOM     17  C   UNL     1      33.336 -13.054 -22.272  0.00  0.00    -0.004 C 
ATOM     18  C   UNL     1      33.546 -14.139 -21.210  0.00  0.00    -0.023 C 
ATOM     19  C   UNL     1      32.790 -13.687 -23.557  0.00  0.00    -0.023 C 
ATOM     20  C   UNL     1      34.398 -15.290 -21.752  0.00  0.00    -0.077 C 
ATOM     21  C   UNL     1      33.667 -14.852 -24.021  0.00  0.00    -0.077 C 
ATOM     22  H   UNL     1      32.869 -16.201 -22.729  0.00  0.00    -0.079 HD
BRANCH  16  23
ATOM     23  C   UNL     1      34.600 -16.995 -23.440  0.00  0.00    -0.050 C 
BRANCH  23  24
ATOM     24  C   UNL     1      34.888 -17.982 -22.341  0.00  0.00    -0.043 C 
ATOM     25  C   UNL     1      36.145 -18.002 -21.753  0.00  0.00    -0.006 C 
ATOM     26  C   UNL     1      33.892 -18.858 -21.931  0.00  0.00    -0.006 C 
ATOM     27  C   UNL     1      36.411 -18.916 -20.733  0.00  0.00    -0.000 C 
ATOM     28  C   UNL     1      34.159 -19.772 -20.911  0.00  0.00    -0.000 C 
ATOM     29  C   UNL     1      35.418 -19.801 -20.312  0.00  0.00    -0.000 C 
ENDBRANCH  23  24
ENDBRANCH  16  23
ENDBRANCH   1  17
TORSDOF 6
ENDMDL
MODEL 8
REMARK VINA RESULT:     -10.9      3.498      6.919
REMARK  Name = 3152
REMARK  6 active torsions:
REMARK  status: ('A' for Active; 'I' for Inactive)
REMARK    1  A    between atoms: C_1  and  C_3
REMARK    2  A    between atoms: C_1  and  C_17
REMARK    3  A    between atoms: C_10  and  O_12
REMARK    4  A    between atoms: C_11  and  O_14
REMARK    5  A    between atoms: N_16  and  C_23
REMARK    6  A    between atoms: C_23  and  C_24
REMARK                            x       y       z     vdW  Elec       q    Type
REMARK                         _______ _______ _______ _____ _____    ______ ____
ROOT
ATOM      1  C   UNL     1      32.129 -12.666 -22.569  0.00  0.00    +0.008 C 
ENDROOT
BRANCH   1   3
ATOM      2  O   UNL     1      33.904 -13.636 -20.326  0.00  0.00    -0.291 OA
ATOM      3  C   UNL     1      33.477 -13.345 -22.719  0.00  0.00    +0.066 C 
ATOM      4  C   UNL     1      33.481 -14.418 -23.832  0.00  0.00    +0.034 C 
ATOM      5  C   UNL     1      33.860 -14.093 -21.454  0.00  0.00    +0.173 C 
ATOM      6  C   UNL     1      33.981 -15.651 -23.148  0.00  0.00    -0.016 C 
ATOM      7  C   UNL     1      34.188 -15.470 -21.787  0.00  0.00    +0.034 C 
ATOM      8  C   UNL     1      34.223 -16.890 -23.721  0.00  0.00    +0.036 C 
ATOM      9  C   UNL     1      34.633 -16.477 -20.952  0.00  0.00    +0.043 C 
ATOM     10  C   UNL     1      34.677 -17.929 -22.902  0.00  0.00    +0.172 C 
ATOM     11  C   UNL     1      34.880 -17.724 -21.527  0.00  0.00    +0.172 C 
BRANCH  10  12
ATOM     12  O   UNL     1      34.919 -19.152 -23.455  0.00  0.00    -0.468 OA
ATOM     13  C   UNL     1      34.007 -19.602 -24.454  0.00  0.00    +0.253 C 
ENDBRANCH  10  12
BRANCH  11  14
ATOM     14  O   UNL     1      35.320 -18.746 -20.739  0.00  0.00    -0.468 OA
ATOM     15  C   UNL     1      34.379 -19.770 -20.422  0.00  0.00    +0.253 C 
ENDBRANCH  11  14
ENDBRANCH   1   3
BRANCH   1  17
ATOM     16  N   UNL     1      31.369  -8.427 -22.250  0.00  0.00    +0.390 N 
ATOM     17  C   UNL     1      32.283 -11.210 -22.140  0.00  0.00    -0.004 C 
ATOM     18  C   UNL     1      32.546 -10.305 -23.349  0.00  0.00    -0.023 C 
ATOM     19  C   UNL     1      31.038 -10.723 -21.390  0.00  0.00    -0.023 C 
ATOM     20  C   UNL     1      32.601  -8.831 -22.938  0.00  0.00    -0.077 C 
ATOM     21  C   UNL     1      31.144  -9.236 -21.044  0.00  0.00    -0.077 C 
ATOM     22  H   UNL     1      30.586  -8.585 -22.885  0.00  0.00    -0.079 HD
BRANCH  16  23
ATOM     23  C   UNL     1      31.414  -7.005 -21.910  0.00  0.00    -0.050 C 
BRANCH  23  24
ATOM     24  C   UNL     1      31.907  -6.167 -23.060  0.00  0.00    -0.043 C 
ATOM     25  C   UNL     1      33.167  -5.590 -22.995  0.00  0.00    -0.006 C 
ATOM     26  C   UNL     1      31.094  -5.985 -24.171  0.00  0.00    -0.006 C 
ATOM     27  C   UNL     1      33.623  -4.815 -24.061  0.00  0.00    -0.000 C 
ATOM     28  C   UNL     1      31.551  -5.211 -25.237  0.00  0.00    -0.000 C 
ATOM     29  C   UNL     1      32.815  -4.625 -25.182  0.00  0.00    -0.000 C 
ENDBRANCH  23  24
ENDBRANCH  16  23
ENDBRANCH   1  17
TORSDOF 6
ENDMDL
MODEL 9
REMARK VINA RESULT:     -10.8      4.490     10.944
REMARK  Name = 3152
REMARK  6 active torsions:
REMARK  status: ('A' for Active; 'I' for Inactive)
REMARK    1  A    between atoms: C_1  and  C_3
REMARK    2  A    between atoms: C_1  and  C_17
REMARK    3  A    between atoms: C_10  and  O_12
REMARK    4  A    between atoms: C_11  and  O_14
REMARK    5  A    between atoms: N_16  and  C_23
REMARK    6  A    between atoms: C_23  and  C_24
REMARK                            x       y       z     vdW  Elec       q    Type
REMARK                         _______ _______ _______ _____ _____    ______ ____
ROOT
ATOM      1  C   UNL     1      33.517 -12.747 -21.493  0.00  0.00    +0.008 C 
ENDROOT
BRANCH   1   3
ATOM      2  O   UNL     1      31.555 -11.248 -19.753  0.00  0.00    -0.291 OA
ATOM      3  C   UNL     1      32.259 -12.040 -21.960  0.00  0.00    +0.066 C 
ATOM      4  C   UNL     1      32.485 -11.215 -23.248  0.00  0.00    +0.034 C 
ATOM      5  C   UNL     1      31.780 -11.032 -20.930  0.00  0.00    +0.173 C 
ATOM      6  C   UNL     1      32.004  -9.844 -22.893  0.00  0.00    -0.016 C 
ATOM      7  C   UNL     1      31.611  -9.734 -21.565  0.00  0.00    +0.034 C 
ATOM      8  C   UNL     1      31.939  -8.734 -23.721  0.00  0.00    +0.036 C 
ATOM      9  C   UNL     1      31.146  -8.557 -21.011  0.00  0.00    +0.043 C 
ATOM     10  C   UNL     1      31.470  -7.529 -23.190  0.00  0.00    +0.172 C 
ATOM     11  C   UNL     1      31.077  -7.440 -21.844  0.00  0.00    +0.172 C 
BRANCH  10  12
ATOM     12  O   UNL     1      31.401  -6.431 -23.997  0.00  0.00    -0.468 OA
ATOM     13  C   UNL     1      31.185  -6.662 -25.387  0.00  0.00    +0.253 C 
ENDBRANCH  10  12
BRANCH  11  14
ATOM     14  O   UNL     1      30.625  -6.257 -21.338  0.00  0.00    -0.468 OA
ATOM     15  C   UNL     1      31.539  -5.501 -20.546  0.00  0.00    +0.253 C 
ENDBRANCH  11  14
ENDBRANCH   1   3
BRANCH   1  17
ATOM     16  N   UNL     1      34.927 -16.715 -22.451  0.00  0.00    +0.390 N 
ATOM     17  C   UNL     1      33.493 -14.227 -21.859  0.00  0.00    -0.004 C 
ATOM     18  C   UNL     1      34.191 -14.476 -23.201  0.00  0.00    -0.023 C 
ATOM     19  C   UNL     1      34.154 -15.076 -20.767  0.00  0.00    -0.023 C 
ATOM     20  C   UNL     1      34.259 -15.970 -23.524  0.00  0.00    -0.077 C 
ATOM     21  C   UNL     1      34.223 -16.550 -21.172  0.00  0.00    -0.077 C 
ATOM     22  H   UNL     1      35.869 -16.337 -22.342  0.00  0.00    -0.079 HD
BRANCH  16  23
ATOM     23  C   UNL     1      35.030 -18.133 -22.798  0.00  0.00    -0.050 C 
BRANCH  23  24
ATOM     24  C   UNL     1      34.840 -19.021 -21.597  0.00  0.00    -0.043 C 
ATOM     25  C   UNL     1      33.566 -19.459 -21.266  0.00  0.00    -0.006 C 
ATOM     26  C   UNL     1      35.943 -19.388 -20.838  0.00  0.00    -0.006 C 
ATOM     27  C   UNL     1      33.391 -20.282 -20.154  0.00  0.00    -0.000 C 
ATOM     28  C   UNL     1      35.767 -20.212 -19.725  0.00  0.00    -0.000 C 
ATOM     29  C   UNL     1      34.491 -20.659 -19.384  0.00  0.00    -0.000 C 
ENDBRANCH  23  24
ENDBRANCH  16  23
ENDBRANCH   1  17
TORSDOF 6
ENDMDL
