MODEL 1
REMARK VINA RESULT:     -12.0      0.000      0.000
REMARK  Name = 24864078
REMARK  4 active torsions:
REMARK  status: ('A' for Active; 'I' for Inactive)
REMARK    1  A    between atoms: C_3  and  C_9
REMARK    2  A    between atoms: C_4  and  N_19
REMARK    3  A    between atoms: N_8  and  C_12
REMARK    4  A    between atoms: C_20  and  C_22
REMARK                            x       y       z     vdW  Elec       q    Type
REMARK                         _______ _______ _______ _____ _____    ______ ____
ROOT
ATOM      1  N   UNL     1      38.001 -22.720 -15.775  0.00  0.00    -0.230 N 
ATOM      2  N   UNL     1      38.089 -23.661 -14.819  0.00  0.00    -0.178 NA
ATOM      3  C   UNL     1      36.733 -22.266 -15.986  0.00  0.00    +0.134 C 
ATOM      4  C   UNL     1      35.935 -22.958 -15.107  0.00  0.00    +0.091 C 
ATOM      5  C   UNL     1      36.825 -23.801 -14.414  0.00  0.00    +0.134 C 
ATOM      6  H   UNL     1      38.781 -22.390 -16.277  0.00  0.00    +0.175 HD
ENDROOT
BRANCH   3   9
ATOM      7  O   UNL     1      36.867 -20.114 -16.857  0.00  0.00    -0.268 OA
ATOM      8  N   UNL     1      35.518 -21.663 -17.990  0.00  0.00    -0.279 N 
ATOM      9  C   UNL     1      36.387 -21.269 -16.948  0.00  0.00    +0.266 C 
ATOM     10  H   UNL     1      35.210 -22.596 -17.951  0.00  0.00    +0.155 HD
BRANCH   8  12
ATOM     11  F   UNL     1      33.590 -18.715 -22.274  0.00  0.00    -0.204 F 
ATOM     12  C   UNL     1      35.025 -20.909 -19.085  0.00  0.00    +0.051 C 
ATOM     13  C   UNL     1      35.910 -20.199 -19.897  0.00  0.00    +0.017 C 
ATOM     14  C   UNL     1      33.656 -20.878 -19.350  0.00  0.00    +0.017 C 
ATOM     15  C   UNL     1      35.424 -19.457 -20.974  0.00  0.00    +0.031 C 
ATOM     16  C   UNL     1      33.171 -20.136 -20.427  0.00  0.00    +0.031 C 
ATOM     17  C   UNL     1      34.055 -19.426 -21.239  0.00  0.00    +0.140 C 
ENDBRANCH   8  12
ENDBRANCH   3   9
BRANCH   4  19
ATOM     18  O   UNL     1      33.705 -23.584 -17.009  0.00  0.00    -0.270 OA
ATOM     19  N   UNL     1      34.534 -22.835 -14.946  0.00  0.00    -0.278 N 
ATOM     20  C   UNL     1      33.519 -23.141 -15.864  0.00  0.00    +0.250 C 
ATOM     21  H   UNL     1      34.232 -22.490 -14.075  0.00  0.00    +0.155 HD
BRANCH  20  22
ATOM     22  C   UNL     1      32.160 -22.881 -15.418  0.00  0.00    +0.054 C 
ATOM     23  C   UNL     1      31.148 -22.667 -16.355  0.00  0.00    +0.005 C 
ATOM     24  C   UNL     1      31.867 -22.845 -14.055  0.00  0.00    +0.005 C 
ATOM     25  C   UNL     1      29.844 -22.417 -15.928  0.00  0.00    +0.000 C 
ATOM     26  C   UNL     1      30.563 -22.596 -13.628  0.00  0.00    +0.000 C 
ATOM     27  C   UNL     1      29.551 -22.382 -14.564  0.00  0.00    +0.000 C 
ENDBRANCH  20  22
ENDBRANCH   4  19
TORSDOF 4
ENDMDL
MODEL 2
REMARK VINA RESULT:     -10.9      7.636     10.973
REMARK  Name = 24864078
REMARK  4 active torsions:
REMARK  status: ('A' for Active; 'I' for Inactive)
REMARK    1  A    between atoms: C_3  and  C_9
REMARK    2  A    between atoms: C_4  and  N_19
REMARK    3  A    between atoms: N_8  and  C_12
REMARK    4  A    between atoms: C_20  and  C_22
REMARK                            x       y       z     vdW  Elec       q    Type
REMARK                         _______ _______ _______ _____ _____    ______ ____
ROOT
ATOM      1  N   UNL     1      33.668 -15.229 -25.180  0.00  0.00    -0.230 N 
ATOM      2  N   UNL     1      33.153 -14.386 -26.091  0.00  0.00    -0.178 NA
ATOM      3  C   UNL     1      33.516 -14.809 -23.892  0.00  0.00    +0.134 C 
ATOM      4  C   UNL     1      32.853 -13.607 -23.964  0.00  0.00    +0.091 C 
ATOM      5  C   UNL     1      32.656 -13.398 -25.343  0.00  0.00    +0.134 C 
ATOM      6  H   UNL     1      34.116 -16.072 -25.421  0.00  0.00    +0.175 HD
ENDROOT
BRANCH   3   9
ATOM      7  O   UNL     1      34.075 -14.959 -21.639  0.00  0.00    -0.268 OA
ATOM      8  N   UNL     1      34.289 -16.897 -22.944  0.00  0.00    -0.279 N 
ATOM      9  C   UNL     1      33.980 -15.532 -22.752  0.00  0.00    +0.266 C 
ATOM     10  H   UNL     1      34.173 -17.230 -23.862  0.00  0.00    +0.155 HD
BRANCH   8  12
ATOM     11  F   UNL     1      36.063 -20.660 -19.277  0.00  0.00    -0.204 F 
ATOM     12  C   UNL     1      34.742 -17.859 -22.006  0.00  0.00    +0.051 C 
ATOM     13  C   UNL     1      33.856 -18.810 -21.499  0.00  0.00    +0.017 C 
ATOM     14  C   UNL     1      36.074 -17.854 -21.591  0.00  0.00    +0.017 C 
ATOM     15  C   UNL     1      34.303 -19.757 -20.577  0.00  0.00    +0.031 C 
ATOM     16  C   UNL     1      36.520 -18.800 -20.668  0.00  0.00    +0.031 C 
ATOM     17  C   UNL     1      35.635 -19.751 -20.161  0.00  0.00    +0.140 C 
ENDBRANCH   8  12
ENDBRANCH   3   9
BRANCH   4  19
ATOM     18  O   UNL     1      32.405 -10.646 -23.857  0.00  0.00    -0.270 OA
ATOM     19  N   UNL     1      32.464 -12.780 -22.884  0.00  0.00    -0.278 N 
ATOM     20  C   UNL     1      32.264 -11.392 -22.874  0.00  0.00    +0.250 C 
ATOM     21  H   UNL     1      32.313 -13.239 -22.026  0.00  0.00    +0.155 HD
BRANCH  20  22
ATOM     22  C   UNL     1      31.889 -10.814 -21.594  0.00  0.00    +0.054 C 
ATOM     23  C   UNL     1      31.479  -9.482 -21.525  0.00  0.00    +0.005 C 
ATOM     24  C   UNL     1      31.938 -11.590 -20.436  0.00  0.00    +0.005 C 
ATOM     25  C   UNL     1      31.119  -8.925 -20.297  0.00  0.00    +0.000 C 
ATOM     26  C   UNL     1      31.577 -11.033 -19.209  0.00  0.00    +0.000 C 
ATOM     27  C   UNL     1      31.168  -9.702 -19.139  0.00  0.00    +0.000 C 
ENDBRANCH  20  22
ENDBRANCH   4  19
TORSDOF 4
ENDMDL
MODEL 3
REMARK VINA RESULT:     -10.8      2.794      5.958
REMARK  Name = 24864078
REMARK  4 active torsions:
REMARK  status: ('A' for Active; 'I' for Inactive)
REMARK    1  A    between atoms: C_3  and  C_9
REMARK    2  A    between atoms: C_4  and  N_19
REMARK    3  A    between atoms: N_8  and  C_12
REMARK    4  A    between atoms: C_20  and  C_22
REMARK                            x       y       z     vdW  Elec       q    Type
REMARK                         _______ _______ _______ _____ _____    ______ ____
ROOT
ATOM      1  N   UNL     1      34.788 -24.371 -13.485  0.00  0.00    -0.230 N 
ATOM      2  N   UNL     1      36.080 -24.543 -13.810  0.00  0.00    -0.178 NA
ATOM      3  C   UNL     1      34.096 -23.589 -14.362  0.00  0.00    +0.134 C 
ATOM      4  C   UNL     1      35.000 -23.222 -15.330  0.00  0.00    +0.091 C 
ATOM      5  C   UNL     1      36.204 -23.840 -14.938  0.00  0.00    +0.134 C 
ATOM      6  H   UNL     1      34.376 -24.773 -12.685  0.00  0.00    +0.175 HD
ENDROOT
BRANCH   3   9
ATOM      7  O   UNL     1      32.300 -22.677 -13.200  0.00  0.00    -0.268 OA
ATOM      8  N   UNL     1      31.870 -23.606 -15.311  0.00  0.00    -0.279 N 
ATOM      9  C   UNL     1      32.713 -23.263 -14.230  0.00  0.00    +0.266 C 
ATOM     10  H   UNL     1      32.314 -24.062 -16.062  0.00  0.00    +0.155 HD
BRANCH   8  12
ATOM     11  F   UNL     1      26.426 -22.760 -15.940  0.00  0.00    -0.204 F 
ATOM     12  C   UNL     1      30.479 -23.390 -15.472  0.00  0.00    +0.051 C 
ATOM     13  C   UNL     1      29.567 -24.324 -14.981  0.00  0.00    +0.017 C 
ATOM     14  C   UNL     1      30.022 -22.243 -16.122  0.00  0.00    +0.017 C 
ATOM     15  C   UNL     1      28.197 -24.111 -15.139  0.00  0.00    +0.031 C 
ATOM     16  C   UNL     1      28.653 -22.031 -16.281  0.00  0.00    +0.031 C 
ATOM     17  C   UNL     1      27.740 -22.965 -15.790  0.00  0.00    +0.140 C 
ENDBRANCH   8  12
ENDBRANCH   3   9
BRANCH   4  19
ATOM     18  O   UNL     1      33.280 -23.712 -17.735  0.00  0.00    -0.270 OA
ATOM     19  N   UNL     1      34.757 -22.408 -16.462  0.00  0.00    -0.278 N 
ATOM     20  C   UNL     1      33.941 -22.674 -17.571  0.00  0.00    +0.250 C 
ATOM     21  H   UNL     1      35.222 -21.540 -16.472  0.00  0.00    +0.155 HD
BRANCH  20  22
ATOM     22  C   UNL     1      33.913 -21.646 -18.599  0.00  0.00    +0.054 C 
ATOM     23  C   UNL     1      35.109 -21.146 -19.118  0.00  0.00    +0.005 C 
ATOM     24  C   UNL     1      32.693 -21.161 -19.069  0.00  0.00    +0.005 C 
ATOM     25  C   UNL     1      35.083 -20.160 -20.104  0.00  0.00    +0.000 C 
ATOM     26  C   UNL     1      32.668 -20.175 -20.055  0.00  0.00    +0.000 C 
ATOM     27  C   UNL     1      33.862 -19.675 -20.573  0.00  0.00    +0.000 C 
ENDBRANCH  20  22
ENDBRANCH   4  19
TORSDOF 4
ENDMDL
MODEL 4
REMARK VINA RESULT:     -10.8      2.546      6.428
REMARK  Name = 24864078
REMARK  4 active torsions:
REMARK  status: ('A' for Active; 'I' for Inactive)
REMARK    1  A    between atoms: C_3  and  C_9
REMARK    2  A    between atoms: C_4  and  N_19
REMARK    3  A    between atoms: N_8  and  C_12
REMARK    4  A    between atoms: C_20  and  C_22
REMARK                            x       y       z     vdW  Elec       q    Type
REMARK                         _______ _______ _______ _____ _____    ______ ____
ROOT
ATOM      1  N   UNL     1      36.018 -23.037 -15.277  0.00  0.00    -0.230 N 
ATOM      2  N   UNL     1      37.300 -22.637 -15.231  0.00  0.00    -0.178 NA
ATOM      3  C   UNL     1      35.287 -22.434 -16.258  0.00  0.00    +0.134 C 
ATOM      4  C   UNL     1      36.151 -21.579 -16.899  0.00  0.00    +0.091 C 
ATOM      5  C   UNL     1      37.376 -21.747 -16.224  0.00  0.00    +0.134 C 
ATOM      6  H   UNL     1      35.640 -23.704 -14.659  0.00  0.00    +0.175 HD
ENDROOT
BRANCH   3   9
ATOM      7  O   UNL     1      33.516 -22.984 -17.661  0.00  0.00    -0.268 OA
ATOM      8  N   UNL     1      33.036 -22.632 -15.392  0.00  0.00    -0.279 N 
ATOM      9  C   UNL     1      33.905 -22.694 -16.504  0.00  0.00    +0.266 C 
ATOM     10  H   UNL     1      33.462 -22.395 -14.538  0.00  0.00    +0.155 HD
BRANCH   8  12
ATOM     11  F   UNL     1      27.570 -23.531 -15.135  0.00  0.00    -0.204 F 
ATOM     12  C   UNL     1      31.639 -22.862 -15.327  0.00  0.00    +0.051 C 
ATOM     13  C   UNL     1      31.107 -23.631 -14.291  0.00  0.00    +0.017 C 
ATOM     14  C   UNL     1      30.796 -22.319 -16.297  0.00  0.00    +0.017 C 
ATOM     15  C   UNL     1      29.731 -23.857 -14.227  0.00  0.00    +0.031 C 
ATOM     16  C   UNL     1      29.422 -22.546 -16.233  0.00  0.00    +0.031 C 
ATOM     17  C   UNL     1      28.889 -23.315 -15.198  0.00  0.00    +0.140 C 
ENDBRANCH   8  12
ENDBRANCH   3   9
BRANCH   4  19
ATOM     18  O   UNL     1      35.413 -22.244 -19.726  0.00  0.00    -0.270 OA
ATOM     19  N   UNL     1      35.858 -20.728 -17.992  0.00  0.00    -0.278 N 
ATOM     20  C   UNL     1      35.515 -21.080 -19.305  0.00  0.00    +0.250 C 
ATOM     21  H   UNL     1      35.901 -19.763 -17.806  0.00  0.00    +0.155 HD
BRANCH  20  22
ATOM     22  C   UNL     1      35.297 -19.974 -20.222  0.00  0.00    +0.054 C 
ATOM     23  C   UNL     1      36.334 -19.083 -20.499  0.00  0.00    +0.005 C 
ATOM     24  C   UNL     1      34.051 -19.802 -20.826  0.00  0.00    +0.005 C 
ATOM     25  C   UNL     1      36.126 -18.020 -21.378  0.00  0.00    +0.000 C 
ATOM     26  C   UNL     1      33.843 -18.740 -21.706  0.00  0.00    +0.000 C 
ATOM     27  C   UNL     1      34.880 -17.850 -21.982  0.00  0.00    +0.000 C 
ENDBRANCH  20  22
ENDBRANCH   4  19
TORSDOF 4
ENDMDL
MODEL 5
REMARK VINA RESULT:     -10.3      2.619      5.370
REMARK  Name = 24864078
REMARK  4 active torsions:
REMARK  status: ('A' for Active; 'I' for Inactive)
REMARK    1  A    between atoms: C_3  and  C_9
REMARK    2  A    between atoms: C_4  and  N_19
REMARK    3  A    between atoms: N_8  and  C_12
REMARK    4  A    between atoms: C_20  and  C_22
REMARK                            x       y       z     vdW  Elec       q    Type
REMARK                         _______ _______ _______ _____ _____    ______ ____
ROOT
ATOM      1  N   UNL     1      29.942 -23.630 -14.649  0.00  0.00    -0.230 N 
ATOM      2  N   UNL     1      29.692 -24.348 -13.541  0.00  0.00    -0.178 NA
ATOM      3  C   UNL     1      31.267 -23.536 -14.959  0.00  0.00    +0.134 C 
ATOM      4  C   UNL     1      31.931 -24.242 -13.985  0.00  0.00    +0.091 C 
ATOM      5  C   UNL     1      30.910 -24.720 -13.140  0.00  0.00    +0.134 C 
ATOM      6  H   UNL     1      29.233 -23.210 -15.188  0.00  0.00    +0.175 HD
ENDROOT
BRANCH   3   9
ATOM      7  O   UNL     1      30.997 -22.222 -16.858  0.00  0.00    -0.268 OA
ATOM      8  N   UNL     1      33.182 -22.828 -16.258  0.00  0.00    -0.279 N 
ATOM      9  C   UNL     1      31.780 -22.827 -16.087  0.00  0.00    +0.266 C 
ATOM     10  H   UNL     1      33.687 -23.339 -15.586  0.00  0.00    +0.155 HD
BRANCH   8  12
ATOM     11  F   UNL     1      36.259 -20.375 -20.164  0.00  0.00    -0.204 F 
ATOM     12  C   UNL     1      33.968 -22.201 -17.256  0.00  0.00    +0.051 C 
ATOM     13  C   UNL     1      35.296 -21.865 -16.989  0.00  0.00    +0.017 C 
ATOM     14  C   UNL     1      33.415 -21.920 -18.505  0.00  0.00    +0.017 C 
ATOM     15  C   UNL     1      36.070 -21.247 -17.972  0.00  0.00    +0.031 C 
ATOM     16  C   UNL     1      34.188 -21.302 -19.487  0.00  0.00    +0.031 C 
ATOM     17  C   UNL     1      35.516 -20.966 -19.221  0.00  0.00    +0.140 C 
ENDBRANCH   8  12
ENDBRANCH   3   9
BRANCH   4  19
ATOM     18  O   UNL     1      33.853 -23.314 -11.881  0.00  0.00    -0.270 OA
ATOM     19  N   UNL     1      33.329 -24.437 -13.873  0.00  0.00    -0.278 N 
ATOM     20  C   UNL     1      34.196 -23.985 -12.868  0.00  0.00    +0.250 C 
ATOM     21  H   UNL     1      33.747 -24.959 -14.595  0.00  0.00    +0.155 HD
BRANCH  20  22
ATOM     22  C   UNL     1      35.599 -24.322 -13.043  0.00  0.00    +0.054 C 
ATOM     23  C   UNL     1      36.260 -23.968 -14.220  0.00  0.00    +0.005 C 
ATOM     24  C   UNL     1      36.286 -24.998 -12.034  0.00  0.00    +0.005 C 
ATOM     25  C   UNL     1      37.606 -24.291 -14.389  0.00  0.00    +0.000 C 
ATOM     26  C   UNL     1      37.632 -25.320 -12.203  0.00  0.00    +0.000 C 
ATOM     27  C   UNL     1      38.293 -24.967 -13.380  0.00  0.00    +0.000 C 
ENDBRANCH  20  22
ENDBRANCH   4  19
TORSDOF 4
ENDMDL
MODEL 6
REMARK VINA RESULT:     -10.2      7.534     10.581
REMARK  Name = 24864078
REMARK  4 active torsions:
REMARK  status: ('A' for Active; 'I' for Inactive)
REMARK    1  A    between atoms: C_3  and  C_9
REMARK    2  A    between atoms: C_4  and  N_19
REMARK    3  A    between atoms: N_8  and  C_12
REMARK    4  A    between atoms: C_20  and  C_22
REMARK                            x       y       z     vdW  Elec       q    Type
REMARK                         _______ _______ _______ _____ _____    ______ ____
ROOT
ATOM      1  N   UNL     1      32.800 -13.636 -25.121  0.00  0.00    -0.230 N 
ATOM      2  N   UNL     1      33.053 -14.469 -26.144  0.00  0.00    -0.178 NA
ATOM      3  C   UNL     1      33.142 -14.141 -23.901  0.00  0.00    +0.134 C 
ATOM      4  C   UNL     1      33.655 -15.393 -24.143  0.00  0.00    +0.091 C 
ATOM      5  C   UNL     1      33.575 -15.539 -25.542  0.00  0.00    +0.134 C 
ATOM      6  H   UNL     1      32.404 -12.742 -25.240  0.00  0.00    +0.175 HD
ENDROOT
BRANCH   3   9
ATOM      7  O   UNL     1      33.553 -13.847 -21.631  0.00  0.00    -0.268 OA
ATOM      8  N   UNL     1      32.146 -12.297 -22.691  0.00  0.00    -0.279 N 
ATOM      9  C   UNL     1      32.969 -13.445 -22.666  0.00  0.00    +0.266 C 
ATOM     10  H   UNL     1      31.745 -12.085 -23.564  0.00  0.00    +0.155 HD
BRANCH   8  12
ATOM     11  F   UNL     1      30.846  -8.805 -18.583  0.00  0.00    -0.204 F 
ATOM     12  C   UNL     1      31.813 -11.405 -21.641  0.00  0.00    +0.051 C 
ATOM     13  C   UNL     1      31.890 -11.829 -20.314  0.00  0.00    +0.017 C 
ATOM     14  C   UNL     1      31.409 -10.102 -21.935  0.00  0.00    +0.017 C 
ATOM     15  C   UNL     1      31.563 -10.951 -19.281  0.00  0.00    +0.031 C 
ATOM     16  C   UNL     1      31.082  -9.224 -20.902  0.00  0.00    +0.031 C 
ATOM     17  C   UNL     1      31.158  -9.648 -19.575  0.00  0.00    +0.140 C 
ENDBRANCH   8  12
ENDBRANCH   3   9
BRANCH   4  19
ATOM     18  O   UNL     1      33.606 -18.389 -24.136  0.00  0.00    -0.270 OA
ATOM     19  N   UNL     1      34.149 -16.313 -23.188  0.00  0.00    -0.278 N 
ATOM     20  C   UNL     1      34.107 -17.714 -23.222  0.00  0.00    +0.250 C 
ATOM     21  H   UNL     1      34.579 -15.918 -22.396  0.00  0.00    +0.155 HD
BRANCH  20  22
ATOM     22  C   UNL     1      34.677 -18.394 -22.071  0.00  0.00    +0.054 C 
ATOM     23  C   UNL     1      33.930 -19.354 -21.387  0.00  0.00    +0.005 C 
ATOM     24  C   UNL     1      35.972 -18.089 -21.649  0.00  0.00    +0.005 C 
ATOM     25  C   UNL     1      34.476 -20.008 -20.282  0.00  0.00    +0.000 C 
ATOM     26  C   UNL     1      36.518 -18.742 -20.545  0.00  0.00    +0.000 C 
ATOM     27  C   UNL     1      35.771 -19.701 -19.862  0.00  0.00    +0.000 C 
ENDBRANCH  20  22
ENDBRANCH   4  19
TORSDOF 4
ENDMDL
MODEL 7
REMARK VINA RESULT:     -10.0      3.202      6.425
REMARK  Name = 24864078
REMARK  4 active torsions:
REMARK  status: ('A' for Active; 'I' for Inactive)
REMARK    1  A    between atoms: C_3  and  C_9
REMARK    2  A    between atoms: C_4  and  N_19
REMARK    3  A    between atoms: N_8  and  C_12
REMARK    4  A    between atoms: C_20  and  C_22
REMARK                            x       y       z     vdW  Elec       q    Type
REMARK                         _______ _______ _______ _____ _____    ______ ____
ROOT
ATOM      1  N   UNL     1      34.642 -21.326 -18.719  0.00  0.00    -0.230 N 
ATOM      2  N   UNL     1      35.820 -20.682 -18.772  0.00  0.00    -0.178 NA
ATOM      3  C   UNL     1      34.462 -22.053 -17.580  0.00  0.00    +0.134 C 
ATOM      4  C   UNL     1      35.602 -21.872 -16.835  0.00  0.00    +0.091 C 
ATOM      5  C   UNL     1      36.402 -21.019 -17.619  0.00  0.00    +0.134 C 
ATOM      6  H   UNL     1      33.969 -21.278 -19.437  0.00  0.00    +0.175 HD
ENDROOT
BRANCH   3   9
ATOM      7  O   UNL     1      32.903 -23.698 -18.104  0.00  0.00    -0.268 OA
ATOM      8  N   UNL     1      32.642 -22.562 -16.068  0.00  0.00    -0.279 N 
ATOM      9  C   UNL     1      33.293 -22.822 -17.294  0.00  0.00    +0.266 C 
ATOM     10  H   UNL     1      33.045 -21.851 -15.520  0.00  0.00    +0.155 HD
BRANCH   8  12
ATOM     11  F   UNL     1      28.139 -24.958 -13.891  0.00  0.00    -0.204 F 
ATOM     12  C   UNL     1      31.491 -23.174 -15.511  0.00  0.00    +0.051 C 
ATOM     13  C   UNL     1      30.229 -22.892 -16.035  0.00  0.00    +0.017 C 
ATOM     14  C   UNL     1      31.620 -24.058 -14.440  0.00  0.00    +0.017 C 
ATOM     15  C   UNL     1      29.096 -23.495 -15.487  0.00  0.00    +0.031 C 
ATOM     16  C   UNL     1      30.488 -24.660 -13.892  0.00  0.00    +0.031 C 
ATOM     17  C   UNL     1      29.226 -24.378 -14.416  0.00  0.00    +0.140 C 
ENDBRANCH   8  12
ENDBRANCH   3   9
BRANCH   4  19
ATOM     18  O   UNL     1      38.214 -22.736 -15.646  0.00  0.00    -0.270 OA
ATOM     19  N   UNL     1      35.891 -22.427 -15.565  0.00  0.00    -0.278 N 
ATOM     20  C   UNL     1      37.132 -22.819 -15.044  0.00  0.00    +0.250 C 
ATOM     21  H   UNL     1      35.118 -22.554 -14.968  0.00  0.00    +0.155 HD
BRANCH  20  22
ATOM     22  C   UNL     1      37.108 -23.387 -13.706  0.00  0.00    +0.054 C 
ATOM     23  C   UNL     1      37.541 -24.696 -13.496  0.00  0.00    +0.005 C 
ATOM     24  C   UNL     1      36.653 -22.623 -12.631  0.00  0.00    +0.005 C 
ATOM     25  C   UNL     1      37.518 -25.242 -12.213  0.00  0.00    +0.000 C 
ATOM     26  C   UNL     1      36.631 -23.168 -11.348  0.00  0.00    +0.000 C 
ATOM     27  C   UNL     1      37.064 -24.477 -11.138  0.00  0.00    +0.000 C 
ENDBRANCH  20  22
ENDBRANCH   4  19
TORSDOF 4
ENDMDL
MODEL 8
REMARK VINA RESULT:      -9.8      3.295      5.775
REMARK  Name = 24864078
REMARK  4 active torsions:
REMARK  status: ('A' for Active; 'I' for Inactive)
REMARK    1  A    between atoms: C_3  and  C_9
REMARK    2  A    between atoms: C_4  and  N_19
REMARK    3  A    between atoms: N_8  and  C_12
REMARK    4  A    between atoms: C_20  and  C_22
REMARK                            x       y       z     vdW  Elec       q    Type
REMARK                         _______ _______ _______ _____ _____    ______ ____
ROOT
ATOM      1  N   UNL     1      35.673 -21.123 -18.888  0.00  0.00    -0.230 N 
ATOM      2  N   UNL     1      34.731 -21.107 -19.847  0.00  0.00    -0.178 NA
ATOM      3  C   UNL     1      35.250 -21.662 -17.708  0.00  0.00    +0.134 C 
ATOM      4  C   UNL     1      33.939 -22.023 -17.909  0.00  0.00    +0.091 C 
ATOM      5  C   UNL     1      33.675 -21.658 -19.244  0.00  0.00    +0.134 C 
ATOM      6  H   UNL     1      36.585 -20.777 -19.024  0.00  0.00    +0.175 HD
ENDROOT
BRANCH   3   9
ATOM      7  O   UNL     1      36.963 -20.941 -16.310  0.00  0.00    -0.268 OA
ATOM      8  N   UNL     1      35.793 -22.877 -15.687  0.00  0.00    -0.279 N 
ATOM      9  C   UNL     1      36.067 -21.788 -16.545  0.00  0.00    +0.266 C 
ATOM     10  H   UNL     1      35.065 -23.470 -15.981  0.00  0.00    +0.155 HD
BRANCH   8  12
ATOM     11  F   UNL     1      38.218 -24.298 -10.907  0.00  0.00    -0.204 F 
ATOM     12  C   UNL     1      36.413 -23.240 -14.465  0.00  0.00    +0.051 C 
ATOM     13  C   UNL     1      35.890 -22.782 -13.255  0.00  0.00    +0.017 C 
ATOM     14  C   UNL     1      37.545 -24.055 -14.473  0.00  0.00    +0.017 C 
ATOM     15  C   UNL     1      36.501 -23.140 -12.053  0.00  0.00    +0.031 C 
ATOM     16  C   UNL     1      38.155 -24.411 -13.271  0.00  0.00    +0.031 C 
ATOM     17  C   UNL     1      37.633 -23.954 -12.061  0.00  0.00    +0.140 C 
ENDBRANCH   8  12
ENDBRANCH   3   9
BRANCH   4  19
ATOM     18  O   UNL     1      30.990 -21.677 -17.507  0.00  0.00    -0.270 OA
ATOM     19  N   UNL     1      33.066 -22.628 -16.973  0.00  0.00    -0.278 N 
ATOM     20  C   UNL     1      31.686 -22.439 -16.817  0.00  0.00    +0.250 C 
ATOM     21  H   UNL     1      33.484 -23.266 -16.350  0.00  0.00    +0.155 HD
BRANCH  20  22
ATOM     22  C   UNL     1      31.061 -23.187 -15.738  0.00  0.00    +0.054 C 
ATOM     23  C   UNL     1      31.828 -23.623 -14.657  0.00  0.00    +0.005 C 
ATOM     24  C   UNL     1      29.696 -23.469 -15.783  0.00  0.00    +0.005 C 
ATOM     25  C   UNL     1      31.230 -24.340 -13.621  0.00  0.00    +0.000 C 
ATOM     26  C   UNL     1      29.098 -24.186 -14.747  0.00  0.00    +0.000 C 
ATOM     27  C   UNL     1      29.864 -24.622 -13.666  0.00  0.00    +0.000 C 
ENDBRANCH  20  22
ENDBRANCH   4  19
TORSDOF 4
ENDMDL
MODEL 9
REMARK VINA RESULT:      -9.6     11.502     15.003
REMARK  Name = 24864078
REMARK  4 active torsions:
REMARK  status: ('A' for Active; 'I' for Inactive)
REMARK    1  A    between atoms: C_3  and  C_9
REMARK    2  A    between atoms: C_4  and  N_19
REMARK    3  A    between atoms: N_8  and  C_12
REMARK    4  A    between atoms: C_20  and  C_22
REMARK                            x       y       z     vdW  Elec       q    Type
REMARK                         _______ _______ _______ _____ _____    ______ ____
ROOT
ATOM      1  N   UNL     1      31.123 -10.340 -20.104  0.00  0.00    -0.230 N 
ATOM      2  N   UNL     1      30.772  -9.318 -19.307  0.00  0.00    -0.178 NA
ATOM      3  C   UNL     1      31.677  -9.952 -21.289  0.00  0.00    +0.134 C 
ATOM      4  C   UNL     1      31.690  -8.578 -21.264  0.00  0.00    +0.091 C 
ATOM      5  C   UNL     1      31.121  -8.244 -20.019  0.00  0.00    +0.134 C 
ATOM      6  H   UNL     1      30.992 -11.285 -19.857  0.00  0.00    +0.175 HD
ENDROOT
BRANCH   3   9
ATOM      7  O   UNL     1      32.228 -10.467 -23.488  0.00  0.00    -0.268 OA
ATOM      8  N   UNL     1      32.470 -12.160 -21.882  0.00  0.00    -0.279 N 
ATOM      9  C   UNL     1      32.128 -10.854 -22.299  0.00  0.00    +0.266 C 
ATOM     10  H   UNL     1      32.349 -12.340 -20.923  0.00  0.00    +0.155 HD
BRANCH   8  12
ATOM     11  F   UNL     1      34.399 -16.419 -24.864  0.00  0.00    -0.204 F 
ATOM     12  C   UNL     1      32.963 -13.248 -22.644  0.00  0.00    +0.051 C 
ATOM     13  C   UNL     1      32.603 -13.380 -23.985  0.00  0.00    +0.017 C 
ATOM     14  C   UNL     1      33.808 -14.188 -22.052  0.00  0.00    +0.017 C 
ATOM     15  C   UNL     1      33.089 -14.452 -24.735  0.00  0.00    +0.031 C 
ATOM     16  C   UNL     1      34.292 -15.259 -22.802  0.00  0.00    +0.031 C 
ATOM     17  C   UNL     1      33.933 -15.392 -24.144  0.00  0.00    +0.140 C 
ENDBRANCH   8  12
ENDBRANCH   3   9
BRANCH   4  19
ATOM     18  O   UNL     1      30.203  -6.981 -23.318  0.00  0.00    -0.270 OA
ATOM     19  N   UNL     1      32.172  -7.709 -22.272  0.00  0.00    -0.278 N 
ATOM     20  C   UNL     1      31.440  -6.977 -23.218  0.00  0.00    +0.250 C 
ATOM     21  H   UNL     1      33.150  -7.605 -22.315  0.00  0.00    +0.155 HD
BRANCH  20  22
ATOM     22  C   UNL     1      32.224  -6.185 -24.152  0.00  0.00    +0.054 C 
ATOM     23  C   UNL     1      33.345  -5.486 -23.704  0.00  0.00    +0.005 C 
ATOM     24  C   UNL     1      31.856  -6.126 -25.497  0.00  0.00    +0.005 C 
ATOM     25  C   UNL     1      34.098  -4.727 -24.599  0.00  0.00    +0.000 C 
ATOM     26  C   UNL     1      32.610  -5.367 -26.392  0.00  0.00    +0.000 C 
ATOM     27  C   UNL     1      33.730  -4.668 -25.944  0.00  0.00    +0.000 C 
ENDBRANCH  20  22
ENDBRANCH   4  19
TORSDOF 4
ENDMDL
