MODEL 1
REMARK VINA RESULT:      -9.8      0.000      0.000
REMARK  Name = 53708
REMARK  3 active torsions:
REMARK  status: ('A' for Active; 'I' for Inactive)
REMARK    1  A    between atoms: C_4  and  C_12
REMARK    2  A    between atoms: C_12  and  C_13
REMARK    3  A    between atoms: C_16  and  S_19
REMARK                            x       y       z     vdW  Elec       q    Type
REMARK                         _______ _______ _______ _____ _____    ______ ____
ROOT
ATOM      1  O   UNL     1      33.812 -14.078 -20.236  0.00  0.00    -0.254 OA
ATOM      2  N   UNL     1      34.681 -16.256 -20.604  0.00  0.00    -0.334 NA
ATOM      3  N   UNL     1      33.877 -15.134 -22.362  0.00  0.00    -0.272 N 
ATOM      4  C   UNL     1      34.808 -17.030 -21.730  0.00  0.00    +0.084 C 
ATOM      5  C   UNL     1      34.326 -16.364 -22.792  0.00  0.00    +0.044 C 
ATOM      6  C   UNL     1      34.085 -15.020 -20.963  0.00  0.00    +0.292 C 
ATOM      7  C   UNL     1      34.222 -16.736 -24.223  0.00  0.00    +0.049 C 
ATOM      8  H   UNL     1      34.961 -16.516 -19.696  0.00  0.00    +0.133 HD
ATOM      9  H   UNL     1      35.353 -15.577 -20.363  0.00  0.00    +0.133 HD
ATOM     10  H   UNL     1      33.475 -14.441 -22.937  0.00  0.00    +0.156 HD
ENDROOT
BRANCH   4  12
ATOM     11  O   UNL     1      36.369 -18.657 -22.372  0.00  0.00    -0.285 OA
ATOM     12  C   UNL     1      35.387 -18.361 -21.680  0.00  0.00    +0.208 C 
BRANCH  12  13
ATOM     13  C   UNL     1      34.807 -19.385 -20.762  0.00  0.00    +0.040 C 
ATOM     14  C   UNL     1      35.662 -20.141 -19.995  0.00  0.00    +0.004 C 
ATOM     15  C   UNL     1      33.439 -19.532 -20.720  0.00  0.00    +0.004 C 
ATOM     16  C   UNL     1      33.737 -21.272 -19.070  0.00  0.00    +0.025 C 
ATOM     17  C   UNL     1      35.119 -21.098 -19.136  0.00  0.00    +0.006 C 
ATOM     18  C   UNL     1      32.897 -20.488 -19.861  0.00  0.00    +0.006 C 
BRANCH  16  19
ATOM     19  S   UNL     1      33.043 -22.494 -17.973  0.00  0.00    -0.113 S 
ATOM     20  C   UNL     1      34.262 -22.428 -16.642  0.00  0.00    +0.074 C 
ENDBRANCH  16  19
ENDBRANCH  12  13
ENDBRANCH   4  12
TORSDOF 3
ENDMDL
MODEL 2
REMARK VINA RESULT:      -9.5      1.569      2.370
REMARK  Name = 53708
REMARK  3 active torsions:
REMARK  status: ('A' for Active; 'I' for Inactive)
REMARK    1  A    between atoms: C_4  and  C_12
REMARK    2  A    between atoms: C_12  and  C_13
REMARK    3  A    between atoms: C_16  and  S_19
REMARK                            x       y       z     vdW  Elec       q    Type
REMARK                         _______ _______ _______ _____ _____    ______ ____
ROOT
ATOM      1  O   UNL     1      33.318 -15.716 -25.342  0.00  0.00    -0.254 OA
ATOM      2  N   UNL     1      34.586 -17.075 -23.865  0.00  0.00    -0.334 NA
ATOM      3  N   UNL     1      33.592 -15.255 -23.028  0.00  0.00    -0.272 N 
ATOM      4  C   UNL     1      34.863 -16.984 -22.523  0.00  0.00    +0.084 C 
ATOM      5  C   UNL     1      34.270 -15.894 -22.012  0.00  0.00    +0.044 C 
ATOM      6  C   UNL     1      33.767 -15.978 -24.237  0.00  0.00    +0.292 C 
ATOM      7  C   UNL     1      34.249 -15.338 -20.639  0.00  0.00    +0.049 C 
ATOM      8  H   UNL     1      34.903 -17.785 -24.469  0.00  0.00    +0.133 HD
ATOM      9  H   UNL     1      33.755 -17.487 -24.196  0.00  0.00    +0.133 HD
ATOM     10  H   UNL     1      33.068 -14.426 -22.931  0.00  0.00    +0.156 HD
ENDROOT
BRANCH   4  12
ATOM     11  O   UNL     1      36.920 -17.946 -21.941  0.00  0.00    -0.285 OA
ATOM     12  C   UNL     1      35.687 -17.971 -21.847  0.00  0.00    +0.208 C 
BRANCH  12  13
ATOM     13  C   UNL     1      35.041 -19.019 -21.003  0.00  0.00    +0.040 C 
ATOM     14  C   UNL     1      33.670 -19.129 -21.025  0.00  0.00    +0.004 C 
ATOM     15  C   UNL     1      35.842 -19.833 -20.236  0.00  0.00    +0.004 C 
ATOM     16  C   UNL     1      33.850 -20.950 -19.448  0.00  0.00    +0.025 C 
ATOM     17  C   UNL     1      33.066 -20.110 -20.237  0.00  0.00    +0.006 C 
ATOM     18  C   UNL     1      35.238 -20.813 -19.448  0.00  0.00    +0.006 C 
BRANCH  16  19
ATOM     19  S   UNL     1      33.078 -22.203 -18.441  0.00  0.00    -0.113 S 
ATOM     20  C   UNL     1      34.262 -22.264 -17.079  0.00  0.00    +0.074 C 
ENDBRANCH  16  19
ENDBRANCH  12  13
ENDBRANCH   4  12
TORSDOF 3
ENDMDL
MODEL 3
REMARK VINA RESULT:      -9.3      1.170      1.721
REMARK  Name = 53708
REMARK  3 active torsions:
REMARK  status: ('A' for Active; 'I' for Inactive)
REMARK    1  A    between atoms: C_4  and  C_12
REMARK    2  A    between atoms: C_12  and  C_13
REMARK    3  A    between atoms: C_16  and  S_19
REMARK                            x       y       z     vdW  Elec       q    Type
REMARK                         _______ _______ _______ _____ _____    ______ ____
ROOT
ATOM      1  O   UNL     1      33.794 -14.228 -23.009  0.00  0.00    -0.254 OA
ATOM      2  N   UNL     1      34.943 -16.068 -22.045  0.00  0.00    -0.334 NA
ATOM      3  N   UNL     1      33.642 -16.454 -23.822  0.00  0.00    -0.272 N 
ATOM      4  C   UNL     1      34.988 -17.404 -22.357  0.00  0.00    +0.084 C 
ATOM      5  C   UNL     1      34.209 -17.646 -23.423  0.00  0.00    +0.044 C 
ATOM      6  C   UNL     1      34.086 -15.413 -22.966  0.00  0.00    +0.292 C 
ATOM      7  C   UNL     1      33.905 -18.897 -24.157  0.00  0.00    +0.049 C 
ATOM      8  H   UNL     1      35.428 -15.636 -21.305  0.00  0.00    +0.133 HD
ATOM      9  H   UNL     1      35.520 -15.411 -22.497  0.00  0.00    +0.133 HD
ATOM     10  H   UNL     1      33.026 -16.343 -24.583  0.00  0.00    +0.156 HD
ENDROOT
BRANCH   4  12
ATOM     11  O   UNL     1      37.024 -18.300 -21.615  0.00  0.00    -0.285 OA
ATOM     12  C   UNL     1      35.788 -18.341 -21.587  0.00  0.00    +0.208 C 
BRANCH  12  13
ATOM     13  C   UNL     1      35.112 -19.356 -20.726  0.00  0.00    +0.040 C 
ATOM     14  C   UNL     1      33.737 -19.408 -20.726  0.00  0.00    +0.004 C 
ATOM     15  C   UNL     1      35.890 -20.199 -19.967  0.00  0.00    +0.004 C 
ATOM     16  C   UNL     1      33.865 -21.226 -19.140  0.00  0.00    +0.025 C 
ATOM     17  C   UNL     1      33.105 -20.357 -19.922  0.00  0.00    +0.006 C 
ATOM     18  C   UNL     1      35.258 -21.148 -19.164  0.00  0.00    +0.006 C 
BRANCH  16  19
ATOM     19  S   UNL     1      33.058 -22.439 -18.113  0.00  0.00    -0.113 S 
ATOM     20  C   UNL     1      34.192 -22.446 -16.708  0.00  0.00    +0.074 C 
ENDBRANCH  16  19
ENDBRANCH  12  13
ENDBRANCH   4  12
TORSDOF 3
ENDMDL
MODEL 4
REMARK VINA RESULT:      -9.3      4.798      7.062
REMARK  Name = 53708
REMARK  3 active torsions:
REMARK  status: ('A' for Active; 'I' for Inactive)
REMARK    1  A    between atoms: C_4  and  C_12
REMARK    2  A    between atoms: C_12  and  C_13
REMARK    3  A    between atoms: C_16  and  S_19
REMARK                            x       y       z     vdW  Elec       q    Type
REMARK                         _______ _______ _______ _____ _____    ______ ____
ROOT
ATOM      1  O   UNL     1      35.647 -22.551 -13.900  0.00  0.00    -0.254 OA
ATOM      2  N   UNL     1      34.937 -22.703 -16.160  0.00  0.00    -0.334 NA
ATOM      3  N   UNL     1      33.369 -22.579 -14.571  0.00  0.00    -0.272 N 
ATOM      4  C   UNL     1      33.696 -22.734 -16.746  0.00  0.00    +0.084 C 
ATOM      5  C   UNL     1      32.747 -22.660 -15.798  0.00  0.00    +0.044 C 
ATOM      6  C   UNL     1      34.776 -22.603 -14.754  0.00  0.00    +0.292 C 
ATOM      7  C   UNL     1      31.268 -22.655 -15.885  0.00  0.00    +0.049 C 
ATOM      8  H   UNL     1      35.797 -22.743 -16.638  0.00  0.00    +0.133 HD
ATOM      9  H   UNL     1      35.376 -21.855 -15.920  0.00  0.00    +0.133 HD
ATOM     10  H   UNL     1      32.909 -22.513 -13.702  0.00  0.00    +0.156 HD
ENDROOT
BRANCH   4  12
ATOM     11  O   UNL     1      33.132 -23.879 -18.712  0.00  0.00    -0.285 OA
ATOM     12  C   UNL     1      33.534 -22.835 -18.186  0.00  0.00    +0.208 C 
BRANCH  12  13
ATOM     13  C   UNL     1      33.835 -21.654 -19.047  0.00  0.00    +0.040 C 
ATOM     14  C   UNL     1      35.150 -21.313 -19.262  0.00  0.00    +0.004 C 
ATOM     15  C   UNL     1      32.785 -20.951 -19.592  0.00  0.00    +0.004 C 
ATOM     16  C   UNL     1      34.389 -19.476 -20.634  0.00  0.00    +0.025 C 
ATOM     17  C   UNL     1      35.431 -20.208 -20.067  0.00  0.00    +0.006 C 
ATOM     18  C   UNL     1      33.066 -19.848 -20.398  0.00  0.00    +0.006 C 
BRANCH  16  19
ATOM     19  S   UNL     1      34.748 -18.066 -21.664  0.00  0.00    -0.113 S 
ATOM     20  C   UNL     1      36.551 -18.160 -21.685  0.00  0.00    +0.074 C 
ENDBRANCH  16  19
ENDBRANCH  12  13
ENDBRANCH   4  12
TORSDOF 3
ENDMDL
MODEL 5
REMARK VINA RESULT:      -9.2      4.190      6.793
REMARK  Name = 53708
REMARK  3 active torsions:
REMARK  status: ('A' for Active; 'I' for Inactive)
REMARK    1  A    between atoms: C_4  and  C_12
REMARK    2  A    between atoms: C_12  and  C_13
REMARK    3  A    between atoms: C_16  and  S_19
REMARK                            x       y       z     vdW  Elec       q    Type
REMARK                         _______ _______ _______ _____ _____    ______ ____
ROOT
ATOM      1  O   UNL     1      36.417 -18.350 -20.578  0.00  0.00    -0.254 OA
ATOM      2  N   UNL     1      35.484 -16.714 -22.024  0.00  0.00    -0.334 NA
ATOM      3  N   UNL     1      34.870 -18.844 -22.312  0.00  0.00    -0.272 N 
ATOM      4  C   UNL     1      34.594 -16.790 -23.066  0.00  0.00    +0.084 C 
ATOM      5  C   UNL     1      34.220 -18.067 -23.247  0.00  0.00    +0.044 C 
ATOM      6  C   UNL     1      35.693 -18.017 -21.505  0.00  0.00    +0.292 C 
ATOM      7  C   UNL     1      33.294 -18.693 -24.220  0.00  0.00    +0.049 C 
ATOM      8  H   UNL     1      35.907 -15.888 -21.691  0.00  0.00    +0.133 HD
ATOM      9  H   UNL     1      35.183 -16.659 -21.088  0.00  0.00    +0.133 HD
ATOM     10  H   UNL     1      34.778 -19.820 -22.219  0.00  0.00    +0.156 HD
ENDROOT
BRANCH   4  12
ATOM     11  O   UNL     1      34.358 -15.525 -25.026  0.00  0.00    -0.285 OA
ATOM     12  C   UNL     1      34.180 -15.610 -23.804  0.00  0.00    +0.208 C 
BRANCH  12  13
ATOM     13  C   UNL     1      33.507 -14.488 -23.086  0.00  0.00    +0.040 C 
ATOM     14  C   UNL     1      33.589 -14.442 -21.713  0.00  0.00    +0.004 C 
ATOM     15  C   UNL     1      32.831 -13.544 -23.824  0.00  0.00    +0.004 C 
ATOM     16  C   UNL     1      32.266 -12.421 -21.761  0.00  0.00    +0.025 C 
ATOM     17  C   UNL     1      32.959 -13.393 -21.042  0.00  0.00    +0.006 C 
ATOM     18  C   UNL     1      32.203 -12.495 -23.153  0.00  0.00    +0.006 C 
BRANCH  16  19
ATOM     19  S   UNL     1      31.463 -11.080 -20.903  0.00  0.00    -0.113 S 
ATOM     20  C   UNL     1      31.311  -9.902 -22.263  0.00  0.00    +0.074 C 
ENDBRANCH  16  19
ENDBRANCH  12  13
ENDBRANCH   4  12
TORSDOF 3
ENDMDL
MODEL 6
REMARK VINA RESULT:      -9.1      4.828      7.252
REMARK  Name = 53708
REMARK  3 active torsions:
REMARK  status: ('A' for Active; 'I' for Inactive)
REMARK    1  A    between atoms: C_4  and  C_12
REMARK    2  A    between atoms: C_12  and  C_13
REMARK    3  A    between atoms: C_16  and  S_19
REMARK                            x       y       z     vdW  Elec       q    Type
REMARK                         _______ _______ _______ _____ _____    ______ ____
ROOT
ATOM      1  O   UNL     1      30.382 -22.398 -14.299  0.00  0.00    -0.254 OA
ATOM      2  N   UNL     1      31.441 -22.690 -16.403  0.00  0.00    -0.334 NA
ATOM      3  N   UNL     1      32.736 -22.520 -14.589  0.00  0.00    -0.272 N 
ATOM      4  C   UNL     1      32.758 -22.783 -16.778  0.00  0.00    +0.084 C 
ATOM      5  C   UNL     1      33.544 -22.681 -15.694  0.00  0.00    +0.044 C 
ATOM      6  C   UNL     1      31.377 -22.520 -14.997  0.00  0.00    +0.292 C 
ATOM      7  C   UNL     1      35.018 -22.715 -15.540  0.00  0.00    +0.049 C 
ATOM      8  H   UNL     1      30.668 -22.736 -17.012  0.00  0.00    +0.133 HD
ATOM      9  H   UNL     1      30.937 -23.473 -16.081  0.00  0.00    +0.133 HD
ATOM     10  H   UNL     1      33.053 -22.421 -13.661  0.00  0.00    +0.156 HD
ENDROOT
BRANCH   4  12
ATOM     11  O   UNL     1      33.096 -24.075 -18.705  0.00  0.00    -0.285 OA
ATOM     12  C   UNL     1      33.145 -22.963 -18.167  0.00  0.00    +0.208 C 
BRANCH  12  13
ATOM     13  C   UNL     1      33.587 -21.784 -18.968  0.00  0.00    +0.040 C 
ATOM     14  C   UNL     1      32.630 -20.995 -19.563  0.00  0.00    +0.004 C 
ATOM     15  C   UNL     1      34.935 -21.531 -19.080  0.00  0.00    +0.004 C 
ATOM     16  C   UNL     1      34.402 -19.610 -20.444  0.00  0.00    +0.025 C 
ATOM     17  C   UNL     1      33.043 -19.892 -20.311  0.00  0.00    +0.006 C 
ATOM     18  C   UNL     1      35.348 -20.429 -19.828  0.00  0.00    +0.006 C 
BRANCH  16  19
ATOM     19  S   UNL     1      34.930 -18.201 -21.400  0.00  0.00    -0.113 S 
ATOM     20  C   UNL     1      34.145 -18.596 -22.977  0.00  0.00    +0.074 C 
ENDBRANCH  16  19
ENDBRANCH  12  13
ENDBRANCH   4  12
TORSDOF 3
ENDMDL
MODEL 7
REMARK VINA RESULT:      -9.0      3.876      6.417
REMARK  Name = 53708
REMARK  3 active torsions:
REMARK  status: ('A' for Active; 'I' for Inactive)
REMARK    1  A    between atoms: C_4  and  C_12
REMARK    2  A    between atoms: C_12  and  C_13
REMARK    3  A    between atoms: C_16  and  S_19
REMARK                            x       y       z     vdW  Elec       q    Type
REMARK                         _______ _______ _______ _____ _____    ______ ____
ROOT
ATOM      1  O   UNL     1      33.455 -20.652 -19.388  0.00  0.00    -0.254 OA
ATOM      2  N   UNL     1      33.426 -19.426 -21.421  0.00  0.00    -0.334 NA
ATOM      3  N   UNL     1      35.349 -19.536 -20.286  0.00  0.00    -0.272 N 
ATOM      4  C   UNL     1      34.391 -18.724 -22.098  0.00  0.00    +0.084 C 
ATOM      5  C   UNL     1      35.550 -18.784 -21.424  0.00  0.00    +0.044 C 
ATOM      6  C   UNL     1      33.999 -19.970 -20.243  0.00  0.00    +0.292 C 
ATOM      7  C   UNL     1      36.886 -18.208 -21.708  0.00  0.00    +0.049 C 
ATOM      8  H   UNL     1      32.489 -19.535 -21.707  0.00  0.00    +0.133 HD
ATOM      9  H   UNL     1      33.325 -20.401 -21.523  0.00  0.00    +0.133 HD
ATOM     10  H   UNL     1      36.036 -19.742 -19.610  0.00  0.00    +0.156 HD
ENDROOT
BRANCH   4  12
ATOM     11  O   UNL     1      33.997 -18.679 -24.409  0.00  0.00    -0.285 OA
ATOM     12  C   UNL     1      34.104 -18.047 -23.351  0.00  0.00    +0.208 C 
BRANCH  12  13
ATOM     13  C   UNL     1      33.910 -16.568 -23.363  0.00  0.00    +0.040 C 
ATOM     14  C   UNL     1      33.438 -15.975 -24.512  0.00  0.00    +0.004 C 
ATOM     15  C   UNL     1      34.210 -15.854 -22.226  0.00  0.00    +0.004 C 
ATOM     16  C   UNL     1      33.551 -13.840 -23.386  0.00  0.00    +0.025 C 
ATOM     17  C   UNL     1      33.256 -14.591 -24.523  0.00  0.00    +0.006 C 
ATOM     18  C   UNL     1      34.028 -14.472 -22.237  0.00  0.00    +0.006 C 
BRANCH  16  19
ATOM     19  S   UNL     1      33.318 -12.073 -23.400  0.00  0.00    -0.113 S 
ATOM     20  C   UNL     1      31.988 -11.936 -22.187  0.00  0.00    +0.074 C 
ENDBRANCH  16  19
ENDBRANCH  12  13
ENDBRANCH   4  12
TORSDOF 3
ENDMDL
MODEL 8
REMARK VINA RESULT:      -8.9      2.471      3.650
REMARK  Name = 53708
REMARK  3 active torsions:
REMARK  status: ('A' for Active; 'I' for Inactive)
REMARK    1  A    between atoms: C_4  and  C_12
REMARK    2  A    between atoms: C_12  and  C_13
REMARK    3  A    between atoms: C_16  and  S_19
REMARK                            x       y       z     vdW  Elec       q    Type
REMARK                         _______ _______ _______ _____ _____    ______ ____
ROOT
ATOM      1  O   UNL     1      32.349 -12.345 -20.935  0.00  0.00    -0.254 OA
ATOM      2  N   UNL     1      33.291 -14.148 -22.159  0.00  0.00    -0.334 NA
ATOM      3  N   UNL     1      32.363 -12.469 -23.307  0.00  0.00    -0.272 N 
ATOM      4  C   UNL     1      33.399 -14.405 -23.503  0.00  0.00    +0.084 C 
ATOM      5  C   UNL     1      32.843 -13.402 -24.201  0.00  0.00    +0.044 C 
ATOM      6  C   UNL     1      32.629 -12.906 -21.983  0.00  0.00    +0.292 C 
ATOM      7  C   UNL     1      32.691 -13.182 -25.659  0.00  0.00    +0.049 C 
ATOM      8  H   UNL     1      33.621 -14.730 -21.436  0.00  0.00    +0.133 HD
ATOM      9  H   UNL     1      33.944 -13.584 -21.685  0.00  0.00    +0.133 HD
ATOM     10  H   UNL     1      31.908 -11.629 -23.549  0.00  0.00    +0.156 HD
ENDROOT
BRANCH   4  12
ATOM     11  O   UNL     1      34.400 -15.705 -25.178  0.00  0.00    -0.285 OA
ATOM     12  C   UNL     1      34.035 -15.613 -24.000  0.00  0.00    +0.208 C 
BRANCH  12  13
ATOM     13  C   UNL     1      34.275 -16.756 -23.071  0.00  0.00    +0.040 C 
ATOM     14  C   UNL     1      33.856 -18.011 -23.448  0.00  0.00    +0.004 C 
ATOM     15  C   UNL     1      34.907 -16.511 -21.874  0.00  0.00    +0.004 C 
ATOM     16  C   UNL     1      34.719 -18.863 -21.359  0.00  0.00    +0.025 C 
ATOM     17  C   UNL     1      34.081 -19.080 -22.579  0.00  0.00    +0.006 C 
ATOM     18  C   UNL     1      35.133 -17.579 -21.006  0.00  0.00    +0.006 C 
BRANCH  16  19
ATOM     19  S   UNL     1      35.008 -20.229 -20.250  0.00  0.00    -0.113 S 
ATOM     20  C   UNL     1      33.307 -20.580 -19.757  0.00  0.00    +0.074 C 
ENDBRANCH  16  19
ENDBRANCH  12  13
ENDBRANCH   4  12
TORSDOF 3
ENDMDL
MODEL 9
REMARK VINA RESULT:      -8.8      3.463      6.119
REMARK  Name = 53708
REMARK  3 active torsions:
REMARK  status: ('A' for Active; 'I' for Inactive)
REMARK    1  A    between atoms: C_4  and  C_12
REMARK    2  A    between atoms: C_12  and  C_13
REMARK    3  A    between atoms: C_16  and  S_19
REMARK                            x       y       z     vdW  Elec       q    Type
REMARK                         _______ _______ _______ _____ _____    ______ ____
ROOT
ATOM      1  O   UNL     1      31.555 -20.894 -20.238  0.00  0.00    -0.254 OA
ATOM      2  N   UNL     1      33.297 -19.441 -20.938  0.00  0.00    -0.334 NA
ATOM      3  N   UNL     1      33.809 -21.085 -19.512  0.00  0.00    -0.272 N 
ATOM      4  C   UNL     1      34.636 -19.382 -20.641  0.00  0.00    +0.084 C 
ATOM      5  C   UNL     1      34.953 -20.366 -19.785  0.00  0.00    +0.044 C 
ATOM      6  C   UNL     1      32.720 -20.526 -20.231  0.00  0.00    +0.292 C 
ATOM      7  C   UNL     1      36.239 -20.746 -19.154  0.00  0.00    +0.049 C 
ATOM      8  H   UNL     1      32.817 -18.830 -21.543  0.00  0.00    +0.133 HD
ATOM      9  H   UNL     1      32.947 -20.035 -21.640  0.00  0.00    +0.133 HD
ATOM     10  H   UNL     1      33.755 -21.865 -18.913  0.00  0.00    +0.156 HD
ENDROOT
BRANCH   4  12
ATOM     11  O   UNL     1      36.725 -18.531 -21.282  0.00  0.00    -0.285 OA
ATOM     12  C   UNL     1      35.501 -18.366 -21.217  0.00  0.00    +0.208 C 
BRANCH  12  13
ATOM     13  C   UNL     1      34.905 -17.112 -21.763  0.00  0.00    +0.040 C 
ATOM     14  C   UNL     1      34.538 -16.120 -20.882  0.00  0.00    +0.004 C 
ATOM     15  C   UNL     1      34.744 -16.995 -23.124  0.00  0.00    +0.004 C 
ATOM     16  C   UNL     1      33.805 -14.799 -22.768  0.00  0.00    +0.025 C 
ATOM     17  C   UNL     1      33.980 -14.946 -21.393  0.00  0.00    +0.006 C 
ATOM     18  C   UNL     1      34.188 -15.823 -23.634  0.00  0.00    +0.006 C 
BRANCH  16  19
ATOM     19  S   UNL     1      33.094 -13.300 -23.419  0.00  0.00    -0.113 S 
ATOM     20  C   UNL     1      32.303 -12.668 -21.924  0.00  0.00    +0.074 C 
ENDBRANCH  16  19
ENDBRANCH  12  13
ENDBRANCH   4  12
TORSDOF 3
ENDMDL
