MODEL 1
REMARK VINA RESULT:     -15.0      0.000      0.000
REMARK  Name = 21081761
REMARK  5 active torsions:
REMARK  status: ('A' for Active; 'I' for Inactive)
REMARK    1  A    between atoms: N_2  and  C_6
REMARK    2  A    between atoms: C_3  and  C_25
REMARK    3  A    between atoms: C_7  and  O_12
REMARK    4  A    between atoms: O_12  and  C_16
REMARK    5  A    between atoms: N_24  and  C_31
REMARK                            x       y       z     vdW  Elec       q    Type
REMARK                         _______ _______ _______ _____ _____    ______ ____
ROOT
ATOM      1  O   UNL     1      35.646 -17.190 -20.661  0.00  0.00    -0.270 OA
ATOM      2  N   UNL     1      33.763 -18.453 -21.315  0.00  0.00    -0.280 N 
ATOM      3  C   UNL     1      34.645 -17.371 -21.345  0.00  0.00    +0.254 C 
ATOM      4  H   UNL     1      33.010 -18.415 -21.948  0.00  0.00    +0.155 HD
ENDROOT
BRANCH   2   6
ATOM      5  F   UNL     1      36.296 -21.664 -18.837  0.00  0.00    -0.201 F 
ATOM      6  C   UNL     1      33.819 -19.582 -20.497  0.00  0.00    +0.053 C 
ATOM      7  C   UNL     1      33.930 -21.840 -18.863  0.00  0.00    +0.173 C 
ATOM      8  C   UNL     1      35.052 -20.071 -20.065  0.00  0.00    +0.047 C 
ATOM      9  C   UNL     1      32.641 -20.222 -20.110  0.00  0.00    +0.018 C 
ATOM     10  C   UNL     1      35.108 -21.201 -19.249  0.00  0.00    +0.176 C 
ATOM     11  C   UNL     1      32.697 -21.352 -19.294  0.00  0.00    +0.041 C 
BRANCH   7  12
ATOM     12  O   UNL     1      33.985 -22.960 -18.055  0.00  0.00    -0.451 OA
BRANCH  12  16
ATOM     13  N   UNL     1      34.430 -22.749 -13.426  0.00  0.00    -0.297 N 
ATOM     14  N   UNL     1      32.169 -22.692 -14.252  0.00  0.00    -0.229 NA
ATOM     15  C   UNL     1      34.183 -22.849 -15.642  0.00  0.00    +0.067 C 
ATOM     16  C   UNL     1      33.413 -22.874 -16.817  0.00  0.00    +0.150 C 
ATOM     17  C   UNL     1      33.501 -22.759 -14.433  0.00  0.00    +0.135 C 
ATOM     18  C   UNL     1      35.568 -22.894 -15.332  0.00  0.00    +0.022 C 
ATOM     19  C   UNL     1      35.690 -22.831 -13.961  0.00  0.00    +0.063 C 
ATOM     20  C   UNL     1      32.026 -22.807 -16.688  0.00  0.00    +0.058 C 
ATOM     21  C   UNL     1      31.478 -22.721 -15.415  0.00  0.00    +0.103 C 
ATOM     22  H   UNL     1      34.226 -22.691 -12.464  0.00  0.00    +0.154 HD
ENDBRANCH  12  16
ENDBRANCH   7  12
ENDBRANCH   2   6
BRANCH   3  25
ATOM     23  O   UNL     1      33.451 -14.821 -20.780  0.00  0.00    -0.269 OA
ATOM     24  N   UNL     1      33.412 -14.140 -23.044  0.00  0.00    -0.233 N 
ATOM     25  C   UNL     1      34.265 -16.365 -22.342  0.00  0.00    +0.108 C 
ATOM     26  C   UNL     1      33.685 -15.029 -21.970  0.00  0.00    +0.261 C 
ATOM     27  C   UNL     1      33.615 -14.559 -24.359  0.00  0.00    +0.072 C 
ATOM     28  C   UNL     1      34.439 -16.691 -23.628  0.00  0.00    +0.010 C 
ATOM     29  C   UNL     1      34.096 -15.767 -24.668  0.00  0.00    +0.017 C 
BRANCH  24  31
ATOM     30  F   UNL     1      31.444  -9.029 -21.982  0.00  0.00    -0.204 F 
ATOM     31  C   UNL     1      32.900 -12.812 -22.768  0.00  0.00    +0.059 C 
ATOM     32  C   UNL     1      33.361 -11.720 -23.504  0.00  0.00    +0.018 C 
ATOM     33  C   UNL     1      31.947 -12.626 -21.766  0.00  0.00    +0.018 C 
ATOM     34  C   UNL     1      32.869 -10.442 -23.239  0.00  0.00    +0.031 C 
ATOM     35  C   UNL     1      31.454 -11.348 -21.501  0.00  0.00    +0.031 C 
ATOM     36  C   UNL     1      31.915 -10.256 -22.237  0.00  0.00    +0.140 C 
ENDBRANCH  24  31
ENDBRANCH   3  25
TORSDOF 5
ENDMDL
MODEL 2
REMARK VINA RESULT:     -14.6      3.676     12.240
REMARK  Name = 21081761
REMARK  5 active torsions:
REMARK  status: ('A' for Active; 'I' for Inactive)
REMARK    1  A    between atoms: N_2  and  C_6
REMARK    2  A    between atoms: C_3  and  C_25
REMARK    3  A    between atoms: C_7  and  O_12
REMARK    4  A    between atoms: O_12  and  C_16
REMARK    5  A    between atoms: N_24  and  C_31
REMARK                            x       y       z     vdW  Elec       q    Type
REMARK                         _______ _______ _______ _____ _____    ______ ____
ROOT
ATOM      1  O   UNL     1      34.196 -13.319 -20.878  0.00  0.00    -0.270 OA
ATOM      2  N   UNL     1      32.754 -13.199 -22.741  0.00  0.00    -0.280 N 
ATOM      3  C   UNL     1      33.685 -13.792 -21.885  0.00  0.00    +0.254 C 
ATOM      4  H   UNL     1      32.460 -13.744 -23.506  0.00  0.00    +0.155 HD
ENDROOT
BRANCH   2   6
ATOM      5  F   UNL     1      29.652 -10.174 -20.716  0.00  0.00    -0.201 F 
ATOM      6  C   UNL     1      32.190 -11.926 -22.644  0.00  0.00    +0.053 C 
ATOM      7  C   UNL     1      31.062  -9.382 -22.452  0.00  0.00    +0.173 C 
ATOM      8  C   UNL     1      31.183 -11.678 -21.711  0.00  0.00    +0.047 C 
ATOM      9  C   UNL     1      32.634 -10.901 -23.480  0.00  0.00    +0.018 C 
ATOM     10  C   UNL     1      30.618 -10.406 -21.615  0.00  0.00    +0.176 C 
ATOM     11  C   UNL     1      32.069  -9.630 -23.385  0.00  0.00    +0.041 C 
BRANCH   7  12
ATOM     12  O   UNL     1      30.502  -8.122 -22.359  0.00  0.00    -0.451 OA
BRANCH  12  16
ATOM     13  N   UNL     1      31.588  -3.697 -21.402  0.00  0.00    -0.297 N 
ATOM     14  N   UNL     1      32.481  -5.335 -19.879  0.00  0.00    -0.229 NA
ATOM     15  C   UNL     1      31.085  -5.829 -21.834  0.00  0.00    +0.067 C 
ATOM     16  C   UNL     1      31.137  -7.207 -21.566  0.00  0.00    +0.150 C 
ATOM     17  C   UNL     1      31.766  -4.983 -20.964  0.00  0.00    +0.135 C 
ATOM     18  C   UNL     1      30.484  -5.006 -22.823  0.00  0.00    +0.022 C 
ATOM     19  C   UNL     1      30.810  -3.699 -22.532  0.00  0.00    +0.063 C 
ATOM     20  C   UNL     1      31.864  -7.627 -20.453  0.00  0.00    +0.058 C 
ATOM     21  C   UNL     1      32.497  -6.672 -19.670  0.00  0.00    +0.103 C 
ATOM     22  H   UNL     1      31.961  -2.893 -20.973  0.00  0.00    +0.154 HD
ENDBRANCH  12  16
ENDBRANCH   7  12
ENDBRANCH   2   6
BRANCH   3  25
ATOM     23  O   UNL     1      34.345 -15.968 -20.133  0.00  0.00    -0.269 OA
ATOM     24  N   UNL     1      34.628 -17.528 -21.888  0.00  0.00    -0.233 N 
ATOM     25  C   UNL     1      34.048 -15.149 -22.307  0.00  0.00    +0.108 C 
ATOM     26  C   UNL     1      34.338 -16.254 -21.330  0.00  0.00    +0.261 C 
ATOM     27  C   UNL     1      34.704 -17.676 -23.273  0.00  0.00    +0.072 C 
ATOM     28  C   UNL     1      34.133 -15.372 -23.623  0.00  0.00    +0.010 C 
ATOM     29  C   UNL     1      34.480 -16.669 -24.123  0.00  0.00    +0.017 C 
BRANCH  24  31
ATOM     30  F   UNL     1      35.547 -21.885 -18.527  0.00  0.00    -0.204 F 
ATOM     31  C   UNL     1      34.867 -18.660 -21.014  0.00  0.00    +0.059 C 
ATOM     32  C   UNL     1      33.802 -19.467 -20.612  0.00  0.00    +0.018 C 
ATOM     33  C   UNL     1      36.161 -18.943 -20.577  0.00  0.00    +0.018 C 
ATOM     34  C   UNL     1      34.032 -20.557 -19.772  0.00  0.00    +0.031 C 
ATOM     35  C   UNL     1      36.391 -20.032 -19.737  0.00  0.00    +0.031 C 
ATOM     36  C   UNL     1      35.327 -20.839 -19.335  0.00  0.00    +0.140 C 
ENDBRANCH  24  31
ENDBRANCH   3  25
TORSDOF 5
ENDMDL
MODEL 3
REMARK VINA RESULT:     -14.6      0.394      1.757
REMARK  Name = 21081761
REMARK  5 active torsions:
REMARK  status: ('A' for Active; 'I' for Inactive)
REMARK    1  A    between atoms: N_2  and  C_6
REMARK    2  A    between atoms: C_3  and  C_25
REMARK    3  A    between atoms: C_7  and  O_12
REMARK    4  A    between atoms: O_12  and  C_16
REMARK    5  A    between atoms: N_24  and  C_31
REMARK                            x       y       z     vdW  Elec       q    Type
REMARK                         _______ _______ _______ _____ _____    ______ ____
ROOT
ATOM      1  O   UNL     1      35.615 -17.148 -20.618  0.00  0.00    -0.270 OA
ATOM      2  N   UNL     1      33.765 -18.441 -21.307  0.00  0.00    -0.280 N 
ATOM      3  C   UNL     1      34.629 -17.343 -21.318  0.00  0.00    +0.254 C 
ATOM      4  H   UNL     1      33.021 -18.413 -21.951  0.00  0.00    +0.155 HD
ENDROOT
BRANCH   2   6
ATOM      5  F   UNL     1      36.324 -21.749 -18.986  0.00  0.00    -0.201 F 
ATOM      6  C   UNL     1      33.829 -19.573 -20.494  0.00  0.00    +0.053 C 
ATOM      7  C   UNL     1      33.956 -21.837 -18.869  0.00  0.00    +0.173 C 
ATOM      8  C   UNL     1      35.067 -20.108 -20.138  0.00  0.00    +0.047 C 
ATOM      9  C   UNL     1      32.654 -20.170 -20.036  0.00  0.00    +0.018 C 
ATOM     10  C   UNL     1      35.131 -21.241 -19.326  0.00  0.00    +0.176 C 
ATOM     11  C   UNL     1      32.717 -21.303 -19.225  0.00  0.00    +0.041 C 
BRANCH   7  12
ATOM     12  O   UNL     1      34.018 -22.960 -18.066  0.00  0.00    -0.451 OA
BRANCH  12  16
ATOM     13  N   UNL     1      31.849 -22.558 -13.965  0.00  0.00    -0.297 N 
ATOM     14  N   UNL     1      34.248 -22.357 -13.892  0.00  0.00    -0.229 NA
ATOM     15  C   UNL     1      32.919 -22.746 -15.916  0.00  0.00    +0.067 C 
ATOM     16  C   UNL     1      34.075 -22.766 -16.714  0.00  0.00    +0.150 C 
ATOM     17  C   UNL     1      33.088 -22.542 -14.550  0.00  0.00    +0.135 C 
ATOM     18  C   UNL     1      31.524 -22.888 -16.142  0.00  0.00    +0.022 C 
ATOM     19  C   UNL     1      30.891 -22.768 -14.924  0.00  0.00    +0.063 C 
ATOM     20  C   UNL     1      35.304 -22.581 -16.084  0.00  0.00    +0.058 C 
ATOM     21  C   UNL     1      35.327 -22.385 -14.709  0.00  0.00    +0.103 C 
ATOM     22  H   UNL     1      31.673 -22.438 -13.004  0.00  0.00    +0.154 HD
ENDBRANCH  12  16
ENDBRANCH   7  12
ENDBRANCH   2   6
BRANCH   3  25
ATOM     23  O   UNL     1      33.439 -14.791 -20.754  0.00  0.00    -0.269 OA
ATOM     24  N   UNL     1      33.392 -14.115 -23.020  0.00  0.00    -0.233 N 
ATOM     25  C   UNL     1      34.245 -16.339 -22.316  0.00  0.00    +0.108 C 
ATOM     26  C   UNL     1      33.669 -15.002 -21.946  0.00  0.00    +0.261 C 
ATOM     27  C   UNL     1      33.589 -14.537 -24.335  0.00  0.00    +0.072 C 
ATOM     28  C   UNL     1      34.415 -16.669 -23.602  0.00  0.00    +0.010 C 
ATOM     29  C   UNL     1      34.069 -15.747 -24.643  0.00  0.00    +0.017 C 
BRANCH  24  31
ATOM     30  F   UNL     1      31.434  -9.000 -21.960  0.00  0.00    -0.204 F 
ATOM     31  C   UNL     1      32.883 -12.786 -22.745  0.00  0.00    +0.059 C 
ATOM     32  C   UNL     1      31.923 -12.599 -21.750  0.00  0.00    +0.018 C 
ATOM     33  C   UNL     1      33.354 -11.694 -23.475  0.00  0.00    +0.018 C 
ATOM     34  C   UNL     1      31.434 -11.320 -21.484  0.00  0.00    +0.031 C 
ATOM     35  C   UNL     1      32.865 -10.415 -23.209  0.00  0.00    +0.031 C 
ATOM     36  C   UNL     1      31.905 -10.227 -22.214  0.00  0.00    +0.140 C 
ENDBRANCH  24  31
ENDBRANCH   3  25
TORSDOF 5
ENDMDL
MODEL 4
REMARK VINA RESULT:     -14.4      2.131      3.227
REMARK  Name = 21081761
REMARK  5 active torsions:
REMARK  status: ('A' for Active; 'I' for Inactive)
REMARK    1  A    between atoms: N_2  and  C_6
REMARK    2  A    between atoms: C_3  and  C_25
REMARK    3  A    between atoms: C_7  and  O_12
REMARK    4  A    between atoms: O_12  and  C_16
REMARK    5  A    between atoms: N_24  and  C_31
REMARK                            x       y       z     vdW  Elec       q    Type
REMARK                         _______ _______ _______ _____ _____    ______ ____
ROOT
ATOM      1  O   UNL     1      36.222 -19.291 -20.224  0.00  0.00    -0.270 OA
ATOM      2  N   UNL     1      34.038 -20.177 -20.114  0.00  0.00    -0.280 N 
ATOM      3  C   UNL     1      35.068 -19.386 -20.626  0.00  0.00    +0.254 C 
ATOM      4  H   UNL     1      33.172 -20.114 -20.578  0.00  0.00    +0.155 HD
ENDROOT
BRANCH   2   6
ATOM      5  F   UNL     1      31.841 -23.116 -17.047  0.00  0.00    -0.201 F 
ATOM      6  C   UNL     1      34.085 -21.045 -19.023  0.00  0.00    +0.053 C 
ATOM      7  C   UNL     1      34.180 -22.780 -16.841  0.00  0.00    +0.173 C 
ATOM      8  C   UNL     1      32.918 -21.660 -18.568  0.00  0.00    +0.047 C 
ATOM      9  C   UNL     1      35.300 -21.299 -18.386  0.00  0.00    +0.018 C 
ATOM     10  C   UNL     1      32.965 -22.528 -17.477  0.00  0.00    +0.176 C 
ATOM     11  C   UNL     1      35.348 -22.166 -17.294  0.00  0.00    +0.041 C 
BRANCH   7  12
ATOM     12  O   UNL     1      34.228 -23.639 -15.758  0.00  0.00    -0.451 OA
BRANCH  12  16
ATOM     13  N   UNL     1      37.825 -25.739 -13.679  0.00  0.00    -0.297 N 
ATOM     14  N   UNL     1      37.612 -23.379 -13.245  0.00  0.00    -0.229 NA
ATOM     15  C   UNL     1      36.110 -24.702 -14.662  0.00  0.00    +0.067 C 
ATOM     16  C   UNL     1      35.326 -23.572 -14.947  0.00  0.00    +0.150 C 
ATOM     17  C   UNL     1      37.206 -24.525 -13.824  0.00  0.00    +0.135 C 
ATOM     18  C   UNL     1      36.084 -26.076 -15.022  0.00  0.00    +0.022 C 
ATOM     19  C   UNL     1      37.151 -26.688 -14.402  0.00  0.00    +0.063 C 
ATOM     20  C   UNL     1      35.701 -22.358 -14.373  0.00  0.00    +0.058 C 
ATOM     21  C   UNL     1      36.821 -22.325 -13.554  0.00  0.00    +0.103 C 
ATOM     22  H   UNL     1      38.631 -25.905 -13.137  0.00  0.00    +0.154 HD
ENDBRANCH  12  16
ENDBRANCH   7  12
ENDBRANCH   2   6
BRANCH   3  25
ATOM     23  O   UNL     1      34.453 -16.581 -20.612  0.00  0.00    -0.269 OA
ATOM     24  N   UNL     1      34.027 -16.483 -22.936  0.00  0.00    -0.233 N 
ATOM     25  C   UNL     1      34.645 -18.597 -21.788  0.00  0.00    +0.108 C 
ATOM     26  C   UNL     1      34.383 -17.119 -21.717  0.00  0.00    +0.261 C 
ATOM     27  C   UNL     1      33.867 -17.245 -24.094  0.00  0.00    +0.072 C 
ATOM     28  C   UNL     1      34.478 -19.258 -22.940  0.00  0.00    +0.010 C 
ATOM     29  C   UNL     1      34.068 -18.566 -24.125  0.00  0.00    +0.017 C 
BRANCH  24  31
ATOM     30  F   UNL     1      33.188 -10.969 -23.047  0.00  0.00    -0.204 F 
ATOM     31  C   UNL     1      33.809 -15.050 -22.965  0.00  0.00    +0.059 C 
ATOM     32  C   UNL     1      33.405 -14.430 -24.147  0.00  0.00    +0.018 C 
ATOM     33  C   UNL     1      34.004 -14.291 -21.810  0.00  0.00    +0.018 C 
ATOM     34  C   UNL     1      33.194 -13.051 -24.175  0.00  0.00    +0.031 C 
ATOM     35  C   UNL     1      33.793 -12.913 -21.837  0.00  0.00    +0.031 C 
ATOM     36  C   UNL     1      33.389 -12.293 -23.020  0.00  0.00    +0.140 C 
ENDBRANCH  24  31
ENDBRANCH   3  25
TORSDOF 5
ENDMDL
MODEL 5
REMARK VINA RESULT:     -14.3      0.975      1.916
REMARK  Name = 21081761
REMARK  5 active torsions:
REMARK  status: ('A' for Active; 'I' for Inactive)
REMARK    1  A    between atoms: N_2  and  C_6
REMARK    2  A    between atoms: C_3  and  C_25
REMARK    3  A    between atoms: C_7  and  O_12
REMARK    4  A    between atoms: O_12  and  C_16
REMARK    5  A    between atoms: N_24  and  C_31
REMARK                            x       y       z     vdW  Elec       q    Type
REMARK                         _______ _______ _______ _____ _____    ______ ____
ROOT
ATOM      1  O   UNL     1      35.777 -17.508 -20.621  0.00  0.00    -0.270 OA
ATOM      2  N   UNL     1      33.781 -18.657 -21.135  0.00  0.00    -0.280 N 
ATOM      3  C   UNL     1      34.728 -17.635 -21.241  0.00  0.00    +0.254 C 
ATOM      4  H   UNL     1      32.995 -18.581 -21.723  0.00  0.00    +0.155 HD
ENDROOT
BRANCH   2   6
ATOM      5  F   UNL     1      31.567 -21.689 -18.173  0.00  0.00    -0.201 F 
ATOM      6  C   UNL     1      33.813 -19.771 -20.296  0.00  0.00    +0.053 C 
ATOM      7  C   UNL     1      33.877 -21.998 -18.618  0.00  0.00    +0.173 C 
ATOM      8  C   UNL     1      32.653 -20.184 -19.639  0.00  0.00    +0.047 C 
ATOM      9  C   UNL     1      35.004 -20.473 -20.115  0.00  0.00    +0.018 C 
ATOM     10  C   UNL     1      32.685 -21.297 -18.800  0.00  0.00    +0.176 C 
ATOM     11  C   UNL     1      35.037 -21.586 -19.275  0.00  0.00    +0.041 C 
BRANCH   7  12
ATOM     12  O   UNL     1      33.910 -23.101 -17.786  0.00  0.00    -0.451 OA
BRANCH  12  16
ATOM     13  N   UNL     1      32.571 -22.857 -13.333  0.00  0.00    -0.297 N 
ATOM     14  N   UNL     1      34.908 -22.441 -13.736  0.00  0.00    -0.229 NA
ATOM     15  C   UNL     1      33.245 -22.967 -15.459  0.00  0.00    +0.067 C 
ATOM     16  C   UNL     1      34.216 -22.891 -16.471  0.00  0.00    +0.150 C 
ATOM     17  C   UNL     1      33.662 -22.735 -14.152  0.00  0.00    +0.135 C 
ATOM     18  C   UNL     1      31.851 -23.236 -15.405  0.00  0.00    +0.022 C 
ATOM     19  C   UNL     1      31.464 -23.161 -14.084  0.00  0.00    +0.063 C 
ATOM     20  C   UNL     1      35.525 -22.589 -16.095  0.00  0.00    +0.058 C 
ATOM     21  C   UNL     1      35.802 -22.379 -14.751  0.00  0.00    +0.103 C 
ATOM     22  H   UNL     1      32.578 -22.744 -12.355  0.00  0.00    +0.154 HD
ENDBRANCH  12  16
ENDBRANCH   7  12
ENDBRANCH   2   6
BRANCH   3  25
ATOM     23  O   UNL     1      33.543 -15.083 -20.673  0.00  0.00    -0.269 OA
ATOM     24  N   UNL     1      33.512 -14.396 -22.935  0.00  0.00    -0.233 N 
ATOM     25  C   UNL     1      34.354 -16.625 -22.237  0.00  0.00    +0.108 C 
ATOM     26  C   UNL     1      33.779 -15.289 -21.863  0.00  0.00    +0.261 C 
ATOM     27  C   UNL     1      33.716 -14.812 -24.251  0.00  0.00    +0.072 C 
ATOM     28  C   UNL     1      34.530 -16.949 -23.523  0.00  0.00    +0.010 C 
ATOM     29  C   UNL     1      34.194 -16.021 -24.562  0.00  0.00    +0.017 C 
BRANCH  24  31
ATOM     30  F   UNL     1      31.562  -9.279 -21.866  0.00  0.00    -0.204 F 
ATOM     31  C   UNL     1      33.005 -13.066 -22.657  0.00  0.00    +0.059 C 
ATOM     32  C   UNL     1      33.385 -11.992 -23.463  0.00  0.00    +0.018 C 
ATOM     33  C   UNL     1      32.137 -12.860 -21.584  0.00  0.00    +0.018 C 
ATOM     34  C   UNL     1      32.897 -10.713 -23.196  0.00  0.00    +0.031 C 
ATOM     35  C   UNL     1      31.650 -11.581 -21.317  0.00  0.00    +0.031 C 
ATOM     36  C   UNL     1      32.029 -10.508 -22.123  0.00  0.00    +0.140 C 
ENDBRANCH  24  31
ENDBRANCH   3  25
TORSDOF 5
ENDMDL
MODEL 6
REMARK VINA RESULT:     -14.2      3.773      6.501
REMARK  Name = 21081761
REMARK  5 active torsions:
REMARK  status: ('A' for Active; 'I' for Inactive)
REMARK    1  A    between atoms: N_2  and  C_6
REMARK    2  A    between atoms: C_3  and  C_25
REMARK    3  A    between atoms: C_7  and  O_12
REMARK    4  A    between atoms: O_12  and  C_16
REMARK    5  A    between atoms: N_24  and  C_31
REMARK                            x       y       z     vdW  Elec       q    Type
REMARK                         _______ _______ _______ _____ _____    ______ ____
ROOT
ATOM      1  O   UNL     1      31.107 -13.005 -20.459  0.00  0.00    -0.270 OA
ATOM      2  N   UNL     1      33.075 -12.664 -21.715  0.00  0.00    -0.280 N 
ATOM      3  C   UNL     1      31.930 -12.284 -21.010  0.00  0.00    +0.254 C 
ATOM      4  H   UNL     1      33.615 -11.931 -22.090  0.00  0.00    +0.155 HD
ENDROOT
BRANCH   2   6
ATOM      5  F   UNL     1      34.299 -16.139 -24.763  0.00  0.00    -0.201 F 
ATOM      6  C   UNL     1      33.545 -13.955 -21.954  0.00  0.00    +0.053 C 
ATOM      7  C   UNL     1      34.484 -16.538 -22.432  0.00  0.00    +0.173 C 
ATOM      8  C   UNL     1      33.691 -14.414 -23.264  0.00  0.00    +0.047 C 
ATOM      9  C   UNL     1      33.870 -14.788 -20.883  0.00  0.00    +0.018 C 
ATOM     10  C   UNL     1      34.160 -15.706 -23.503  0.00  0.00    +0.176 C 
ATOM     11  C   UNL     1      34.339 -16.080 -21.122  0.00  0.00    +0.041 C 
BRANCH   7  12
ATOM     12  O   UNL     1      34.948 -17.819 -22.668  0.00  0.00    -0.451 OA
BRANCH  12  16
ATOM     13  N   UNL     1      33.360 -20.793 -19.457  0.00  0.00    -0.297 N 
ATOM     14  N   UNL     1      35.707 -20.271 -19.314  0.00  0.00    -0.229 NA
ATOM     15  C   UNL     1      34.153 -19.369 -20.983  0.00  0.00    +0.067 C 
ATOM     16  C   UNL     1      35.177 -18.617 -21.582  0.00  0.00    +0.150 C 
ATOM     17  C   UNL     1      34.492 -20.149 -19.883  0.00  0.00    +0.135 C 
ATOM     18  C   UNL     1      32.764 -19.562 -21.212  0.00  0.00    +0.022 C 
ATOM     19  C   UNL     1      32.303 -20.442 -20.258  0.00  0.00    +0.063 C 
ATOM     20  C   UNL     1      36.455 -18.706 -21.034  0.00  0.00    +0.058 C 
ATOM     21  C   UNL     1      36.653 -19.525 -19.931  0.00  0.00    +0.103 C 
ATOM     22  H   UNL     1      33.311 -21.412 -18.693  0.00  0.00    +0.154 HD
ENDBRANCH  12  16
ENDBRANCH   7  12
ENDBRANCH   2   6
BRANCH   3  25
ATOM     23  O   UNL     1      32.252 -10.490 -23.228  0.00  0.00    -0.269 OA
ATOM     24  N   UNL     1      31.652  -8.568 -21.988  0.00  0.00    -0.233 N 
ATOM     25  C   UNL     1      31.757 -10.828 -20.964  0.00  0.00    +0.108 C 
ATOM     26  C   UNL     1      31.897  -9.954 -22.178  0.00  0.00    +0.261 C 
ATOM     27  C   UNL     1      31.375  -8.082 -20.709  0.00  0.00    +0.072 C 
ATOM     28  C   UNL     1      31.480 -10.289 -19.771  0.00  0.00    +0.010 C 
ATOM     29  C   UNL     1      31.293  -8.875 -19.636  0.00  0.00    +0.017 C 
BRANCH  24  31
ATOM     30  F   UNL     1      31.890  -5.084 -26.339  0.00  0.00    -0.204 F 
ATOM     31  C   UNL     1      31.714  -7.663 -23.119  0.00  0.00    +0.059 C 
ATOM     32  C   UNL     1      30.565  -7.398 -23.864  0.00  0.00    +0.018 C 
ATOM     33  C   UNL     1      32.923  -7.056 -23.461  0.00  0.00    +0.018 C 
ATOM     34  C   UNL     1      30.624  -6.527 -24.952  0.00  0.00    +0.031 C 
ATOM     35  C   UNL     1      32.982  -6.184 -24.548  0.00  0.00    +0.031 C 
ATOM     36  C   UNL     1      31.833  -5.920 -25.294  0.00  0.00    +0.140 C 
ENDBRANCH  24  31
ENDBRANCH   3  25
TORSDOF 5
ENDMDL
MODEL 7
REMARK VINA RESULT:     -14.2      2.818     10.751
REMARK  Name = 21081761
REMARK  5 active torsions:
REMARK  status: ('A' for Active; 'I' for Inactive)
REMARK    1  A    between atoms: N_2  and  C_6
REMARK    2  A    between atoms: C_3  and  C_25
REMARK    3  A    between atoms: C_7  and  O_12
REMARK    4  A    between atoms: O_12  and  C_16
REMARK    5  A    between atoms: N_24  and  C_31
REMARK                            x       y       z     vdW  Elec       q    Type
REMARK                         _______ _______ _______ _____ _____    ______ ____
ROOT
ATOM      1  O   UNL     1      31.935 -21.660 -19.408  0.00  0.00    -0.270 OA
ATOM      2  N   UNL     1      34.057 -20.755 -18.916  0.00  0.00    -0.280 N 
ATOM      3  C   UNL     1      32.914 -21.523 -18.685  0.00  0.00    +0.254 C 
ATOM      4  H   UNL     1      34.742 -20.774 -18.208  0.00  0.00    +0.155 HD
ENDROOT
BRANCH   2   6
ATOM      5  F   UNL     1      37.130 -18.076 -21.417  0.00  0.00    -0.201 F 
ATOM      6  C   UNL     1      34.348 -19.964 -20.027  0.00  0.00    +0.053 C 
ATOM      7  C   UNL     1      34.929 -18.380 -22.249  0.00  0.00    +0.173 C 
ATOM      8  C   UNL     1      35.617 -19.403 -20.172  0.00  0.00    +0.047 C 
ATOM      9  C   UNL     1      33.370 -19.734 -20.995  0.00  0.00    +0.018 C 
ATOM     10  C   UNL     1      35.908 -18.611 -21.283  0.00  0.00    +0.176 C 
ATOM     11  C   UNL     1      33.660 -18.941 -22.105  0.00  0.00    +0.041 C 
BRANCH   7  12
ATOM     12  O   UNL     1      35.215 -17.595 -23.350  0.00  0.00    -0.451 OA
BRANCH  12  16
ATOM     13  N   UNL     1      33.211 -13.796 -21.554  0.00  0.00    -0.297 N 
ATOM     14  N   UNL     1      32.941 -14.085 -23.929  0.00  0.00    -0.229 NA
ATOM     15  C   UNL     1      34.161 -15.609 -22.446  0.00  0.00    +0.067 C 
ATOM     16  C   UNL     1      34.481 -16.455 -23.520  0.00  0.00    +0.150 C 
ATOM     17  C   UNL     1      33.408 -14.473 -22.728  0.00  0.00    +0.135 C 
ATOM     18  C   UNL     1      34.417 -15.596 -21.049  0.00  0.00    +0.022 C 
ATOM     19  C   UNL     1      33.820 -14.470 -20.526  0.00  0.00    +0.063 C 
ATOM     20  C   UNL     1      34.022 -16.099 -24.788  0.00  0.00    +0.058 C 
ATOM     21  C   UNL     1      33.277 -14.936 -24.926  0.00  0.00    +0.103 C 
ATOM     22  H   UNL     1      32.710 -12.953 -21.460  0.00  0.00    +0.154 HD
ENDBRANCH  12  16
ENDBRANCH   7  12
ENDBRANCH   2   6
BRANCH   3  25
ATOM     23  O   UNL     1      35.299 -22.317 -17.298  0.00  0.00    -0.269 OA
ATOM     24  N   UNL     1      34.135 -23.209 -15.443  0.00  0.00    -0.233 N 
ATOM     25  C   UNL     1      32.961 -22.227 -17.398  0.00  0.00    +0.108 C 
ATOM     26  C   UNL     1      34.250 -22.571 -16.707  0.00  0.00    +0.261 C 
ATOM     27  C   UNL     1      32.875 -23.547 -14.949  0.00  0.00    +0.072 C 
ATOM     28  C   UNL     1      31.789 -22.576 -16.856  0.00  0.00    +0.010 C 
ATOM     29  C   UNL     1      31.743 -23.265 -15.600  0.00  0.00    +0.017 C 
BRANCH  24  31
ATOM     30  F   UNL     1      38.732 -24.435 -12.528  0.00  0.00    -0.204 F 
ATOM     31  C   UNL     1      35.330 -23.528 -14.685  0.00  0.00    +0.059 C 
ATOM     32  C   UNL     1      35.978 -24.748 -14.884  0.00  0.00    +0.018 C 
ATOM     33  C   UNL     1      35.832 -22.614 -13.757  0.00  0.00    +0.018 C 
ATOM     34  C   UNL     1      37.127 -25.054 -14.156  0.00  0.00    +0.031 C 
ATOM     35  C   UNL     1      36.982 -22.921 -13.029  0.00  0.00    +0.031 C 
ATOM     36  C   UNL     1      37.629 -24.140 -13.228  0.00  0.00    +0.140 C 
ENDBRANCH  24  31
ENDBRANCH   3  25
TORSDOF 5
ENDMDL
MODEL 8
REMARK VINA RESULT:     -13.9      1.528      2.060
REMARK  Name = 21081761
REMARK  5 active torsions:
REMARK  status: ('A' for Active; 'I' for Inactive)
REMARK    1  A    between atoms: N_2  and  C_6
REMARK    2  A    between atoms: C_3  and  C_25
REMARK    3  A    between atoms: C_7  and  O_12
REMARK    4  A    between atoms: O_12  and  C_16
REMARK    5  A    between atoms: N_24  and  C_31
REMARK                            x       y       z     vdW  Elec       q    Type
REMARK                         _______ _______ _______ _____ _____    ______ ____
ROOT
ATOM      1  O   UNL     1      36.363 -18.617 -20.565  0.00  0.00    -0.270 OA
ATOM      2  N   UNL     1      34.345 -19.829 -20.408  0.00  0.00    -0.280 N 
ATOM      3  C   UNL     1      35.226 -18.882 -20.935  0.00  0.00    +0.254 C 
ATOM      4  H   UNL     1      33.466 -19.894 -20.846  0.00  0.00    +0.155 HD
ENDROOT
BRANCH   2   6
ATOM      5  F   UNL     1      37.207 -21.606 -17.013  0.00  0.00    -0.201 F 
ATOM      6  C   UNL     1      34.560 -20.695 -19.336  0.00  0.00    +0.053 C 
ATOM      7  C   UNL     1      34.989 -22.429 -17.193  0.00  0.00    +0.173 C 
ATOM      8  C   UNL     1      35.799 -20.721 -18.696  0.00  0.00    +0.047 C 
ATOM      9  C   UNL     1      33.535 -21.536 -18.903  0.00  0.00    +0.018 C 
ATOM     10  C   UNL     1      36.014 -21.588 -17.624  0.00  0.00    +0.176 C 
ATOM     11  C   UNL     1      33.749 -22.404 -17.832  0.00  0.00    +0.041 C 
BRANCH   7  12
ATOM     12  O   UNL     1      35.201 -23.289 -16.132  0.00  0.00    -0.451 OA
BRANCH  12  16
ATOM     13  N   UNL     1      34.358 -23.141 -11.556  0.00  0.00    -0.297 N 
ATOM     14  N   UNL     1      32.407 -23.159 -12.968  0.00  0.00    -0.229 NA
ATOM     15  C   UNL     1      34.729 -23.212 -13.756  0.00  0.00    +0.067 C 
ATOM     16  C   UNL     1      34.310 -23.247 -15.097  0.00  0.00    +0.150 C 
ATOM     17  C   UNL     1      33.740 -23.170 -12.778  0.00  0.00    +0.135 C 
ATOM     18  C   UNL     1      35.978 -23.208 -13.080  0.00  0.00    +0.022 C 
ATOM     19  C   UNL     1      35.718 -23.164 -11.727  0.00  0.00    +0.063 C 
ATOM     20  C   UNL     1      32.939 -23.237 -15.351  0.00  0.00    +0.058 C 
ATOM     21  C   UNL     1      32.061 -23.194 -14.276  0.00  0.00    +0.103 C 
ATOM     22  H   UNL     1      33.897 -23.109 -10.686  0.00  0.00    +0.154 HD
ENDBRANCH  12  16
ENDBRANCH   7  12
ENDBRANCH   2   6
BRANCH   3  25
ATOM     23  O   UNL     1      34.570 -16.086 -20.968  0.00  0.00    -0.269 OA
ATOM     24  N   UNL     1      33.862 -16.099 -23.224  0.00  0.00    -0.233 N 
ATOM     25  C   UNL     1      34.651 -18.151 -22.070  0.00  0.00    +0.108 C 
ATOM     26  C   UNL     1      34.375 -16.675 -22.031  0.00  0.00    +0.261 C 
ATOM     27  C   UNL     1      33.574 -16.914 -24.319  0.00  0.00    +0.072 C 
ATOM     28  C   UNL     1      34.355 -18.866 -23.162  0.00  0.00    +0.010 C 
ATOM     29  C   UNL     1      33.792 -18.232 -24.317  0.00  0.00    +0.017 C 
BRANCH  24  31
ATOM     30  F   UNL     1      32.923 -10.605 -23.471  0.00  0.00    -0.204 F 
ATOM     31  C   UNL     1      33.618 -14.670 -23.288  0.00  0.00    +0.059 C 
ATOM     32  C   UNL     1      33.126 -14.099 -24.462  0.00  0.00    +0.018 C 
ATOM     33  C   UNL     1      33.875 -13.868 -22.175  0.00  0.00    +0.018 C 
ATOM     34  C   UNL     1      32.891 -12.726 -24.523  0.00  0.00    +0.031 C 
ATOM     35  C   UNL     1      33.640 -12.495 -22.237  0.00  0.00    +0.031 C 
ATOM     36  C   UNL     1      33.148 -11.924 -23.411  0.00  0.00    +0.140 C 
ENDBRANCH  24  31
ENDBRANCH   3  25
TORSDOF 5
ENDMDL
MODEL 9
REMARK VINA RESULT:     -13.7      2.701      3.993
REMARK  Name = 21081761
REMARK  5 active torsions:
REMARK  status: ('A' for Active; 'I' for Inactive)
REMARK    1  A    between atoms: N_2  and  C_6
REMARK    2  A    between atoms: C_3  and  C_25
REMARK    3  A    between atoms: C_7  and  O_12
REMARK    4  A    between atoms: O_12  and  C_16
REMARK    5  A    between atoms: N_24  and  C_31
REMARK                            x       y       z     vdW  Elec       q    Type
REMARK                         _______ _______ _______ _____ _____    ______ ____
ROOT
ATOM      1  O   UNL     1      36.752 -18.976 -19.631  0.00  0.00    -0.270 OA
ATOM      2  N   UNL     1      34.884 -20.402 -19.419  0.00  0.00    -0.280 N 
ATOM      3  C   UNL     1      35.686 -19.432 -20.025  0.00  0.00    +0.254 C 
ATOM      4  H   UNL     1      34.055 -20.638 -19.896  0.00  0.00    +0.155 HD
ENDROOT
BRANCH   2   6
ATOM      5  F   UNL     1      33.361 -23.274 -15.913  0.00  0.00    -0.201 F 
ATOM      6  C   UNL     1      35.115 -21.077 -18.221  0.00  0.00    +0.053 C 
ATOM      7  C   UNL     1      35.575 -22.426 -15.823  0.00  0.00    +0.173 C 
ATOM      8  C   UNL     1      34.105 -21.854 -17.652  0.00  0.00    +0.047 C 
ATOM      9  C   UNL     1      36.355 -20.975 -17.590  0.00  0.00    +0.018 C 
ATOM     10  C   UNL     1      34.335 -22.529 -16.453  0.00  0.00    +0.176 C 
ATOM     11  C   UNL     1      36.585 -21.649 -16.391  0.00  0.00    +0.041 C 
BRANCH   7  12
ATOM     12  O   UNL     1      35.803 -23.093 -14.634  0.00  0.00    -0.451 OA
BRANCH  12  16
ATOM     13  N   UNL     1      39.460 -25.949 -14.254  0.00  0.00    -0.297 N 
ATOM     14  N   UNL     1      37.385 -27.001 -14.875  0.00  0.00    -0.229 NA
ATOM     15  C   UNL     1      37.687 -24.605 -14.445  0.00  0.00    +0.067 C 
ATOM     16  C   UNL     1      36.331 -24.351 -14.707  0.00  0.00    +0.150 C 
ATOM     17  C   UNL     1      38.122 -25.923 -14.548  0.00  0.00    +0.135 C 
ATOM     18  C   UNL     1      38.816 -23.826 -14.077  0.00  0.00    +0.022 C 
ATOM     19  C   UNL     1      39.892 -24.679 -13.967  0.00  0.00    +0.063 C 
ATOM     20  C   UNL     1      35.520 -25.432 -15.051  0.00  0.00    +0.058 C 
ATOM     21  C   UNL     1      36.088 -26.697 -15.117  0.00  0.00    +0.103 C 
ATOM     22  H   UNL     1      40.026 -26.755 -14.250  0.00  0.00    +0.154 HD
ENDBRANCH  12  16
ENDBRANCH   7  12
ENDBRANCH   2   6
BRANCH   3  25
ATOM     23  O   UNL     1      34.884 -16.729 -20.567  0.00  0.00    -0.269 OA
ATOM     24  N   UNL     1      34.270 -17.173 -22.807  0.00  0.00    -0.233 N 
ATOM     25  C   UNL     1      35.119 -18.944 -21.288  0.00  0.00    +0.108 C 
ATOM     26  C   UNL     1      34.764 -17.503 -21.517  0.00  0.00    +0.261 C 
ATOM     27  C   UNL     1      34.070 -18.181 -23.751  0.00  0.00    +0.072 C 
ATOM     28  C   UNL     1      34.907 -19.853 -22.247  0.00  0.00    +0.010 C 
ATOM     29  C   UNL     1      34.358 -19.464 -23.512  0.00  0.00    +0.017 C 
BRANCH  24  31
ATOM     30  F   UNL     1      33.049 -11.871 -24.040  0.00  0.00    -0.204 F 
ATOM     31  C   UNL     1      33.953 -15.795 -23.127  0.00  0.00    +0.059 C 
ATOM     32  C   UNL     1      33.482 -15.465 -24.399  0.00  0.00    +0.018 C 
ATOM     33  C   UNL     1      34.118 -14.799 -22.164  0.00  0.00    +0.018 C 
ATOM     34  C   UNL     1      33.177 -14.139 -24.707  0.00  0.00    +0.031 C 
ATOM     35  C   UNL     1      33.812 -13.473 -22.472  0.00  0.00    +0.031 C 
ATOM     36  C   UNL     1      33.342 -13.143 -23.743  0.00  0.00    +0.140 C 
ENDBRANCH  24  31
ENDBRANCH   3  25
TORSDOF 5
ENDMDL
