MODEL 1
REMARK VINA RESULT:     -11.4      0.000      0.000
REMARK  Name = 5327130
REMARK  4 active torsions:
REMARK  status: ('A' for Active; 'I' for Inactive)
REMARK    1  A    between atoms: N_2  and  C_5
REMARK    2  A    between atoms: N_2  and  C_20
REMARK    3  A    between atoms: C_7  and  C_14
REMARK    4  A    between atoms: C_20  and  C_22
REMARK                            x       y       z     vdW  Elec       q    Type
REMARK                         _______ _______ _______ _____ _____    ______ ____
ROOT
ATOM      1  N   UNL     1      34.870 -22.142 -17.139  0.00  0.00    -0.179 N 
ATOM      2  N   UNL     1      35.057 -22.881 -15.928  0.00  0.00    -0.254 N 
ATOM      3  N   UNL     1      36.193 -20.664 -18.465  0.00  0.00    -0.385 NA
ATOM      4  C   UNL     1      33.689 -22.072 -18.002  0.00  0.00    +0.122 C 
ATOM      5  C   UNL     1      36.051 -21.463 -17.381  0.00  0.00    +0.205 C 
ATOM      6  C   UNL     1      35.087 -20.607 -19.263  0.00  0.00    +0.136 C 
ATOM      7  C   UNL     1      33.858 -21.253 -19.100  0.00  0.00    +0.064 C 
ATOM      8  C   UNL     1      36.981 -21.778 -16.317  0.00  0.00    +0.067 C 
ATOM      9  C   UNL     1      36.333 -22.661 -15.433  0.00  0.00    +0.080 C 
ATOM     10  H   UNL     1      34.381 -23.461 -15.510  0.00  0.00    +0.171 HD
ENDROOT
BRANCH   6  12
ATOM     11 BR   UNL     1      33.210 -18.892 -23.927  0.00  0.00    -0.049 Br
ATOM     12  C   UNL     1      35.270 -19.746 -20.414  0.00  0.00    +0.030 C 
ATOM     13  C   UNL     1      34.319 -19.736 -21.434  0.00  0.00    +0.009 C 
ATOM     14  C   UNL     1      36.395 -18.929 -20.499  0.00  0.00    +0.003 C 
ATOM     15  C   UNL     1      34.496 -18.908 -22.542  0.00  0.00    +0.035 C 
ATOM     16  C   UNL     1      36.572 -18.100 -21.607  0.00  0.00    +0.001 C 
ATOM     17  C   UNL     1      35.622 -18.089 -22.628  0.00  0.00    +0.007 C 
ENDBRANCH   6  12
BRANCH   4  18
ATOM     18  N   UNL     1      32.522 -22.775 -17.716  0.00  0.00    -0.316 N 
ATOM     19  H   UNL     1      32.462 -23.715 -18.006  0.00  0.00    +0.148 HD
BRANCH  18  20
ATOM     20  C   UNL     1      31.398 -22.203 -17.022  0.00  0.00    +0.115 C 
BRANCH  20  22
ATOM     21  N   UNL     1      30.367 -24.585 -13.611  0.00  0.00    -0.242 NA
ATOM     22  C   UNL     1      31.036 -23.038 -15.825  0.00  0.00    +0.000 C 
ATOM     23  C   UNL     1      32.003 -23.336 -14.880  0.00  0.00    +0.018 C 
ATOM     24  C   UNL     1      29.741 -23.503 -15.680  0.00  0.00    +0.018 C 
ATOM     25  C   UNL     1      31.619 -24.108 -13.796  0.00  0.00    +0.099 C 
ATOM     26  C   UNL     1      29.458 -24.269 -14.561  0.00  0.00    +0.099 C 
ENDBRANCH  20  22
ENDBRANCH  18  20
ENDBRANCH   4  18
TORSDOF 4
ENDMDL
MODEL 2
REMARK VINA RESULT:     -11.3      2.500      7.487
REMARK  Name = 5327130
REMARK  4 active torsions:
REMARK  status: ('A' for Active; 'I' for Inactive)
REMARK    1  A    between atoms: N_2  and  C_5
REMARK    2  A    between atoms: N_2  and  C_20
REMARK    3  A    between atoms: C_7  and  C_14
REMARK    4  A    between atoms: C_20  and  C_22
REMARK                            x       y       z     vdW  Elec       q    Type
REMARK                         _______ _______ _______ _____ _____    ______ ____
ROOT
ATOM      1  N   UNL     1      35.080 -22.015 -17.052  0.00  0.00    -0.179 N 
ATOM      2  N   UNL     1      36.452 -21.671 -17.267  0.00  0.00    -0.254 N 
ATOM      3  N   UNL     1      33.771 -22.769 -15.205  0.00  0.00    -0.385 NA
ATOM      4  C   UNL     1      33.968 -22.001 -18.005  0.00  0.00    +0.122 C 
ATOM      5  C   UNL     1      34.962 -22.384 -15.725  0.00  0.00    +0.205 C 
ATOM      6  C   UNL     1      32.742 -22.752 -16.102  0.00  0.00    +0.136 C 
ATOM      7  C   UNL     1      32.766 -22.397 -17.454  0.00  0.00    +0.064 C 
ATOM      8  C   UNL     1      36.266 -22.272 -15.105  0.00  0.00    +0.067 C 
ATOM      9  C   UNL     1      37.168 -21.827 -16.089  0.00  0.00    +0.080 C 
ATOM     10  H   UNL     1      36.832 -21.369 -18.123  0.00  0.00    +0.171 HD
ENDROOT
BRANCH   6  12
ATOM     11 BR   UNL     1      27.437 -22.519 -16.239  0.00  0.00    -0.049 Br
ATOM     12  C   UNL     1      31.483 -23.168 -15.517  0.00  0.00    +0.030 C 
ATOM     13  C   UNL     1      30.281 -22.722 -16.064  0.00  0.00    +0.009 C 
ATOM     14  C   UNL     1      31.477 -24.013 -14.409  0.00  0.00    +0.003 C 
ATOM     15  C   UNL     1      29.069 -23.122 -15.500  0.00  0.00    +0.035 C 
ATOM     16  C   UNL     1      30.265 -24.414 -13.846  0.00  0.00    +0.001 C 
ATOM     17  C   UNL     1      29.062 -23.968 -14.391  0.00  0.00    +0.007 C 
ENDBRANCH   6  12
BRANCH   4  18
ATOM     18  N   UNL     1      34.137 -21.621 -19.334  0.00  0.00    -0.316 N 
ATOM     19  H   UNL     1      34.773 -22.131 -19.887  0.00  0.00    +0.148 HD
BRANCH  18  20
ATOM     20  C   UNL     1      33.433 -20.522 -19.942  0.00  0.00    +0.115 C 
BRANCH  20  22
ATOM     21  N   UNL     1      36.141 -18.033 -22.144  0.00  0.00    -0.242 NA
ATOM     22  C   UNL     1      34.383 -19.648 -20.714  0.00  0.00    +0.000 C 
ATOM     23  C   UNL     1      33.960 -19.046 -21.886  0.00  0.00    +0.018 C 
ATOM     24  C   UNL     1      35.671 -19.456 -20.247  0.00  0.00    +0.018 C 
ATOM     25  C   UNL     1      34.872 -18.251 -22.560  0.00  0.00    +0.099 C 
ATOM     26  C   UNL     1      36.507 -18.643 -20.994  0.00  0.00    +0.099 C 
ENDBRANCH  20  22
ENDBRANCH  18  20
ENDBRANCH   4  18
TORSDOF 4
ENDMDL
MODEL 3
REMARK VINA RESULT:     -11.2      6.696     10.289
REMARK  Name = 5327130
REMARK  4 active torsions:
REMARK  status: ('A' for Active; 'I' for Inactive)
REMARK    1  A    between atoms: N_2  and  C_5
REMARK    2  A    between atoms: N_2  and  C_20
REMARK    3  A    between atoms: C_7  and  C_14
REMARK    4  A    between atoms: C_20  and  C_22
REMARK                            x       y       z     vdW  Elec       q    Type
REMARK                         _______ _______ _______ _____ _____    ______ ____
ROOT
ATOM      1  N   UNL     1      33.394 -14.225 -23.131  0.00  0.00    -0.179 N 
ATOM      2  N   UNL     1      32.927 -13.210 -24.026  0.00  0.00    -0.254 N 
ATOM      3  N   UNL     1      34.167 -16.472 -23.343  0.00  0.00    -0.385 NA
ATOM      4  C   UNL     1      33.546 -14.168 -21.676  0.00  0.00    +0.122 C 
ATOM      5  C   UNL     1      33.696 -15.332 -23.903  0.00  0.00    +0.205 C 
ATOM      6  C   UNL     1      34.306 -16.409 -21.986  0.00  0.00    +0.136 C 
ATOM      7  C   UNL     1      34.027 -15.341 -21.128  0.00  0.00    +0.064 C 
ATOM      8  C   UNL     1      33.418 -15.010 -25.287  0.00  0.00    +0.067 C 
ATOM      9  C   UNL     1      32.943 -13.686 -25.329  0.00  0.00    +0.080 C 
ATOM     10  H   UNL     1      32.639 -12.309 -23.757  0.00  0.00    +0.171 HD
ENDROOT
BRANCH   6  12
ATOM     11 BR   UNL     1      33.214 -21.034 -19.612  0.00  0.00    -0.049 Br
ATOM     12  C   UNL     1      34.811 -17.641 -21.416  0.00  0.00    +0.030 C 
ATOM     13  C   UNL     1      33.925 -18.576 -20.884  0.00  0.00    +0.009 C 
ATOM     14  C   UNL     1      36.182 -17.890 -21.402  0.00  0.00    +0.003 C 
ATOM     15  C   UNL     1      34.412 -19.763 -20.335  0.00  0.00    +0.035 C 
ATOM     16  C   UNL     1      36.669 -19.077 -20.853  0.00  0.00    +0.001 C 
ATOM     17  C   UNL     1      35.784 -20.013 -20.320  0.00  0.00    +0.007 C 
ENDBRANCH   6  12
BRANCH   4  18
ATOM     18  N   UNL     1      33.228 -13.029 -20.942  0.00  0.00    -0.316 N 
ATOM     19  H   UNL     1      33.953 -12.399 -20.723  0.00  0.00    +0.148 HD
BRANCH  18  20
ATOM     20  C   UNL     1      31.897 -12.723 -20.486  0.00  0.00    +0.115 C 
BRANCH  20  22
ATOM     21  N   UNL     1      31.036  -8.562 -21.051  0.00  0.00    -0.242 NA
ATOM     22  C   UNL     1      31.594 -11.263 -20.684  0.00  0.00    +0.000 C 
ATOM     23  C   UNL     1      31.427 -10.766 -21.965  0.00  0.00    +0.018 C 
ATOM     24  C   UNL     1      31.487 -10.430 -19.584  0.00  0.00    +0.018 C 
ATOM     25  C   UNL     1      31.150  -9.415 -22.094  0.00  0.00    +0.099 C 
ATOM     26  C   UNL     1      31.208  -9.094 -19.820  0.00  0.00    +0.099 C 
ENDBRANCH  20  22
ENDBRANCH  18  20
ENDBRANCH   4  18
TORSDOF 4
ENDMDL
MODEL 4
REMARK VINA RESULT:     -11.2      2.986      7.004
REMARK  Name = 5327130
REMARK  4 active torsions:
REMARK  status: ('A' for Active; 'I' for Inactive)
REMARK    1  A    between atoms: N_2  and  C_5
REMARK    2  A    between atoms: N_2  and  C_20
REMARK    3  A    between atoms: C_7  and  C_14
REMARK    4  A    between atoms: C_20  and  C_22
REMARK                            x       y       z     vdW  Elec       q    Type
REMARK                         _______ _______ _______ _____ _____    ______ ____
ROOT
ATOM      1  N   UNL     1      34.293 -21.800 -17.812  0.00  0.00    -0.179 N 
ATOM      2  N   UNL     1      35.243 -21.252 -18.731  0.00  0.00    -0.254 N 
ATOM      3  N   UNL     1      31.924 -22.083 -17.764  0.00  0.00    -0.385 NA
ATOM      4  C   UNL     1      34.526 -22.406 -16.499  0.00  0.00    +0.122 C 
ATOM      5  C   UNL     1      33.045 -21.657 -18.393  0.00  0.00    +0.205 C 
ATOM      6  C   UNL     1      32.152 -22.647 -16.542  0.00  0.00    +0.136 C 
ATOM      7  C   UNL     1      33.369 -22.832 -15.878  0.00  0.00    +0.064 C 
ATOM      8  C   UNL     1      33.215 -21.017 -19.681  0.00  0.00    +0.067 C 
ATOM      9  C   UNL     1      34.591 -20.780 -19.860  0.00  0.00    +0.080 C 
ATOM     10  H   UNL     1      36.215 -21.216 -18.583  0.00  0.00    +0.171 HD
ENDROOT
BRANCH   6  12
ATOM     11 BR   UNL     1      26.894 -22.106 -16.013  0.00  0.00    -0.049 Br
ATOM     12  C   UNL     1      30.935 -23.093 -15.894  0.00  0.00    +0.030 C 
ATOM     13  C   UNL     1      29.718 -22.491 -16.211  0.00  0.00    +0.009 C 
ATOM     14  C   UNL     1      30.983 -24.122 -14.956  0.00  0.00    +0.003 C 
ATOM     15  C   UNL     1      28.546 -22.920 -15.587  0.00  0.00    +0.035 C 
ATOM     16  C   UNL     1      29.811 -24.552 -14.333  0.00  0.00    +0.001 C 
ATOM     17  C   UNL     1      28.594 -23.950 -14.648  0.00  0.00    +0.007 C 
ENDBRANCH   6  12
BRANCH   4  18
ATOM     18  N   UNL     1      35.801 -22.527 -15.956  0.00  0.00    -0.316 N 
ATOM     19  H   UNL     1      36.575 -22.359 -16.543  0.00  0.00    +0.148 HD
BRANCH  18  20
ATOM     20  C   UNL     1      36.051 -22.885 -14.584  0.00  0.00    +0.115 C 
BRANCH  20  22
ATOM     21  N   UNL     1      38.004 -26.693 -14.350  0.00  0.00    -0.242 NA
ATOM     22  C   UNL     1      36.736 -24.221 -14.503  0.00  0.00    +0.000 C 
ATOM     23  C   UNL     1      35.992 -25.381 -14.632  0.00  0.00    +0.018 C 
ATOM     24  C   UNL     1      38.104 -24.278 -14.298  0.00  0.00    +0.018 C 
ATOM     25  C   UNL     1      36.671 -26.586 -14.549  0.00  0.00    +0.099 C 
ATOM     26  C   UNL     1      38.688 -25.533 -14.230  0.00  0.00    +0.099 C 
ENDBRANCH  20  22
ENDBRANCH  18  20
ENDBRANCH   4  18
TORSDOF 4
ENDMDL
MODEL 5
REMARK VINA RESULT:     -11.0      1.625      2.467
REMARK  Name = 5327130
REMARK  4 active torsions:
REMARK  status: ('A' for Active; 'I' for Inactive)
REMARK    1  A    between atoms: N_2  and  C_5
REMARK    2  A    between atoms: N_2  and  C_20
REMARK    3  A    between atoms: C_7  and  C_14
REMARK    4  A    between atoms: C_20  and  C_22
REMARK                            x       y       z     vdW  Elec       q    Type
REMARK                         _______ _______ _______ _____ _____    ______ ____
ROOT
ATOM      1  N   UNL     1      35.441 -23.006 -15.683  0.00  0.00    -0.179 N 
ATOM      2  N   UNL     1      36.127 -23.625 -14.590  0.00  0.00    -0.254 N 
ATOM      3  N   UNL     1      36.045 -21.574 -17.493  0.00  0.00    -0.385 NA
ATOM      4  C   UNL     1      34.023 -23.081 -16.040  0.00  0.00    +0.122 C 
ATOM      5  C   UNL     1      36.385 -22.282 -16.389  0.00  0.00    +0.205 C 
ATOM      6  C   UNL     1      34.721 -21.651 -17.818  0.00  0.00    +0.136 C 
ATOM      7  C   UNL     1      33.701 -22.352 -17.167  0.00  0.00    +0.064 C 
ATOM      8  C   UNL     1      37.667 -22.449 -15.737  0.00  0.00    +0.067 C 
ATOM      9  C   UNL     1      37.472 -23.288 -14.624  0.00  0.00    +0.080 C 
ATOM     10  H   UNL     1      35.707 -24.205 -13.914  0.00  0.00    +0.171 HD
ENDROOT
BRANCH   6  12
ATOM     11 BR   UNL     1      36.419 -18.512 -21.753  0.00  0.00    -0.049 Br
ATOM     12  C   UNL     1      34.389 -20.884 -19.001  0.00  0.00    +0.030 C 
ATOM     13  C   UNL     1      35.388 -20.191 -19.684  0.00  0.00    +0.009 C 
ATOM     14  C   UNL     1      33.072 -20.841 -19.455  0.00  0.00    +0.003 C 
ATOM     15  C   UNL     1      35.068 -19.453 -20.824  0.00  0.00    +0.035 C 
ATOM     16  C   UNL     1      32.752 -20.102 -20.594  0.00  0.00    +0.001 C 
ATOM     17  C   UNL     1      33.750 -19.409 -21.278  0.00  0.00    +0.007 C 
ENDBRANCH   6  12
BRANCH   4  18
ATOM     18  N   UNL     1      33.111 -23.824 -15.296  0.00  0.00    -0.316 N 
ATOM     19  H   UNL     1      33.084 -24.799 -15.432  0.00  0.00    +0.148 HD
BRANCH  18  20
ATOM     20  C   UNL     1      32.206 -23.243 -14.339  0.00  0.00    +0.115 C 
BRANCH  20  22
ATOM     21  N   UNL     1      28.139 -23.857 -15.547  0.00  0.00    -0.242 NA
ATOM     22  C   UNL     1      30.779 -23.459 -14.763  0.00  0.00    +0.000 C 
ATOM     23  C   UNL     1      30.222 -22.643 -15.732  0.00  0.00    +0.018 C 
ATOM     24  C   UNL     1      30.036 -24.471 -14.180  0.00  0.00    +0.018 C 
ATOM     25  C   UNL     1      28.904 -22.882 -16.088  0.00  0.00    +0.099 C 
ATOM     26  C   UNL     1      28.727 -24.628 -14.605  0.00  0.00    +0.099 C 
ENDBRANCH  20  22
ENDBRANCH  18  20
ENDBRANCH   4  18
TORSDOF 4
ENDMDL
MODEL 6
REMARK VINA RESULT:     -10.9      2.611      7.145
REMARK  Name = 5327130
REMARK  4 active torsions:
REMARK  status: ('A' for Active; 'I' for Inactive)
REMARK    1  A    between atoms: N_2  and  C_5
REMARK    2  A    between atoms: N_2  and  C_20
REMARK    3  A    between atoms: C_7  and  C_14
REMARK    4  A    between atoms: C_20  and  C_22
REMARK                            x       y       z     vdW  Elec       q    Type
REMARK                         _______ _______ _______ _____ _____    ______ ____
ROOT
ATOM      1  N   UNL     1      36.239 -23.144 -15.308  0.00  0.00    -0.179 N 
ATOM      2  N   UNL     1      37.668 -23.222 -15.351  0.00  0.00    -0.254 N 
ATOM      3  N   UNL     1      34.496 -24.290 -14.151  0.00  0.00    -0.385 NA
ATOM      4  C   UNL     1      35.345 -22.245 -16.040  0.00  0.00    +0.122 C 
ATOM      5  C   UNL     1      35.812 -24.109 -14.414  0.00  0.00    +0.205 C 
ATOM      6  C   UNL     1      33.670 -23.447 -14.837  0.00  0.00    +0.136 C 
ATOM      7  C   UNL     1      34.009 -22.448 -15.755  0.00  0.00    +0.064 C 
ATOM      8  C   UNL     1      36.978 -24.794 -13.894  0.00  0.00    +0.067 C 
ATOM      9  C   UNL     1      38.112 -24.219 -14.496  0.00  0.00    +0.080 C 
ATOM     10  H   UNL     1      38.249 -22.652 -15.904  0.00  0.00    +0.171 HD
ENDROOT
BRANCH   6  12
ATOM     11 BR   UNL     1      28.604 -22.489 -16.113  0.00  0.00    -0.049 Br
ATOM     12  C   UNL     1      32.270 -23.663 -14.535  0.00  0.00    +0.030 C 
ATOM     13  C   UNL     1      31.288 -23.075 -15.329  0.00  0.00    +0.009 C 
ATOM     14  C   UNL     1      31.909 -24.459 -13.449  0.00  0.00    +0.003 C 
ATOM     15  C   UNL     1      29.939 -23.284 -15.037  0.00  0.00    +0.035 C 
ATOM     16  C   UNL     1      30.561 -24.668 -13.157  0.00  0.00    +0.001 C 
ATOM     17  C   UNL     1      29.577 -24.081 -13.951  0.00  0.00    +0.007 C 
ENDBRANCH   6  12
BRANCH   4  18
ATOM     18  N   UNL     1      35.823 -21.289 -16.931  0.00  0.00    -0.316 N 
ATOM     19  H   UNL     1      35.985 -20.378 -16.593  0.00  0.00    +0.148 HD
BRANCH  18  20
ATOM     20  C   UNL     1      36.095 -21.559 -18.318  0.00  0.00    +0.115 C 
BRANCH  20  22
ATOM     21  N   UNL     1      33.160 -19.688 -20.820  0.00  0.00    -0.242 NA
ATOM     22  C   UNL     1      35.065 -20.902 -19.196  0.00  0.00    +0.000 C 
ATOM     23  C   UNL     1      33.732 -21.254 -19.068  0.00  0.00    +0.018 C 
ATOM     24  C   UNL     1      35.459 -19.954 -20.123  0.00  0.00    +0.018 C 
ATOM     25  C   UNL     1      32.823 -20.620 -19.899  0.00  0.00    +0.099 C 
ATOM     26  C   UNL     1      34.473 -19.378 -20.907  0.00  0.00    +0.099 C 
ENDBRANCH  20  22
ENDBRANCH  18  20
ENDBRANCH   4  18
TORSDOF 4
ENDMDL
MODEL 7
REMARK VINA RESULT:     -10.8      2.340      3.559
REMARK  Name = 5327130
REMARK  4 active torsions:
REMARK  status: ('A' for Active; 'I' for Inactive)
REMARK    1  A    between atoms: N_2  and  C_5
REMARK    2  A    between atoms: N_2  and  C_20
REMARK    3  A    between atoms: C_7  and  C_14
REMARK    4  A    between atoms: C_20  and  C_22
REMARK                            x       y       z     vdW  Elec       q    Type
REMARK                         _______ _______ _______ _____ _____    ______ ____
ROOT
ATOM      1  N   UNL     1      35.232 -24.101 -13.907  0.00  0.00    -0.179 N 
ATOM      2  N   UNL     1      35.662 -24.809 -12.740  0.00  0.00    -0.254 N 
ATOM      3  N   UNL     1      36.301 -22.942 -15.698  0.00  0.00    -0.385 NA
ATOM      4  C   UNL     1      33.870 -23.857 -14.385  0.00  0.00    +0.122 C 
ATOM      5  C   UNL     1      36.374 -23.655 -14.549  0.00  0.00    +0.205 C 
ATOM      6  C   UNL     1      35.027 -22.721 -16.136  0.00  0.00    +0.136 C 
ATOM      7  C   UNL     1      33.821 -23.129 -15.557  0.00  0.00    +0.064 C 
ATOM      8  C   UNL     1      37.524 -24.087 -13.782  0.00  0.00    +0.067 C 
ATOM      9  C   UNL     1      37.047 -24.801 -12.666  0.00  0.00    +0.080 C 
ATOM     10  H   UNL     1      35.065 -25.240 -12.088  0.00  0.00    +0.171 HD
ENDROOT
BRANCH   6  12
ATOM     11 BR   UNL     1      32.058 -20.638 -20.017  0.00  0.00    -0.049 Br
ATOM     12  C   UNL     1      34.981 -21.957 -17.366  0.00  0.00    +0.030 C 
ATOM     13  C   UNL     1      33.758 -21.710 -17.987  0.00  0.00    +0.009 C 
ATOM     14  C   UNL     1      36.161 -21.471 -17.926  0.00  0.00    +0.003 C 
ATOM     15  C   UNL     1      33.714 -20.975 -19.171  0.00  0.00    +0.035 C 
ATOM     16  C   UNL     1      36.117 -20.735 -19.111  0.00  0.00    +0.001 C 
ATOM     17  C   UNL     1      34.895 -20.487 -19.733  0.00  0.00    +0.007 C 
ENDBRANCH   6  12
BRANCH   4  18
ATOM     18  N   UNL     1      32.751 -24.326 -13.702  0.00  0.00    -0.316 N 
ATOM     19  H   UNL     1      32.652 -25.299 -13.584  0.00  0.00    +0.148 HD
BRANCH  18  20
ATOM     20  C   UNL     1      31.731 -23.466 -13.161  0.00  0.00    +0.115 C 
BRANCH  20  22
ATOM     21  N   UNL     1      28.154 -23.705 -15.510  0.00  0.00    -0.242 NA
ATOM     22  C   UNL     1      30.477 -23.550 -13.986  0.00  0.00    +0.000 C 
ATOM     23  C   UNL     1      30.110 -22.481 -14.785  0.00  0.00    +0.018 C 
ATOM     24  C   UNL     1      29.700 -24.694 -13.937  0.00  0.00    +0.018 C 
ATOM     25  C   UNL     1      28.946 -22.608 -15.525  0.00  0.00    +0.099 C 
ATOM     26  C   UNL     1      28.554 -24.722 -14.714  0.00  0.00    +0.099 C 
ENDBRANCH  20  22
ENDBRANCH  18  20
ENDBRANCH   4  18
TORSDOF 4
ENDMDL
MODEL 8
REMARK VINA RESULT:     -10.5      5.092      9.195
REMARK  Name = 5327130
REMARK  4 active torsions:
REMARK  status: ('A' for Active; 'I' for Inactive)
REMARK    1  A    between atoms: N_2  and  C_5
REMARK    2  A    between atoms: N_2  and  C_20
REMARK    3  A    between atoms: C_7  and  C_14
REMARK    4  A    between atoms: C_20  and  C_22
REMARK                            x       y       z     vdW  Elec       q    Type
REMARK                         _______ _______ _______ _____ _____    ______ ____
ROOT
ATOM      1  N   UNL     1      33.930 -17.016 -23.076  0.00  0.00    -0.179 N 
ATOM      2  N   UNL     1      33.594 -16.317 -24.279  0.00  0.00    -0.254 N 
ATOM      3  N   UNL     1      33.973 -19.296 -22.375  0.00  0.00    -0.385 NA
ATOM      4  C   UNL     1      34.391 -16.474 -21.796  0.00  0.00    +0.122 C 
ATOM      5  C   UNL     1      33.738 -18.362 -23.328  0.00  0.00    +0.205 C 
ATOM      6  C   UNL     1      34.403 -18.781 -21.185  0.00  0.00    +0.136 C 
ATOM      7  C   UNL     1      34.623 -17.444 -20.841  0.00  0.00    +0.064 C 
ATOM      8  C   UNL     1      33.281 -18.508 -24.694  0.00  0.00    +0.067 C 
ATOM      9  C   UNL     1      33.202 -17.220 -25.256  0.00  0.00    +0.080 C 
ATOM     10  H   UNL     1      33.636 -15.341 -24.396  0.00  0.00    +0.171 HD
ENDROOT
BRANCH   6  12
ATOM     11 BR   UNL     1      32.350 -22.326 -17.804  0.00  0.00    -0.049 Br
ATOM     12  C   UNL     1      34.645 -19.803 -20.187  0.00  0.00    +0.030 C 
ATOM     13  C   UNL     1      33.571 -20.455 -19.585  0.00  0.00    +0.009 C 
ATOM     14  C   UNL     1      35.952 -20.131 -19.831  0.00  0.00    +0.003 C 
ATOM     15  C   UNL     1      33.804 -21.439 -18.624  0.00  0.00    +0.035 C 
ATOM     16  C   UNL     1      36.185 -21.115 -18.870  0.00  0.00    +0.001 C 
ATOM     17  C   UNL     1      35.112 -21.768 -18.267  0.00  0.00    +0.007 C 
ENDBRANCH   6  12
BRANCH   4  18
ATOM     18  N   UNL     1      34.569 -15.109 -21.591  0.00  0.00    -0.316 N 
ATOM     19  H   UNL     1      35.263 -14.646 -22.115  0.00  0.00    +0.148 HD
BRANCH  18  20
ATOM     20  C   UNL     1      33.794 -14.338 -20.654  0.00  0.00    +0.115 C 
BRANCH  20  22
ATOM     21  N   UNL     1      31.886 -11.046 -22.629  0.00  0.00    -0.242 NA
ATOM     22  C   UNL     1      33.125 -13.183 -21.347  0.00  0.00    +0.000 C 
ATOM     23  C   UNL     1      32.028 -12.575 -20.761  0.00  0.00    +0.018 C 
ATOM     24  C   UNL     1      33.612 -12.739 -22.564  0.00  0.00    +0.018 C 
ATOM     25  C   UNL     1      31.448 -11.516 -21.438  0.00  0.00    +0.099 C 
ATOM     26  C   UNL     1      32.960 -11.672 -23.162  0.00  0.00    +0.099 C 
ENDBRANCH  20  22
ENDBRANCH  18  20
ENDBRANCH   4  18
TORSDOF 4
ENDMDL
MODEL 9
REMARK VINA RESULT:     -10.2      3.492      6.208
REMARK  Name = 5327130
REMARK  4 active torsions:
REMARK  status: ('A' for Active; 'I' for Inactive)
REMARK    1  A    between atoms: N_2  and  C_5
REMARK    2  A    between atoms: N_2  and  C_20
REMARK    3  A    between atoms: C_7  and  C_14
REMARK    4  A    between atoms: C_20  and  C_22
REMARK                            x       y       z     vdW  Elec       q    Type
REMARK                         _______ _______ _______ _____ _____    ______ ____
ROOT
ATOM      1  N   UNL     1      34.182 -22.002 -17.568  0.00  0.00    -0.179 N 
ATOM      2  N   UNL     1      33.660 -21.461 -18.786  0.00  0.00    -0.254 N 
ATOM      3  N   UNL     1      36.331 -22.149 -16.542  0.00  0.00    -0.385 NA
ATOM      4  C   UNL     1      33.472 -22.694 -16.491  0.00  0.00    +0.122 C 
ATOM      5  C   UNL     1      35.543 -21.754 -17.571  0.00  0.00    +0.205 C 
ATOM      6  C   UNL     1      35.660 -22.793 -15.542  0.00  0.00    +0.136 C 
ATOM      7  C   UNL     1      34.296 -23.087 -15.454  0.00  0.00    +0.064 C 
ATOM      8  C   UNL     1      35.874 -21.055 -18.795  0.00  0.00    +0.067 C 
ATOM      9  C   UNL     1      34.683 -20.889 -19.526  0.00  0.00    +0.080 C 
ATOM     10  H   UNL     1      32.714 -21.490 -19.058  0.00  0.00    +0.171 HD
ENDROOT
BRANCH   6  12
ATOM     11 BR   UNL     1      39.984 -25.480 -14.027  0.00  0.00    -0.049 Br
ATOM     12  C   UNL     1      36.528 -23.202 -14.458  0.00  0.00    +0.030 C 
ATOM     13  C   UNL     1      37.640 -24.002 -14.720  0.00  0.00    +0.009 C 
ATOM     14  C   UNL     1      36.251 -22.796 -13.154  0.00  0.00    +0.003 C 
ATOM     15  C   UNL     1      38.476 -24.396 -13.676  0.00  0.00    +0.035 C 
ATOM     16  C   UNL     1      37.088 -23.190 -12.109  0.00  0.00    +0.001 C 
ATOM     17  C   UNL     1      38.199 -23.990 -12.370  0.00  0.00    +0.007 C 
ENDBRANCH   6  12
BRANCH   4  18
ATOM     18  N   UNL     1      32.100 -22.920 -16.534  0.00  0.00    -0.316 N 
ATOM     19  H   UNL     1      31.657 -22.928 -17.414  0.00  0.00    +0.148 HD
BRANCH  18  20
ATOM     20  C   UNL     1      31.293 -23.143 -15.363  0.00  0.00    +0.115 C 
BRANCH  20  22
ATOM     21  N   UNL     1      27.134 -23.234 -16.397  0.00  0.00    -0.242 NA
ATOM     22  C   UNL     1      29.833 -23.174 -15.725  0.00  0.00    +0.000 C 
ATOM     23  C   UNL     1      29.149 -24.377 -15.703  0.00  0.00    +0.018 C 
ATOM     24  C   UNL     1      29.189 -22.002 -16.078  0.00  0.00    +0.018 C 
ATOM     25  C   UNL     1      27.806 -24.353 -16.045  0.00  0.00    +0.099 C 
ATOM     26  C   UNL     1      27.845 -22.084 -16.404  0.00  0.00    +0.099 C 
ENDBRANCH  20  22
ENDBRANCH  18  20
ENDBRANCH   4  18
TORSDOF 4
ENDMDL
