MODEL 1
REMARK VINA RESULT:     -11.6      0.000      0.000
REMARK  Name = 11641515
REMARK  6 active torsions:
REMARK  status: ('A' for Active; 'I' for Inactive)
REMARK    1  A    between atoms: C_1  and  C_9
REMARK    2  A    between atoms: C_1  and  O_18
REMARK    3  A    between atoms: C_1  and  C_20
REMARK    4  A    between atoms: C_4  and  N_11
REMARK    5  A    between atoms: C_20  and  S_21
REMARK    6  A    between atoms: S_21  and  C_25
REMARK                            x       y       z     vdW  Elec       q    Type
REMARK                         _______ _______ _______ _____ _____    ______ ____
ROOT
ATOM      1  C   UNL     1      34.453 -19.911 -20.903  0.00  0.00    +0.211 C 
ENDROOT
BRANCH   1   9
ATOM      2  O   UNL     1      36.310 -19.485 -19.495  0.00  0.00    -0.272 OA
ATOM      3  N   UNL     1      35.021 -21.347 -18.976  0.00  0.00    -0.277 N 
ATOM      4  C   UNL     1      33.851 -22.817 -16.772  0.00  0.00    +0.080 C 
ATOM      5  C   UNL     1      33.018 -22.386 -17.984  0.00  0.00    +0.041 C 
ATOM      6  C   UNL     1      35.038 -21.869 -16.570  0.00  0.00    +0.041 C 
ATOM      7  C   UNL     1      33.886 -22.242 -19.233  0.00  0.00    +0.095 C 
ATOM      8  C   UNL     1      35.865 -21.738 -17.845  0.00  0.00    +0.095 C 
ATOM      9  C   UNL     1      35.350 -20.222 -19.731  0.00  0.00    +0.254 C 
BRANCH   4  11
ATOM     10  O   UNL     1      34.789 -23.529 -14.203  0.00  0.00    -0.253 OA
ATOM     11  N   UNL     1      33.034 -22.878 -15.584  0.00  0.00    -0.266 N 
ATOM     12  N   UNL     1      32.749 -23.175 -13.256  0.00  0.00    -0.289 N 
ATOM     13  C   UNL     1      31.647 -22.429 -15.721  0.00  0.00    +0.097 C 
ATOM     14  C   UNL     1      30.755 -23.026 -14.648  0.00  0.00    +0.043 C 
ATOM     15  C   UNL     1      33.605 -23.208 -14.347  0.00  0.00    +0.304 C 
ATOM     16  C   UNL     1      31.370 -22.730 -13.298  0.00  0.00    +0.093 C 
ATOM     17  H   UNL     1      33.104 -23.476 -12.388  0.00  0.00    +0.151 HD
ENDBRANCH   4  11
ENDBRANCH   1   9
BRANCH   1  18
ATOM     18  O   UNL     1      35.203 -20.263 -22.050  0.00  0.00    -0.375 OA
ATOM     19  H   UNL     1      34.913 -21.130 -22.372  0.00  0.00    +0.211 HD
ENDBRANCH   1  18
BRANCH   1  20
ATOM     20  C   UNL     1      34.130 -18.434 -20.924  0.00  0.00    +0.194 C 
BRANCH  20  21
ATOM     21  S   UNL     1      34.849 -17.647 -22.335  0.00  0.00    +0.012 S 
ATOM     22  O   UNL     1      34.256 -18.212 -23.534  0.00  0.00    -0.169 OA
ATOM     23  O   UNL     1      36.290 -17.652 -22.157  0.00  0.00    -0.169 OA
BRANCH  21  25
ATOM     24 CL   UNL     1      32.119  -9.662 -23.013  0.00  0.00    -0.082 Cl
ATOM     25  C   UNL     1      34.292 -15.974 -22.220  0.00  0.00    +0.106 C 
ATOM     26  C   UNL     1      33.989 -15.283 -23.380  0.00  0.00    +0.018 C 
ATOM     27  C   UNL     1      34.169 -15.389 -20.976  0.00  0.00    +0.018 C 
ATOM     28  C   UNL     1      33.545 -13.951 -23.307  0.00  0.00    +0.001 C 
ATOM     29  C   UNL     1      33.414 -13.335 -22.040  0.00  0.00    +0.001 C 
ATOM     30  C   UNL     1      33.730 -14.067 -20.884  0.00  0.00    +0.001 C 
ATOM     31  C   UNL     1      33.229 -13.219 -24.462  0.00  0.00    +0.001 C 
ATOM     32  C   UNL     1      32.970 -12.005 -21.966  0.00  0.00    +0.011 C 
ATOM     33  C   UNL     1      32.790 -11.898 -24.371  0.00  0.00    +0.011 C 
ATOM     34  C   UNL     1      32.662 -11.292 -23.125  0.00  0.00    +0.058 C 
ENDBRANCH  21  25
ENDBRANCH  20  21
ENDBRANCH   1  20
TORSDOF 6
ENDMDL
MODEL 2
REMARK VINA RESULT:     -11.6      2.198      2.945
REMARK  Name = 11641515
REMARK  6 active torsions:
REMARK  status: ('A' for Active; 'I' for Inactive)
REMARK    1  A    between atoms: C_1  and  C_9
REMARK    2  A    between atoms: C_1  and  O_18
REMARK    3  A    between atoms: C_1  and  C_20
REMARK    4  A    between atoms: C_4  and  N_11
REMARK    5  A    between atoms: C_20  and  S_21
REMARK    6  A    between atoms: S_21  and  C_25
REMARK                            x       y       z     vdW  Elec       q    Type
REMARK                         _______ _______ _______ _____ _____    ______ ____
ROOT
ATOM      1  C   UNL     1      34.879 -20.756 -19.935  0.00  0.00    +0.211 C 
ENDROOT
BRANCH   1   9
ATOM      2  O   UNL     1      32.882 -21.973 -19.559  0.00  0.00    -0.272 OA
ATOM      3  N   UNL     1      34.258 -21.645 -17.716  0.00  0.00    -0.277 N 
ATOM      4  C   UNL     1      35.344 -22.952 -15.370  0.00  0.00    +0.080 C 
ATOM      5  C   UNL     1      36.242 -22.212 -16.367  0.00  0.00    +0.041 C 
ATOM      6  C   UNL     1      34.075 -23.462 -16.064  0.00  0.00    +0.041 C 
ATOM      7  C   UNL     1      35.475 -21.110 -17.095  0.00  0.00    +0.095 C 
ATOM      8  C   UNL     1      33.353 -22.334 -16.794  0.00  0.00    +0.095 C 
ATOM      9  C   UNL     1      33.912 -21.513 -19.060  0.00  0.00    +0.254 C 
BRANCH   4  11
ATOM     10  O   UNL     1      37.417 -22.640 -13.474  0.00  0.00    -0.253 OA
ATOM     11  N   UNL     1      36.058 -24.038 -14.743  0.00  0.00    -0.266 N 
ATOM     12  N   UNL     1      37.629 -24.889 -13.195  0.00  0.00    -0.289 N 
ATOM     13  C   UNL     1      35.585 -25.391 -15.043  0.00  0.00    +0.097 C 
ATOM     14  C   UNL     1      36.671 -26.427 -14.825  0.00  0.00    +0.043 C 
ATOM     15  C   UNL     1      37.048 -23.776 -13.786  0.00  0.00    +0.304 C 
ATOM     16  C   UNL     1      37.214 -26.259 -13.422  0.00  0.00    +0.093 C 
ATOM     17  H   UNL     1      38.380 -24.738 -12.576  0.00  0.00    +0.151 HD
ENDBRANCH   4  11
ENDBRANCH   1   9
BRANCH   1  18
ATOM     18  O   UNL     1      35.872 -20.265 -19.054  0.00  0.00    -0.375 OA
ATOM     19  H   UNL     1      36.161 -19.388 -19.349  0.00  0.00    +0.211 HD
ENDBRANCH   1  18
BRANCH   1  20
ATOM     20  C   UNL     1      34.168 -19.607 -20.612  0.00  0.00    +0.194 C 
BRANCH  20  21
ATOM     21  S   UNL     1      35.184 -18.881 -21.863  0.00  0.00    +0.012 S 
ATOM     22  O   UNL     1      34.857 -19.489 -23.140  0.00  0.00    -0.169 OA
ATOM     23  O   UNL     1      36.553 -18.886 -21.378  0.00  0.00    -0.169 OA
BRANCH  21  25
ATOM     24 CL   UNL     1      32.449 -11.020 -23.414  0.00  0.00    -0.082 Cl
ATOM     25  C   UNL     1      34.638 -17.201 -21.934  0.00  0.00    +0.106 C 
ATOM     26  C   UNL     1      34.284 -16.658 -23.157  0.00  0.00    +0.018 C 
ATOM     27  C   UNL     1      34.575 -16.463 -20.769  0.00  0.00    +0.018 C 
ATOM     28  C   UNL     1      33.848 -15.324 -23.231  0.00  0.00    +0.001 C 
ATOM     29  C   UNL     1      33.777 -14.553 -22.047  0.00  0.00    +0.001 C 
ATOM     30  C   UNL     1      34.145 -15.137 -20.824  0.00  0.00    +0.001 C 
ATOM     31  C   UNL     1      33.481 -14.740 -24.454  0.00  0.00    +0.001 C 
ATOM     32  C   UNL     1      33.342 -13.220 -22.120  0.00  0.00    +0.011 C 
ATOM     33  C   UNL     1      33.051 -13.414 -24.509  0.00  0.00    +0.011 C 
ATOM     34  C   UNL     1      32.982 -12.655 -23.345  0.00  0.00    +0.058 C 
ENDBRANCH  21  25
ENDBRANCH  20  21
ENDBRANCH   1  20
TORSDOF 6
ENDMDL
MODEL 3
REMARK VINA RESULT:     -11.6      1.500      2.007
REMARK  Name = 11641515
REMARK  6 active torsions:
REMARK  status: ('A' for Active; 'I' for Inactive)
REMARK    1  A    between atoms: C_1  and  C_9
REMARK    2  A    between atoms: C_1  and  O_18
REMARK    3  A    between atoms: C_1  and  C_20
REMARK    4  A    between atoms: C_4  and  N_11
REMARK    5  A    between atoms: C_20  and  S_21
REMARK    6  A    between atoms: S_21  and  C_25
REMARK                            x       y       z     vdW  Elec       q    Type
REMARK                         _______ _______ _______ _____ _____    ______ ____
ROOT
ATOM      1  C   UNL     1      34.517 -18.110 -21.587  0.00  0.00    +0.211 C 
ENDROOT
BRANCH   1   9
ATOM      2  O   UNL     1      36.525 -18.290 -20.342  0.00  0.00    -0.272 OA
ATOM      3  N   UNL     1      35.071 -20.098 -20.230  0.00  0.00    -0.277 N 
ATOM      4  C   UNL     1      33.924 -22.044 -18.416  0.00  0.00    +0.080 C 
ATOM      5  C   UNL     1      33.049 -21.200 -19.349  0.00  0.00    +0.041 C 
ATOM      6  C   UNL     1      35.229 -21.309 -18.091  0.00  0.00    +0.041 C 
ATOM      7  C   UNL     1      33.819 -20.771 -20.597  0.00  0.00    +0.095 C 
ATOM      8  C   UNL     1      35.954 -20.880 -19.363  0.00  0.00    +0.095 C 
ATOM      9  C   UNL     1      35.466 -18.834 -20.665  0.00  0.00    +0.254 C 
BRANCH   4  11
ATOM     10  O   UNL     1      35.112 -23.102 -16.080  0.00  0.00    -0.253 OA
ATOM     11  N   UNL     1      33.210 -22.381 -17.208  0.00  0.00    -0.266 N 
ATOM     12  N   UNL     1      33.133 -23.098 -14.957  0.00  0.00    -0.289 N 
ATOM     13  C   UNL     1      31.787 -22.038 -17.174  0.00  0.00    +0.097 C 
ATOM     14  C   UNL     1      31.030 -22.888 -16.170  0.00  0.00    +0.043 C 
ATOM     15  C   UNL     1      33.900 -22.867 -16.089  0.00  0.00    +0.304 C 
ATOM     16  C   UNL     1      31.725 -22.776 -14.831  0.00  0.00    +0.093 C 
ATOM     17  H   UNL     1      33.576 -23.512 -14.181  0.00  0.00    +0.151 HD
ENDBRANCH   4  11
ENDBRANCH   1   9
BRANCH   1  18
ATOM     18  O   UNL     1      34.942 -18.443 -22.895  0.00  0.00    -0.375 OA
ATOM     19  H   UNL     1      35.623 -17.816 -23.182  0.00  0.00    +0.211 HD
ENDBRANCH   1  18
BRANCH   1  20
ATOM     20  C   UNL     1      34.624 -16.619 -21.366  0.00  0.00    +0.194 C 
BRANCH  20  21
ATOM     21  S   UNL     1      34.223 -15.729 -22.840  0.00  0.00    +0.012 S 
ATOM     22  O   UNL     1      33.218 -16.476 -23.575  0.00  0.00    -0.169 OA
ATOM     23  O   UNL     1      35.470 -15.349 -23.480  0.00  0.00    -0.169 OA
BRANCH  21  25
ATOM     24 CL   UNL     1      30.765  -8.197 -21.111  0.00  0.00    -0.082 Cl
ATOM     25  C   UNL     1      33.443 -14.257 -22.249  0.00  0.00    +0.106 C 
ATOM     26  C   UNL     1      33.376 -13.150 -23.078  0.00  0.00    +0.018 C 
ATOM     27  C   UNL     1      32.917 -14.238 -20.973  0.00  0.00    +0.018 C 
ATOM     28  C   UNL     1      32.760 -11.971 -22.624  0.00  0.00    +0.001 C 
ATOM     29  C   UNL     1      32.216 -11.934 -21.318  0.00  0.00    +0.001 C 
ATOM     30  C   UNL     1      32.303 -13.076 -20.505  0.00  0.00    +0.001 C 
ATOM     31  C   UNL     1      32.674 -10.829 -23.436  0.00  0.00    +0.001 C 
ATOM     32  C   UNL     1      31.601 -10.756 -20.864  0.00  0.00    +0.011 C 
ATOM     33  C   UNL     1      32.059  -9.668 -22.969  0.00  0.00    +0.011 C 
ATOM     34  C   UNL     1      31.524  -9.631 -21.685  0.00  0.00    +0.058 C 
ENDBRANCH  21  25
ENDBRANCH  20  21
ENDBRANCH   1  20
TORSDOF 6
ENDMDL
MODEL 4
REMARK VINA RESULT:     -11.5      0.721      1.450
REMARK  Name = 11641515
REMARK  6 active torsions:
REMARK  status: ('A' for Active; 'I' for Inactive)
REMARK    1  A    between atoms: C_1  and  C_9
REMARK    2  A    between atoms: C_1  and  O_18
REMARK    3  A    between atoms: C_1  and  C_20
REMARK    4  A    between atoms: C_4  and  N_11
REMARK    5  A    between atoms: C_20  and  S_21
REMARK    6  A    between atoms: S_21  and  C_25
REMARK                            x       y       z     vdW  Elec       q    Type
REMARK                         _______ _______ _______ _____ _____    ______ ____
ROOT
ATOM      1  C   UNL     1      34.440 -20.208 -20.586  0.00  0.00    +0.211 C 
ENDROOT
BRANCH   1   9
ATOM      2  O   UNL     1      36.186 -19.732 -19.056  0.00  0.00    -0.272 OA
ATOM      3  N   UNL     1      34.895 -21.610 -18.604  0.00  0.00    -0.277 N 
ATOM      4  C   UNL     1      33.596 -23.073 -16.468  0.00  0.00    +0.080 C 
ATOM      5  C   UNL     1      32.844 -22.672 -17.742  0.00  0.00    +0.041 C 
ATOM      6  C   UNL     1      34.750 -22.101 -16.195  0.00  0.00    +0.041 C 
ATOM      7  C   UNL     1      33.796 -22.528 -18.928  0.00  0.00    +0.095 C 
ATOM      8  C   UNL     1      35.663 -21.971 -17.411  0.00  0.00    +0.095 C 
ATOM      9  C   UNL     1      35.257 -20.489 -19.349  0.00  0.00    +0.254 C 
BRANCH   4  11
ATOM     10  O   UNL     1      34.208 -24.266 -13.980  0.00  0.00    -0.253 OA
ATOM     11  N   UNL     1      32.698 -23.134 -15.340  0.00  0.00    -0.266 N 
ATOM     12  N   UNL     1      32.200 -23.667 -13.091  0.00  0.00    -0.289 N 
ATOM     13  C   UNL     1      31.425 -22.424 -15.479  0.00  0.00    +0.097 C 
ATOM     14  C   UNL     1      30.368 -22.980 -14.543  0.00  0.00    +0.043 C 
ATOM     15  C   UNL     1      33.113 -23.718 -14.135  0.00  0.00    +0.304 C 
ATOM     16  C   UNL     1      30.927 -22.975 -13.137  0.00  0.00    +0.093 C 
ATOM     17  H   UNL     1      32.433 -24.136 -12.257  0.00  0.00    +0.151 HD
ENDBRANCH   4  11
ENDBRANCH   1   9
BRANCH   1  18
ATOM     18  O   UNL     1      35.107 -20.885 -21.634  0.00  0.00    -0.375 OA
ATOM     19  H   UNL     1      35.818 -20.325 -21.980  0.00  0.00    +0.211 HD
ENDBRANCH   1  18
BRANCH   1  20
ATOM     20  C   UNL     1      34.416 -18.721 -20.858  0.00  0.00    +0.194 C 
BRANCH  20  21
ATOM     21  S   UNL     1      35.112 -18.354 -22.441  0.00  0.00    +0.012 S 
ATOM     22  O   UNL     1      34.560 -19.277 -23.416  0.00  0.00    -0.169 OA
ATOM     23  O   UNL     1      36.550 -18.236 -22.275  0.00  0.00    -0.169 OA
BRANCH  21  25
ATOM     24 CL   UNL     1      32.206 -10.429 -23.087  0.00  0.00    -0.082 Cl
ATOM     25  C   UNL     1      34.475 -16.751 -22.825  0.00  0.00    +0.106 C 
ATOM     26  C   UNL     1      34.346 -15.815 -21.813  0.00  0.00    +0.018 C 
ATOM     27  C   UNL     1      34.117 -16.463 -24.127  0.00  0.00    +0.018 C 
ATOM     28  C   UNL     1      33.841 -14.536 -22.102  0.00  0.00    +0.001 C 
ATOM     29  C   UNL     1      33.469 -14.224 -23.431  0.00  0.00    +0.001 C 
ATOM     30  C   UNL     1      33.612 -15.198 -24.432  0.00  0.00    +0.001 C 
ATOM     31  C   UNL     1      33.697 -13.562 -21.101  0.00  0.00    +0.001 C 
ATOM     32  C   UNL     1      32.963 -12.946 -23.720  0.00  0.00    +0.011 C 
ATOM     33  C   UNL     1      33.193 -12.297 -21.406  0.00  0.00    +0.011 C 
ATOM     34  C   UNL     1      32.827 -11.990 -22.712  0.00  0.00    +0.058 C 
ENDBRANCH  21  25
ENDBRANCH  20  21
ENDBRANCH   1  20
TORSDOF 6
ENDMDL
MODEL 5
REMARK VINA RESULT:     -11.3      5.630     10.783
REMARK  Name = 11641515
REMARK  6 active torsions:
REMARK  status: ('A' for Active; 'I' for Inactive)
REMARK    1  A    between atoms: C_1  and  C_9
REMARK    2  A    between atoms: C_1  and  O_18
REMARK    3  A    between atoms: C_1  and  C_20
REMARK    4  A    between atoms: C_4  and  N_11
REMARK    5  A    between atoms: C_20  and  S_21
REMARK    6  A    between atoms: S_21  and  C_25
REMARK                            x       y       z     vdW  Elec       q    Type
REMARK                         _______ _______ _______ _____ _____    ______ ____
ROOT
ATOM      1  C   UNL     1      33.968 -14.211 -22.687  0.00  0.00    +0.211 C 
ENDROOT
BRANCH   1   9
ATOM      2  O   UNL     1      33.824 -14.314 -20.324  0.00  0.00    -0.272 OA
ATOM      3  N   UNL     1      32.365 -12.853 -21.389  0.00  0.00    -0.277 N 
ATOM      4  C   UNL     1      31.191 -10.211 -21.217  0.00  0.00    +0.080 C 
ATOM      5  C   UNL     1      31.874 -10.706 -22.496  0.00  0.00    +0.041 C 
ATOM      6  C   UNL     1      31.774 -10.916 -19.987  0.00  0.00    +0.041 C 
ATOM      7  C   UNL     1      31.821 -12.229 -22.601  0.00  0.00    +0.095 C 
ATOM      8  C   UNL     1      31.721 -12.433 -20.143  0.00  0.00    +0.095 C 
ATOM      9  C   UNL     1      33.384 -13.804 -21.357  0.00  0.00    +0.254 C 
BRANCH   4  11
ATOM     10  O   UNL     1      30.378  -8.345 -23.177  0.00  0.00    -0.253 OA
ATOM     11  N   UNL     1      31.313  -8.778 -21.092  0.00  0.00    -0.266 N 
ATOM     12  N   UNL     1      30.948  -6.574 -21.865  0.00  0.00    -0.289 N 
ATOM     13  C   UNL     1      31.793  -8.273 -19.805  0.00  0.00    +0.097 C 
ATOM     14  C   UNL     1      32.403  -6.890 -19.936  0.00  0.00    +0.043 C 
ATOM     15  C   UNL     1      30.845  -7.936 -22.110  0.00  0.00    +0.304 C 
ATOM     16  C   UNL     1      31.397  -5.988 -20.618  0.00  0.00    +0.093 C 
ATOM     17  H   UNL     1      30.698  -5.959 -22.593  0.00  0.00    +0.151 HD
ENDBRANCH   4  11
ENDBRANCH   1   9
BRANCH   1  18
ATOM     18  O   UNL     1      34.239 -12.998 -23.362  0.00  0.00    -0.375 OA
ATOM     19  H   UNL     1      34.393 -13.178 -24.302  0.00  0.00    +0.211 HD
ENDBRANCH   1  18
BRANCH   1  20
ATOM     20  C   UNL     1      32.958 -15.026 -23.462  0.00  0.00    +0.194 C 
BRANCH  20  21
ATOM     21  S   UNL     1      33.742 -16.358 -24.321  0.00  0.00    +0.012 S 
ATOM     22  O   UNL     1      34.853 -15.826 -25.089  0.00  0.00    -0.169 OA
ATOM     23  O   UNL     1      32.704 -17.134 -24.974  0.00  0.00    -0.169 OA
BRANCH  21  25
ATOM     24 CL   UNL     1      35.931 -21.609 -18.051  0.00  0.00    -0.082 Cl
ATOM     25  C   UNL     1      34.433 -17.349 -23.030  0.00  0.00    +0.106 C 
ATOM     26  C   UNL     1      33.629 -18.275 -22.388  0.00  0.00    +0.018 C 
ATOM     27  C   UNL     1      35.759 -17.180 -22.687  0.00  0.00    +0.018 C 
ATOM     28  C   UNL     1      34.163 -19.070 -21.359  0.00  0.00    +0.001 C 
ATOM     29  C   UNL     1      35.520 -18.910 -20.995  0.00  0.00    +0.001 C 
ATOM     30  C   UNL     1      36.306 -17.961 -21.668  0.00  0.00    +0.001 C 
ATOM     31  C   UNL     1      33.378 -20.020 -20.685  0.00  0.00    +0.001 C 
ATOM     32  C   UNL     1      36.054 -19.705 -19.967  0.00  0.00    +0.011 C 
ATOM     33  C   UNL     1      33.924 -20.801 -19.667  0.00  0.00    +0.011 C 
ATOM     34  C   UNL     1      35.259 -20.644 -19.308  0.00  0.00    +0.058 C 
ENDBRANCH  21  25
ENDBRANCH  20  21
ENDBRANCH   1  20
TORSDOF 6
ENDMDL
MODEL 6
REMARK VINA RESULT:     -11.3      8.819     14.467
REMARK  Name = 11641515
REMARK  6 active torsions:
REMARK  status: ('A' for Active; 'I' for Inactive)
REMARK    1  A    between atoms: C_1  and  C_9
REMARK    2  A    between atoms: C_1  and  O_18
REMARK    3  A    between atoms: C_1  and  C_20
REMARK    4  A    between atoms: C_4  and  N_11
REMARK    5  A    between atoms: C_20  and  S_21
REMARK    6  A    between atoms: S_21  and  C_25
REMARK                            x       y       z     vdW  Elec       q    Type
REMARK                         _______ _______ _______ _____ _____    ______ ____
ROOT
ATOM      1  C   UNL     1      31.361  -8.191 -20.326  0.00  0.00    +0.211 C 
ENDROOT
BRANCH   1   9
ATOM      2  O   UNL     1      32.409  -6.226 -19.516  0.00  0.00    -0.272 OA
ATOM      3  N   UNL     1      31.193  -6.015 -21.484  0.00  0.00    -0.277 N 
ATOM      4  C   UNL     1      31.225  -4.794 -24.111  0.00  0.00    +0.080 C 
ATOM      5  C   UNL     1      30.955  -6.291 -23.923  0.00  0.00    +0.041 C 
ATOM      6  C   UNL     1      32.077  -4.251 -22.958  0.00  0.00    +0.041 C 
ATOM      7  C   UNL     1      30.354  -6.579 -22.549  0.00  0.00    +0.095 C 
ATOM      8  C   UNL     1      31.452  -4.580 -21.606  0.00  0.00    +0.095 C 
ATOM      9  C   UNL     1      31.705  -6.724 -20.398  0.00  0.00    +0.254 C 
BRANCH   4  11
ATOM     10  O   UNL     1      30.861  -2.461 -25.665  0.00  0.00    -0.253 OA
ATOM     11  N   UNL     1      31.860  -4.543 -25.382  0.00  0.00    -0.266 N 
ATOM     12  N   UNL     1      32.349  -3.163 -27.238  0.00  0.00    -0.289 N 
ATOM     13  C   UNL     1      32.845  -5.531 -25.826  0.00  0.00    +0.097 C 
ATOM     14  C   UNL     1      33.030  -5.500 -27.332  0.00  0.00    +0.043 C 
ATOM     15  C   UNL     1      31.640  -3.334 -26.058  0.00  0.00    +0.304 C 
ATOM     16  C   UNL     1      33.350  -4.080 -27.744  0.00  0.00    +0.093 C 
ATOM     17  H   UNL     1      32.157  -2.358 -27.773  0.00  0.00    +0.151 HD
ENDBRANCH   4  11
ENDBRANCH   1   9
BRANCH   1  18
ATOM     18  O   UNL     1      31.542  -8.549 -18.970  0.00  0.00    -0.375 OA
ATOM     19  H   UNL     1      30.915  -8.057 -18.419  0.00  0.00    +0.211 HD
ENDBRANCH   1  18
BRANCH   1  20
ATOM     20  C   UNL     1      32.302  -8.982 -21.205  0.00  0.00    +0.194 C 
BRANCH  20  21
ATOM     21  S   UNL     1      31.415 -10.152 -22.191  0.00  0.00    +0.012 S 
ATOM     22  O   UNL     1      31.723  -9.911 -23.589  0.00  0.00    -0.169 OA
ATOM     23  O   UNL     1      30.037 -10.159 -21.734  0.00  0.00    -0.169 OA
BRANCH  21  25
ATOM     24 CL   UNL     1      35.281 -17.631 -21.299  0.00  0.00    -0.082 Cl
ATOM     25  C   UNL     1      32.139 -11.706 -21.762  0.00  0.00    +0.106 C 
ATOM     26  C   UNL     1      32.845 -12.410 -22.722  0.00  0.00    +0.018 C 
ATOM     27  C   UNL     1      31.988 -12.188 -20.477  0.00  0.00    +0.018 C 
ATOM     28  C   UNL     1      33.426 -13.647 -22.398  0.00  0.00    +0.001 C 
ATOM     29  C   UNL     1      33.280 -14.157 -21.086  0.00  0.00    +0.001 C 
ATOM     30  C   UNL     1      32.558 -13.416 -20.137  0.00  0.00    +0.001 C 
ATOM     31  C   UNL     1      34.149 -14.389 -23.346  0.00  0.00    +0.001 C 
ATOM     32  C   UNL     1      33.861 -15.394 -20.761  0.00  0.00    +0.011 C 
ATOM     33  C   UNL     1      34.719 -15.616 -23.006  0.00  0.00    +0.011 C 
ATOM     34  C   UNL     1      34.575 -16.118 -21.717  0.00  0.00    +0.058 C 
ENDBRANCH  21  25
ENDBRANCH  20  21
ENDBRANCH   1  20
TORSDOF 6
ENDMDL
MODEL 7
REMARK VINA RESULT:     -11.2      5.099     10.815
REMARK  Name = 11641515
REMARK  6 active torsions:
REMARK  status: ('A' for Active; 'I' for Inactive)
REMARK    1  A    between atoms: C_1  and  C_9
REMARK    2  A    between atoms: C_1  and  O_18
REMARK    3  A    between atoms: C_1  and  C_20
REMARK    4  A    between atoms: C_4  and  N_11
REMARK    5  A    between atoms: C_20  and  S_21
REMARK    6  A    between atoms: S_21  and  C_25
REMARK                            x       y       z     vdW  Elec       q    Type
REMARK                         _______ _______ _______ _____ _____    ______ ____
ROOT
ATOM      1  C   UNL     1      34.874 -15.814 -22.375  0.00  0.00    +0.211 C 
ENDROOT
BRANCH   1   9
ATOM      2  O   UNL     1      34.154 -15.349 -20.166  0.00  0.00    -0.272 OA
ATOM      3  N   UNL     1      33.112 -14.159 -21.867  0.00  0.00    -0.277 N 
ATOM      4  C   UNL     1      32.138 -11.531 -22.600  0.00  0.00    +0.080 C 
ATOM      5  C   UNL     1      33.071 -12.329 -23.518  0.00  0.00    +0.041 C 
ATOM      6  C   UNL     1      32.350 -11.934 -21.136  0.00  0.00    +0.041 C 
ATOM      7  C   UNL     1      32.928 -13.831 -23.286  0.00  0.00    +0.095 C 
ATOM      8  C   UNL     1      32.220 -13.443 -20.954  0.00  0.00    +0.095 C 
ATOM      9  C   UNL     1      34.018 -15.092 -21.364  0.00  0.00    +0.254 C 
BRANCH   4  11
ATOM     10  O   UNL     1      30.178  -9.556 -22.108  0.00  0.00    -0.253 OA
ATOM     11  N   UNL     1      32.335 -10.112 -22.776  0.00  0.00    -0.266 N 
ATOM     12  N   UNL     1      31.618  -7.866 -22.609  0.00  0.00    -0.289 N 
ATOM     13  C   UNL     1      33.688  -9.680 -23.129  0.00  0.00    +0.097 C 
ATOM     14  C   UNL     1      33.684  -8.327 -23.817  0.00  0.00    +0.043 C 
ATOM     15  C   UNL     1      31.307  -9.210 -22.469  0.00  0.00    +0.304 C 
ATOM     16  C   UNL     1      32.931  -7.349 -22.940  0.00  0.00    +0.093 C 
ATOM     17  H   UNL     1      30.893  -7.213 -22.474  0.00  0.00    +0.151 HD
ENDBRANCH   4  11
ENDBRANCH   1   9
BRANCH   1  18
ATOM     18  O   UNL     1      34.913 -14.964 -23.505  0.00  0.00    -0.375 OA
ATOM     19  H   UNL     1      35.238 -14.089 -23.240  0.00  0.00    +0.211 HD
ENDBRANCH   1  18
BRANCH   1  20
ATOM     20  C   UNL     1      34.234 -17.135 -22.738  0.00  0.00    +0.194 C 
BRANCH  20  21
ATOM     21  S   UNL     1      35.323 -18.483 -22.389  0.00  0.00    +0.012 S 
ATOM     22  O   UNL     1      36.519 -17.963 -21.754  0.00  0.00    -0.169 OA
ATOM     23  O   UNL     1      35.423 -19.291 -23.592  0.00  0.00    -0.169 OA
BRANCH  21  25
ATOM     24 CL   UNL     1      32.289 -23.281 -16.108  0.00  0.00    -0.082 Cl
ATOM     25  C   UNL     1      34.457 -19.426 -21.170  0.00  0.00    +0.106 C 
ATOM     26  C   UNL     1      35.179 -20.109 -20.207  0.00  0.00    +0.018 C 
ATOM     27  C   UNL     1      33.077 -19.463 -21.202  0.00  0.00    +0.018 C 
ATOM     28  C   UNL     1      34.506 -20.864 -19.231  0.00  0.00    +0.001 C 
ATOM     29  C   UNL     1      33.092 -20.913 -19.249  0.00  0.00    +0.001 C 
ATOM     30  C   UNL     1      32.392 -20.208 -20.241  0.00  0.00    +0.001 C 
ATOM     31  C   UNL     1      35.206 -21.570 -18.239  0.00  0.00    +0.001 C 
ATOM     32  C   UNL     1      32.419 -21.667 -18.274  0.00  0.00    +0.011 C 
ATOM     33  C   UNL     1      34.522 -22.314 -17.278  0.00  0.00    +0.011 C 
ATOM     34  C   UNL     1      33.131 -22.363 -17.296  0.00  0.00    +0.058 C 
ENDBRANCH  21  25
ENDBRANCH  20  21
ENDBRANCH   1  20
TORSDOF 6
ENDMDL
MODEL 8
REMARK VINA RESULT:     -11.2      4.573     10.533
REMARK  Name = 11641515
REMARK  6 active torsions:
REMARK  status: ('A' for Active; 'I' for Inactive)
REMARK    1  A    between atoms: C_1  and  C_9
REMARK    2  A    between atoms: C_1  and  O_18
REMARK    3  A    between atoms: C_1  and  C_20
REMARK    4  A    between atoms: C_4  and  N_11
REMARK    5  A    between atoms: C_20  and  S_21
REMARK    6  A    between atoms: S_21  and  C_25
REMARK                            x       y       z     vdW  Elec       q    Type
REMARK                         _______ _______ _______ _____ _____    ______ ____
ROOT
ATOM      1  C   UNL     1      34.645 -18.945 -20.809  0.00  0.00    +0.211 C 
ENDROOT
BRANCH   1   9
ATOM      2  O   UNL     1      33.559 -19.191 -22.901  0.00  0.00    -0.272 OA
ATOM      3  N   UNL     1      34.398 -17.081 -22.411  0.00  0.00    -0.277 N 
ATOM      4  C   UNL     1      33.804 -14.251 -22.581  0.00  0.00    +0.080 C 
ATOM      5  C   UNL     1      34.247 -14.902 -21.266  0.00  0.00    +0.041 C 
ATOM      6  C   UNL     1      33.109 -15.277 -23.483  0.00  0.00    +0.041 C 
ATOM      7  C   UNL     1      35.097 -16.145 -21.521  0.00  0.00    +0.095 C 
ATOM      8  C   UNL     1      33.983 -16.510 -23.693  0.00  0.00    +0.095 C 
ATOM      9  C   UNL     1      34.150 -18.425 -22.136  0.00  0.00    +0.254 C 
BRANCH   4  11
ATOM     10  O   UNL     1      33.520 -12.021 -24.294  0.00  0.00    -0.253 OA
ATOM     11  N   UNL     1      32.941 -13.122 -22.328  0.00  0.00    -0.266 N 
ATOM     12  N   UNL     1      31.940 -11.074 -22.957  0.00  0.00    -0.289 N 
ATOM     13  C   UNL     1      32.078 -13.210 -21.150  0.00  0.00    +0.097 C 
ATOM     14  C   UNL     1      31.653 -11.838 -20.661  0.00  0.00    +0.043 C 
ATOM     15  C   UNL     1      32.845 -12.080 -23.262  0.00  0.00    +0.304 C 
ATOM     16  C   UNL     1      31.038 -11.088 -21.822  0.00  0.00    +0.093 C 
ATOM     17  H   UNL     1      31.906 -10.293 -23.555  0.00  0.00    +0.151 HD
ENDBRANCH   4  11
ENDBRANCH   1   9
BRANCH   1  18
ATOM     18  O   UNL     1      35.977 -19.357 -21.045  0.00  0.00    -0.375 OA
ATOM     19  H   UNL     1      36.121 -20.229 -20.645  0.00  0.00    +0.211 HD
ENDBRANCH   1  18
BRANCH   1  20
ATOM     20  C   UNL     1      33.803 -20.122 -20.373  0.00  0.00    +0.194 C 
BRANCH  20  21
ATOM     21  S   UNL     1      34.750 -21.253 -19.399  0.00  0.00    +0.012 S 
ATOM     22  O   UNL     1      35.792 -20.513 -18.710  0.00  0.00    -0.169 OA
ATOM     23  O   UNL     1      35.089 -22.386 -20.241  0.00  0.00    -0.169 OA
BRANCH  21  25
ATOM     24 CL   UNL     1      30.288 -24.334 -12.896  0.00  0.00    -0.082 Cl
ATOM     25  C   UNL     1      33.611 -21.811 -18.167  0.00  0.00    +0.106 C 
ATOM     26  C   UNL     1      34.097 -22.451 -17.040  0.00  0.00    +0.018 C 
ATOM     27  C   UNL     1      32.260 -21.599 -18.353  0.00  0.00    +0.018 C 
ATOM     28  C   UNL     1      33.205 -22.901 -16.051  0.00  0.00    +0.001 C 
ATOM     29  C   UNL     1      31.817 -22.692 -16.226  0.00  0.00    +0.001 C 
ATOM     30  C   UNL     1      31.360 -22.040 -17.383  0.00  0.00    +0.001 C 
ATOM     31  C   UNL     1      33.662 -23.554 -14.895  0.00  0.00    +0.001 C 
ATOM     32  C   UNL     1      30.925 -23.143 -15.239  0.00  0.00    +0.011 C 
ATOM     33  C   UNL     1      32.762 -23.994 -13.924  0.00  0.00    +0.011 C 
ATOM     34  C   UNL     1      31.397 -23.790 -14.096  0.00  0.00    +0.058 C 
ENDBRANCH  21  25
ENDBRANCH  20  21
ENDBRANCH   1  20
TORSDOF 6
ENDMDL
MODEL 9
REMARK VINA RESULT:     -11.0      4.662     10.408
REMARK  Name = 11641515
REMARK  6 active torsions:
REMARK  status: ('A' for Active; 'I' for Inactive)
REMARK    1  A    between atoms: C_1  and  C_9
REMARK    2  A    between atoms: C_1  and  O_18
REMARK    3  A    between atoms: C_1  and  C_20
REMARK    4  A    between atoms: C_4  and  N_11
REMARK    5  A    between atoms: C_20  and  S_21
REMARK    6  A    between atoms: S_21  and  C_25
REMARK                            x       y       z     vdW  Elec       q    Type
REMARK                         _______ _______ _______ _____ _____    ______ ____
ROOT
ATOM      1  C   UNL     1      34.522 -19.278 -20.600  0.00  0.00    +0.211 C 
ENDROOT
BRANCH   1   9
ATOM      2  O   UNL     1      33.805 -19.406 -22.855  0.00  0.00    -0.272 OA
ATOM      3  N   UNL     1      34.537 -17.329 -22.117  0.00  0.00    -0.277 N 
ATOM      4  C   UNL     1      33.961 -14.492 -22.230  0.00  0.00    +0.080 C 
ATOM      5  C   UNL     1      34.182 -15.216 -20.897  0.00  0.00    +0.041 C 
ATOM      6  C   UNL     1      33.434 -15.465 -23.290  0.00  0.00    +0.041 C 
ATOM      7  C   UNL     1      35.071 -16.445 -21.073  0.00  0.00    +0.095 C 
ATOM      8  C   UNL     1      34.338 -16.687 -23.418  0.00  0.00    +0.095 C 
ATOM      9  C   UNL     1      34.254 -18.685 -21.961  0.00  0.00    +0.254 C 
BRANCH   4  11
ATOM     10  O   UNL     1      33.614 -12.407 -24.106  0.00  0.00    -0.253 OA
ATOM     11  N   UNL     1      33.062 -13.376 -22.065  0.00  0.00    -0.266 N 
ATOM     12  N   UNL     1      31.998 -11.415 -22.848  0.00  0.00    -0.289 N 
ATOM     13  C   UNL     1      32.196 -13.404 -20.885  0.00  0.00    +0.097 C 
ATOM     14  C   UNL     1      31.725 -12.013 -20.501  0.00  0.00    +0.043 C 
ATOM     15  C   UNL     1      32.937 -12.411 -23.074  0.00  0.00    +0.304 C 
ATOM     16  C   UNL     1      31.092 -11.372 -21.717  0.00  0.00    +0.093 C 
ATOM     17  H   UNL     1      31.942 -10.682 -23.503  0.00  0.00    +0.151 HD
ENDBRANCH   4  11
ENDBRANCH   1   9
BRANCH   1  18
ATOM     18  O   UNL     1      35.823 -18.842 -20.254  0.00  0.00    -0.375 OA
ATOM     19  H   UNL     1      35.794 -17.906 -20.002  0.00  0.00    +0.211 HD
ENDBRANCH   1  18
BRANCH   1  20
ATOM     20  C   UNL     1      34.482 -20.787 -20.682  0.00  0.00    +0.194 C 
BRANCH  20  21
ATOM     21  S   UNL     1      33.393 -21.459 -19.463  0.00  0.00    +0.012 S 
ATOM     22  O   UNL     1      32.938 -22.762 -19.913  0.00  0.00    -0.169 OA
ATOM     23  O   UNL     1      32.433 -20.428 -19.112  0.00  0.00    -0.169 OA
BRANCH  21  25
ATOM     24 CL   UNL     1      37.401 -23.267 -12.228  0.00  0.00    -0.082 Cl
ATOM     25  C   UNL     1      34.437 -21.731 -18.062  0.00  0.00    +0.106 C 
ATOM     26  C   UNL     1      33.912 -22.348 -16.940  0.00  0.00    +0.018 C 
ATOM     27  C   UNL     1      35.755 -21.323 -18.115  0.00  0.00    +0.018 C 
ATOM     28  C   UNL     1      34.728 -22.571 -15.818  0.00  0.00    +0.001 C 
ATOM     29  C   UNL     1      36.081 -22.159 -15.854  0.00  0.00    +0.001 C 
ATOM     30  C   UNL     1      36.579 -21.536 -17.009  0.00  0.00    +0.001 C 
ATOM     31  C   UNL     1      34.231 -23.194 -14.661  0.00  0.00    +0.001 C 
ATOM     32  C   UNL     1      36.897 -22.382 -14.733  0.00  0.00    +0.011 C 
ATOM     33  C   UNL     1      35.055 -23.407 -13.557  0.00  0.00    +0.011 C 
ATOM     34  C   UNL     1      36.385 -23.002 -13.592  0.00  0.00    +0.058 C 
ENDBRANCH  21  25
ENDBRANCH  20  21
ENDBRANCH   1  20
TORSDOF 6
ENDMDL
