MODEL 1
REMARK VINA RESULT:     -12.0      0.000      0.000
REMARK  Name = 44144378
REMARK  5 active torsions:
REMARK  status: ('A' for Active; 'I' for Inactive)
REMARK    1  A    between atoms: C_1  and  C_3
REMARK    2  A    between atoms: C_1  and  C_18
REMARK    3  A    between atoms: C_4  and  C_9
REMARK    4  A    between atoms: C_8  and  O_16
REMARK    5  A    between atoms: C_19  and  C_24
REMARK                            x       y       z     vdW  Elec       q    Type
REMARK                         _______ _______ _______ _____ _____    ______ ____
ROOT
ATOM      1  C   UNL     1      32.282 -23.632 -13.573  0.00  0.00    +0.086 C 
ATOM      2  C   UNL     1      31.453 -24.828 -13.066  0.00  0.00    +0.019 C 
ENDROOT
BRANCH   1   3
ATOM      3  C   UNL     1      31.786 -23.103 -14.876  0.00  0.00    -0.007 C 
ATOM      4  C   UNL     1      32.224 -22.107 -17.034  0.00  0.00    +0.003 C 
ATOM      5  C   UNL     1      32.688 -22.601 -15.814  0.00  0.00    -0.003 C 
ATOM      6  C   UNL     1      30.420 -23.112 -15.157  0.00  0.00    +0.034 C 
ATOM      7  C   UNL     1      30.857 -22.115 -17.314  0.00  0.00    +0.037 C 
ATOM      8  C   UNL     1      29.955 -22.617 -16.376  0.00  0.00    +0.138 C 
BRANCH   4   9
ATOM      9  C   UNL     1      33.160 -21.586 -18.008  0.00  0.00    +0.000 C 
ATOM     10  C   UNL     1      34.529 -21.789 -17.836  0.00  0.00    -0.000 C 
ATOM     11  C   UNL     1      32.691 -20.883 -19.117  0.00  0.00    -0.000 C 
ATOM     12  C   UNL     1      34.963 -20.583 -19.885  0.00  0.00    -0.022 C 
ATOM     13  C   UNL     1      35.431 -21.287 -18.775  0.00  0.00    -0.004 C 
ATOM     14  C   UNL     1      33.593 -20.381 -20.056  0.00  0.00    -0.004 C 
ATOM     15  C   UNL     1      35.927 -20.047 -20.888  0.00  0.00    +0.031 C 
ENDBRANCH   4   9
BRANCH   8  16
ATOM     16  O   UNL     1      28.622 -22.625 -16.650  0.00  0.00    -0.471 OA
ATOM     17  C   UNL     1      27.885 -23.781 -16.254  0.00  0.00    +0.252 C 
ENDBRANCH   8  16
ENDBRANCH   1   3
BRANCH   1  18
ATOM     18  C   UNL     1      33.718 -24.008 -13.626  0.00  0.00    -0.087 C 
ATOM     19  C   UNL     1      34.874 -24.333 -13.675  0.00  0.00    -0.076 C 
BRANCH  19  24
ATOM     20  N   UNL     1      38.550 -24.314 -13.166  0.00  0.00    -0.336 NA
ATOM     21  N   UNL     1      37.957 -26.252 -14.471  0.00  0.00    -0.317 NA
ATOM     22  N   UNL     1      35.701 -26.672 -15.041  0.00  0.00    -0.334 N 
ATOM     23  N   UNL     1      40.192 -25.823 -13.898  0.00  0.00    -0.283 N 
ATOM     24  C   UNL     1      36.247 -24.725 -13.737  0.00  0.00    +0.179 C 
ATOM     25  C   UNL     1      37.242 -23.983 -13.133  0.00  0.00    +0.120 C 
ATOM     26  C   UNL     1      36.668 -25.861 -14.398  0.00  0.00    +0.186 C 
ATOM     27  C   UNL     1      36.921 -22.729 -12.384  0.00  0.00    +0.064 C 
ATOM     28  C   UNL     1      38.832 -25.444 -13.843  0.00  0.00    +0.196 C 
ATOM     29  H   UNL     1      35.981 -27.487 -15.519  0.00  0.00    +0.144 HD
ATOM     30  H   UNL     1      34.750 -26.423 -15.012  0.00  0.00    +0.144 HD
ATOM     31  H   UNL     1      40.875 -25.269 -13.456  0.00  0.00    +0.156 HD
ATOM     32  H   UNL     1      40.455 -26.640 -14.379  0.00  0.00    +0.156 HD
ENDBRANCH  19  24
ENDBRANCH   1  18
TORSDOF 5
ENDMDL
MODEL 2
REMARK VINA RESULT:     -11.5      5.625      8.893
REMARK  Name = 44144378
REMARK  5 active torsions:
REMARK  status: ('A' for Active; 'I' for Inactive)
REMARK    1  A    between atoms: C_1  and  C_3
REMARK    2  A    between atoms: C_1  and  C_18
REMARK    3  A    between atoms: C_4  and  C_9
REMARK    4  A    between atoms: C_8  and  O_16
REMARK    5  A    between atoms: C_19  and  C_24
REMARK                            x       y       z     vdW  Elec       q    Type
REMARK                         _______ _______ _______ _____ _____    ______ ____
ROOT
ATOM      1  C   UNL     1      35.895 -18.924 -21.873  0.00  0.00    +0.086 C 
ATOM      2  C   UNL     1      36.909 -17.946 -21.248  0.00  0.00    +0.019 C 
ENDROOT
BRANCH   1   3
ATOM      3  C   UNL     1      34.904 -18.237 -22.751  0.00  0.00    -0.007 C 
ATOM      4  C   UNL     1      33.805 -16.214 -23.483  0.00  0.00    +0.003 C 
ATOM      5  C   UNL     1      34.731 -16.857 -22.661  0.00  0.00    -0.003 C 
ATOM      6  C   UNL     1      34.153 -18.976 -23.665  0.00  0.00    +0.034 C 
ATOM      7  C   UNL     1      33.052 -16.954 -24.397  0.00  0.00    +0.037 C 
ATOM      8  C   UNL     1      33.226 -18.335 -24.487  0.00  0.00    +0.138 C 
BRANCH   4   9
ATOM      9  C   UNL     1      33.624 -14.781 -23.389  0.00  0.00    +0.000 C 
ATOM     10  C   UNL     1      33.136 -14.067 -24.483  0.00  0.00    -0.000 C 
ATOM     11  C   UNL     1      33.939 -14.115 -22.205  0.00  0.00    -0.000 C 
ATOM     12  C   UNL     1      33.277 -12.019 -23.208  0.00  0.00    -0.022 C 
ATOM     13  C   UNL     1      32.962 -12.686 -24.393  0.00  0.00    -0.004 C 
ATOM     14  C   UNL     1      33.765 -12.734 -22.115  0.00  0.00    -0.004 C 
ATOM     15  C   UNL     1      33.092 -10.543 -23.112  0.00  0.00    +0.031 C 
ENDBRANCH   4   9
BRANCH   8  16
ATOM     16  O   UNL     1      32.492 -19.056 -25.378  0.00  0.00    -0.471 OA
ATOM     17  C   UNL     1      31.161 -18.609 -25.636  0.00  0.00    +0.252 C 
ENDBRANCH   8  16
ENDBRANCH   1   3
BRANCH   1  18
ATOM     18  C   UNL     1      35.244 -19.720 -20.802  0.00  0.00    -0.087 C 
ATOM     19  C   UNL     1      34.699 -20.369 -19.950  0.00  0.00    -0.076 C 
BRANCH  19  24
ATOM     20  N   UNL     1      34.173 -22.427 -16.906  0.00  0.00    -0.336 NA
ATOM     21  N   UNL     1      32.054 -22.126 -18.015  0.00  0.00    -0.317 NA
ATOM     22  N   UNL     1      31.912 -20.870 -20.014  0.00  0.00    -0.334 N 
ATOM     23  N   UNL     1      32.210 -23.370 -16.032  0.00  0.00    -0.283 N 
ATOM     24  C   UNL     1      34.049 -21.145 -18.940  0.00  0.00    +0.179 C 
ATOM     25  C   UNL     1      34.745 -21.690 -17.881  0.00  0.00    +0.120 C 
ATOM     26  C   UNL     1      32.692 -21.398 -18.956  0.00  0.00    +0.186 C 
ATOM     27  C   UNL     1      36.221 -21.490 -17.746  0.00  0.00    +0.064 C 
ATOM     28  C   UNL     1      32.844 -22.604 -17.034  0.00  0.00    +0.196 C 
ATOM     29  H   UNL     1      30.942 -21.040 -20.043  0.00  0.00    +0.144 HD
ATOM     30  H   UNL     1      32.338 -20.333 -20.720  0.00  0.00    +0.144 HD
ATOM     31  H   UNL     1      32.739 -23.744 -15.291  0.00  0.00    +0.156 HD
ATOM     32  H   UNL     1      31.240 -23.531 -16.075  0.00  0.00    +0.156 HD
ENDBRANCH  19  24
ENDBRANCH   1  18
TORSDOF 5
ENDMDL
MODEL 3
REMARK VINA RESULT:     -11.5      4.086      6.827
REMARK  Name = 44144378
REMARK  5 active torsions:
REMARK  status: ('A' for Active; 'I' for Inactive)
REMARK    1  A    between atoms: C_1  and  C_3
REMARK    2  A    between atoms: C_1  and  C_18
REMARK    3  A    between atoms: C_4  and  C_9
REMARK    4  A    between atoms: C_8  and  O_16
REMARK    5  A    between atoms: C_19  and  C_24
REMARK                            x       y       z     vdW  Elec       q    Type
REMARK                         _______ _______ _______ _____ _____    ______ ____
ROOT
ATOM      1  C   UNL     1      33.997 -24.039 -14.207  0.00  0.00    +0.086 C 
ATOM      2  C   UNL     1      34.169 -23.687 -12.717  0.00  0.00    +0.019 C 
ENDROOT
BRANCH   1   3
ATOM      3  C   UNL     1      35.024 -23.389 -15.071  0.00  0.00    -0.007 C 
ATOM      4  C   UNL     1      35.594 -22.081 -17.021  0.00  0.00    +0.003 C 
ATOM      5  C   UNL     1      34.633 -22.690 -16.214  0.00  0.00    -0.003 C 
ATOM      6  C   UNL     1      36.375 -23.477 -14.736  0.00  0.00    +0.034 C 
ATOM      7  C   UNL     1      36.945 -22.170 -16.686  0.00  0.00    +0.037 C 
ATOM      8  C   UNL     1      37.336 -22.868 -15.544  0.00  0.00    +0.138 C 
BRANCH   4   9
ATOM      9  C   UNL     1      35.189 -21.356 -18.207  0.00  0.00    +0.000 C 
ATOM     10  C   UNL     1      36.132 -20.639 -18.943  0.00  0.00    -0.000 C 
ATOM     11  C   UNL     1      33.855 -21.375 -18.614  0.00  0.00    -0.000 C 
ATOM     12  C   UNL     1      34.408 -19.959 -20.492  0.00  0.00    -0.022 C 
ATOM     13  C   UNL     1      35.742 -19.940 -20.085  0.00  0.00    -0.004 C 
ATOM     14  C   UNL     1      33.464 -20.677 -19.756  0.00  0.00    -0.004 C 
ATOM     15  C   UNL     1      33.990 -19.212 -21.713  0.00  0.00    +0.031 C 
ENDBRANCH   4   9
BRANCH   8  16
ATOM     16  O   UNL     1      38.654 -22.955 -15.216  0.00  0.00    -0.471 OA
ATOM     17  C   UNL     1      39.131 -24.227 -14.777  0.00  0.00    +0.252 C 
ENDBRANCH   8  16
ENDBRANCH   1   3
BRANCH   1  18
ATOM     18  C   UNL     1      32.612 -23.721 -14.639  0.00  0.00    -0.087 C 
ATOM     19  C   UNL     1      31.490 -23.447 -14.971  0.00  0.00    -0.076 C 
BRANCH  19  24
ATOM     20  N   UNL     1      27.785 -23.237 -14.965  0.00  0.00    -0.336 NA
ATOM     21  N   UNL     1      28.627 -22.046 -16.885  0.00  0.00    -0.317 NA
ATOM     22  N   UNL     1      30.953 -21.917 -17.293  0.00  0.00    -0.334 N 
ATOM     23  N   UNL     1      26.322 -22.182 -16.467  0.00  0.00    -0.283 N 
ATOM     24  C   UNL     1      30.156 -23.117 -15.364  0.00  0.00    +0.179 C 
ATOM     25  C   UNL     1      29.060 -23.525 -14.632  0.00  0.00    +0.120 C 
ATOM     26  C   UNL     1      29.877 -22.372 -16.492  0.00  0.00    +0.186 C 
ATOM     27  C   UNL     1      29.226 -24.338 -13.388  0.00  0.00    +0.064 C 
ATOM     28  C   UNL     1      27.644 -22.505 -16.087  0.00  0.00    +0.196 C 
ATOM     29  H   UNL     1      30.774 -21.385 -18.102  0.00  0.00    +0.144 HD
ATOM     30  H   UNL     1      31.880 -22.132 -17.042  0.00  0.00    +0.144 HD
ATOM     31  H   UNL     1      25.564 -22.492 -15.921  0.00  0.00    +0.156 HD
ATOM     32  H   UNL     1      26.160 -21.649 -17.279  0.00  0.00    +0.156 HD
ENDBRANCH  19  24
ENDBRANCH   1  18
TORSDOF 5
ENDMDL
MODEL 4
REMARK VINA RESULT:     -11.4      2.554      4.543
REMARK  Name = 44144378
REMARK  5 active torsions:
REMARK  status: ('A' for Active; 'I' for Inactive)
REMARK    1  A    between atoms: C_1  and  C_3
REMARK    2  A    between atoms: C_1  and  C_18
REMARK    3  A    between atoms: C_4  and  C_9
REMARK    4  A    between atoms: C_8  and  O_16
REMARK    5  A    between atoms: C_19  and  C_24
REMARK                            x       y       z     vdW  Elec       q    Type
REMARK                         _______ _______ _______ _____ _____    ______ ____
ROOT
ATOM      1  C   UNL     1      36.900 -21.546 -16.683  0.00  0.00    +0.086 C 
ATOM      2  C   UNL     1      37.618 -20.190 -16.536  0.00  0.00    +0.019 C 
ENDROOT
BRANCH   1   3
ATOM      3  C   UNL     1      35.706 -21.469 -17.573  0.00  0.00    -0.007 C 
ATOM      4  C   UNL     1      34.587 -20.528 -19.496  0.00  0.00    +0.003 C 
ATOM      5  C   UNL     1      35.704 -20.599 -18.663  0.00  0.00    -0.003 C 
ATOM      6  C   UNL     1      34.593 -22.268 -17.316  0.00  0.00    +0.034 C 
ATOM      7  C   UNL     1      33.473 -21.327 -19.239  0.00  0.00    +0.037 C 
ATOM      8  C   UNL     1      33.475 -22.197 -18.149  0.00  0.00    +0.138 C 
BRANCH   4   9
ATOM      9  C   UNL     1      34.585 -19.625 -20.628  0.00  0.00    +0.000 C 
ATOM     10  C   UNL     1      35.662 -18.765 -20.836  0.00  0.00    -0.000 C 
ATOM     11  C   UNL     1      33.504 -19.617 -21.510  0.00  0.00    -0.000 C 
ATOM     12  C   UNL     1      34.579 -17.886 -22.809  0.00  0.00    -0.022 C 
ATOM     13  C   UNL     1      35.660 -17.895 -21.926  0.00  0.00    -0.004 C 
ATOM     14  C   UNL     1      33.502 -18.747 -22.601  0.00  0.00    -0.004 C 
ATOM     15  C   UNL     1      34.577 -16.956 -23.975  0.00  0.00    +0.031 C 
ENDBRANCH   4   9
BRANCH   8  16
ATOM     16  O   UNL     1      32.388 -22.976 -17.897  0.00  0.00    -0.471 OA
ATOM     17  C   UNL     1      31.749 -22.810 -16.632  0.00  0.00    +0.252 C 
ENDBRANCH   8  16
ENDBRANCH   1   3
BRANCH   1  18
ATOM     18  C   UNL     1      36.569 -22.083 -15.338  0.00  0.00    -0.087 C 
ATOM     19  C   UNL     1      36.289 -22.499 -14.246  0.00  0.00    -0.076 C 
BRANCH  19  24
ATOM     20  N   UNL     1      34.515 -24.314 -11.538  0.00  0.00    -0.336 NA
ATOM     21  N   UNL     1      36.373 -23.113 -10.580  0.00  0.00    -0.317 NA
ATOM     22  N   UNL     1      37.793 -21.807 -11.948  0.00  0.00    -0.334 N 
ATOM     23  N   UNL     1      34.956 -24.412  -9.235  0.00  0.00    -0.283 N 
ATOM     24  C   UNL     1      35.950 -22.990 -12.947  0.00  0.00    +0.179 C 
ATOM     25  C   UNL     1      34.872 -23.827 -12.745  0.00  0.00    +0.120 C 
ATOM     26  C   UNL     1      36.672 -22.663 -11.817  0.00  0.00    +0.186 C 
ATOM     27  C   UNL     1      34.007 -24.258 -13.887  0.00  0.00    +0.064 C 
ATOM     28  C   UNL     1      35.298 -23.922 -10.515  0.00  0.00    +0.196 C 
ATOM     29  H   UNL     1      38.321 -21.562 -11.153  0.00  0.00    +0.144 HD
ATOM     30  H   UNL     1      38.045 -21.457 -12.833  0.00  0.00    +0.144 HD
ATOM     31  H   UNL     1      34.179 -25.008  -9.128  0.00  0.00    +0.156 HD
ATOM     32  H   UNL     1      35.494 -24.158  -8.451  0.00  0.00    +0.156 HD
ENDBRANCH  19  24
ENDBRANCH   1  18
TORSDOF 5
ENDMDL
MODEL 5
REMARK VINA RESULT:     -11.4      2.629      4.624
REMARK  Name = 44144378
REMARK  5 active torsions:
REMARK  status: ('A' for Active; 'I' for Inactive)
REMARK    1  A    between atoms: C_1  and  C_3
REMARK    2  A    between atoms: C_1  and  C_18
REMARK    3  A    between atoms: C_4  and  C_9
REMARK    4  A    between atoms: C_8  and  O_16
REMARK    5  A    between atoms: C_19  and  C_24
REMARK                            x       y       z     vdW  Elec       q    Type
REMARK                         _______ _______ _______ _____ _____    ______ ____
ROOT
ATOM      1  C   UNL     1      37.092 -20.929 -17.488  0.00  0.00    +0.086 C 
ATOM      2  C   UNL     1      37.502 -19.547 -16.945  0.00  0.00    +0.019 C 
ENDROOT
BRANCH   1   3
ATOM      3  C   UNL     1      35.849 -20.876 -18.310  0.00  0.00    -0.007 C 
ATOM      4  C   UNL     1      34.585 -19.918 -20.133  0.00  0.00    +0.003 C 
ATOM      5  C   UNL     1      35.748 -19.967 -19.363  0.00  0.00    -0.003 C 
ATOM      6  C   UNL     1      34.789 -21.736 -18.027  0.00  0.00    +0.034 C 
ATOM      7  C   UNL     1      33.524 -20.778 -19.849  0.00  0.00    +0.037 C 
ATOM      8  C   UNL     1      33.626 -21.687 -18.796  0.00  0.00    +0.138 C 
BRANCH   4   9
ATOM      9  C   UNL     1      34.479 -18.974 -21.226  0.00  0.00    +0.000 C 
ATOM     10  C   UNL     1      33.873 -19.358 -22.422  0.00  0.00    -0.000 C 
ATOM     11  C   UNL     1      34.984 -17.682 -21.082  0.00  0.00    -0.000 C 
ATOM     12  C   UNL     1      34.276 -17.156 -23.331  0.00  0.00    -0.022 C 
ATOM     13  C   UNL     1      33.771 -18.449 -23.475  0.00  0.00    -0.004 C 
ATOM     14  C   UNL     1      34.882 -16.773 -22.135  0.00  0.00    -0.004 C 
ATOM     15  C   UNL     1      34.167 -16.184 -24.457  0.00  0.00    +0.031 C 
ENDBRANCH   4   9
BRANCH   8  16
ATOM     16  O   UNL     1      32.591 -22.527 -18.519  0.00  0.00    -0.471 OA
ATOM     17  C   UNL     1      32.248 -22.702 -17.144  0.00  0.00    +0.252 C 
ENDBRANCH   8  16
ENDBRANCH   1   3
BRANCH   1  18
ATOM     18  C   UNL     1      36.987 -21.896 -16.366  0.00  0.00    -0.087 C 
ATOM     19  C   UNL     1      36.924 -22.675 -15.453  0.00  0.00    -0.076 C 
BRANCH  19  24
ATOM     20  N   UNL     1      37.870 -25.349 -13.059  0.00  0.00    -0.336 NA
ATOM     21  N   UNL     1      35.662 -24.557 -12.506  0.00  0.00    -0.317 NA
ATOM     22  N   UNL     1      34.647 -22.841 -13.777  0.00  0.00    -0.334 N 
ATOM     23  N   UNL     1      36.681 -26.260 -11.253  0.00  0.00    -0.283 N 
ATOM     24  C   UNL     1      36.854 -23.600 -14.365  0.00  0.00    +0.179 C 
ATOM     25  C   UNL     1      37.893 -24.460 -14.075  0.00  0.00    +0.120 C 
ATOM     26  C   UNL     1      35.752 -23.694 -13.539  0.00  0.00    +0.186 C 
ATOM     27  C   UNL     1      39.144 -24.460 -14.893  0.00  0.00    +0.064 C 
ATOM     28  C   UNL     1      36.740 -25.344 -12.326  0.00  0.00    +0.196 C 
ATOM     29  H   UNL     1      33.851 -22.893 -13.198  0.00  0.00    +0.144 HD
ATOM     30  H   UNL     1      34.672 -22.196 -14.520  0.00  0.00    +0.144 HD
ATOM     31  H   UNL     1      37.441 -26.859 -11.076  0.00  0.00    +0.156 HD
ATOM     32  H   UNL     1      35.879 -26.299 -10.684  0.00  0.00    +0.156 HD
ENDBRANCH  19  24
ENDBRANCH   1  18
TORSDOF 5
ENDMDL
MODEL 6
REMARK VINA RESULT:     -11.3      4.013      6.776
REMARK  Name = 44144378
REMARK  5 active torsions:
REMARK  status: ('A' for Active; 'I' for Inactive)
REMARK    1  A    between atoms: C_1  and  C_3
REMARK    2  A    between atoms: C_1  and  C_18
REMARK    3  A    between atoms: C_4  and  C_9
REMARK    4  A    between atoms: C_8  and  O_16
REMARK    5  A    between atoms: C_19  and  C_24
REMARK                            x       y       z     vdW  Elec       q    Type
REMARK                         _______ _______ _______ _____ _____    ______ ____
ROOT
ATOM      1  C   UNL     1      31.698 -22.745 -17.262  0.00  0.00    +0.086 C 
ATOM      2  C   UNL     1      30.379 -21.985 -17.018  0.00  0.00    +0.019 C 
ENDROOT
BRANCH   1   3
ATOM      3  C   UNL     1      32.355 -23.173 -15.994  0.00  0.00    -0.007 C 
ATOM      4  C   UNL     1      34.347 -23.794 -14.776  0.00  0.00    +0.003 C 
ATOM      5  C   UNL     1      33.732 -23.395 -15.963  0.00  0.00    -0.003 C 
ATOM      6  C   UNL     1      31.594 -23.349 -14.839  0.00  0.00    +0.034 C 
ATOM      7  C   UNL     1      33.585 -23.971 -13.620  0.00  0.00    +0.037 C 
ATOM      8  C   UNL     1      32.208 -23.749 -13.652  0.00  0.00    +0.138 C 
BRANCH   4   9
ATOM      9  C   UNL     1      35.776 -24.025 -14.743  0.00  0.00    +0.000 C 
ATOM     10  C   UNL     1      36.274 -25.259 -14.325  0.00  0.00    -0.000 C 
ATOM     11  C   UNL     1      36.654 -23.012 -15.129  0.00  0.00    -0.000 C 
ATOM     12  C   UNL     1      38.529 -24.468 -14.679  0.00  0.00    -0.022 C 
ATOM     13  C   UNL     1      37.650 -25.481 -14.293  0.00  0.00    -0.004 C 
ATOM     14  C   UNL     1      38.030 -23.234 -15.097  0.00  0.00    -0.004 C 
ATOM     15  C   UNL     1      40.001 -24.705 -14.645  0.00  0.00    +0.031 C 
ENDBRANCH   4   9
BRANCH   8  16
ATOM     16  O   UNL     1      31.465 -23.922 -12.526  0.00  0.00    -0.471 OA
ATOM     17  C   UNL     1      30.108 -24.332 -12.700  0.00  0.00    +0.252 C 
ENDBRANCH   8  16
ENDBRANCH   1   3
BRANCH   1  18
ATOM     18  C   UNL     1      32.595 -21.926 -18.116  0.00  0.00    -0.087 C 
ATOM     19  C   UNL     1      33.305 -21.246 -18.807  0.00  0.00    -0.076 C 
BRANCH  19  24
ATOM     20  N   UNL     1      36.337 -19.578 -20.150  0.00  0.00    -0.336 NA
ATOM     21  N   UNL     1      34.436 -18.924 -21.481  0.00  0.00    -0.317 NA
ATOM     22  N   UNL     1      32.278 -19.752 -20.984  0.00  0.00    -0.334 N 
ATOM     23  N   UNL     1      36.584 -18.109 -21.963  0.00  0.00    -0.283 N 
ATOM     24  C   UNL     1      34.147 -20.432 -19.628  0.00  0.00    +0.179 C 
ATOM     25  C   UNL     1      35.504 -20.333 -19.402  0.00  0.00    +0.120 C 
ATOM     26  C   UNL     1      33.663 -19.698 -20.692  0.00  0.00    +0.186 C 
ATOM     27  C   UNL     1      36.155 -21.078 -18.281  0.00  0.00    +0.064 C 
ATOM     28  C   UNL     1      35.744 -18.909 -21.158  0.00  0.00    +0.196 C 
ATOM     29  H   UNL     1      31.914 -19.235 -21.739  0.00  0.00    +0.144 HD
ATOM     30  H   UNL     1      31.679 -20.305 -20.433  0.00  0.00    +0.144 HD
ATOM     31  H   UNL     1      37.549 -18.062 -21.772  0.00  0.00    +0.156 HD
ATOM     32  H   UNL     1      36.204 -17.599 -22.714  0.00  0.00    +0.156 HD
ENDBRANCH  19  24
ENDBRANCH   1  18
TORSDOF 5
ENDMDL
MODEL 7
REMARK VINA RESULT:     -11.0      3.731      6.793
REMARK  Name = 44144378
REMARK  5 active torsions:
REMARK  status: ('A' for Active; 'I' for Inactive)
REMARK    1  A    between atoms: C_1  and  C_3
REMARK    2  A    between atoms: C_1  and  C_18
REMARK    3  A    between atoms: C_4  and  C_9
REMARK    4  A    between atoms: C_8  and  O_16
REMARK    5  A    between atoms: C_19  and  C_24
REMARK                            x       y       z     vdW  Elec       q    Type
REMARK                         _______ _______ _______ _____ _____    ______ ____
ROOT
ATOM      1  C   UNL     1      31.785 -22.797 -17.253  0.00  0.00    +0.086 C 
ATOM      2  C   UNL     1      30.465 -22.040 -17.010  0.00  0.00    +0.019 C 
ENDROOT
BRANCH   1   3
ATOM      3  C   UNL     1      32.437 -23.232 -15.985  0.00  0.00    -0.007 C 
ATOM      4  C   UNL     1      34.423 -23.863 -14.761  0.00  0.00    +0.003 C 
ATOM      5  C   UNL     1      33.813 -23.456 -15.949  0.00  0.00    -0.003 C 
ATOM      6  C   UNL     1      31.670 -23.414 -14.834  0.00  0.00    +0.034 C 
ATOM      7  C   UNL     1      33.656 -24.045 -13.610  0.00  0.00    +0.037 C 
ATOM      8  C   UNL     1      32.280 -23.821 -13.646  0.00  0.00    +0.138 C 
BRANCH   4   9
ATOM      9  C   UNL     1      35.852 -24.095 -14.723  0.00  0.00    +0.000 C 
ATOM     10  C   UNL     1      36.345 -25.347 -14.360  0.00  0.00    -0.000 C 
ATOM     11  C   UNL     1      36.733 -23.065 -15.051  0.00  0.00    -0.000 C 
ATOM     12  C   UNL     1      38.604 -24.541 -14.651  0.00  0.00    -0.022 C 
ATOM     13  C   UNL     1      37.721 -25.571 -14.324  0.00  0.00    -0.004 C 
ATOM     14  C   UNL     1      38.110 -23.289 -15.015  0.00  0.00    -0.004 C 
ATOM     15  C   UNL     1      40.075 -24.780 -14.612  0.00  0.00    +0.031 C 
ENDBRANCH   4   9
BRANCH   8  16
ATOM     16  O   UNL     1      31.531 -24.000 -12.524  0.00  0.00    -0.471 OA
ATOM     17  C   UNL     1      30.165 -24.371 -12.707  0.00  0.00    +0.252 C 
ENDBRANCH   8  16
ENDBRANCH   1   3
BRANCH   1  18
ATOM     18  C   UNL     1      32.686 -21.971 -18.097  0.00  0.00    -0.087 C 
ATOM     19  C   UNL     1      33.420 -21.289 -18.761  0.00  0.00    -0.076 C 
BRANCH  19  24
ATOM     20  N   UNL     1      34.620 -18.931 -21.363  0.00  0.00    -0.336 NA
ATOM     21  N   UNL     1      36.501 -19.643 -20.034  0.00  0.00    -0.317 NA
ATOM     22  N   UNL     1      36.202 -21.161 -18.246  0.00  0.00    -0.334 N 
ATOM     23  N   UNL     1      36.783 -18.138 -21.812  0.00  0.00    -0.283 N 
ATOM     24  C   UNL     1      34.296 -20.476 -19.546  0.00  0.00    +0.179 C 
ATOM     25  C   UNL     1      33.831 -19.711 -20.596  0.00  0.00    +0.120 C 
ATOM     26  C   UNL     1      35.653 -20.402 -19.309  0.00  0.00    +0.186 C 
ATOM     27  C   UNL     1      32.380 -19.702 -20.958  0.00  0.00    +0.064 C 
ATOM     28  C   UNL     1      35.925 -18.944 -21.031  0.00  0.00    +0.196 C 
ATOM     29  H   UNL     1      37.169 -21.122 -18.060  0.00  0.00    +0.144 HD
ATOM     30  H   UNL     1      35.619 -21.727 -17.691  0.00  0.00    +0.144 HD
ATOM     31  H   UNL     1      36.416 -17.606 -22.555  0.00  0.00    +0.156 HD
ATOM     32  H   UNL     1      37.746 -18.110 -21.614  0.00  0.00    +0.156 HD
ENDBRANCH  19  24
ENDBRANCH   1  18
TORSDOF 5
ENDMDL
MODEL 8
REMARK VINA RESULT:     -10.6      4.236      7.510
REMARK  Name = 44144378
REMARK  5 active torsions:
REMARK  status: ('A' for Active; 'I' for Inactive)
REMARK    1  A    between atoms: C_1  and  C_3
REMARK    2  A    between atoms: C_1  and  C_18
REMARK    3  A    between atoms: C_4  and  C_9
REMARK    4  A    between atoms: C_8  and  O_16
REMARK    5  A    between atoms: C_19  and  C_24
REMARK                            x       y       z     vdW  Elec       q    Type
REMARK                         _______ _______ _______ _____ _____    ______ ____
ROOT
ATOM      1  C   UNL     1      36.902 -21.912 -15.745  0.00  0.00    +0.086 C 
ATOM      2  C   UNL     1      38.126 -22.798 -16.051  0.00  0.00    +0.019 C 
ENDROOT
BRANCH   1   3
ATOM      3  C   UNL     1      35.886 -22.610 -14.906  0.00  0.00    -0.007 C 
ATOM      4  C   UNL     1      33.577 -23.093 -14.386  0.00  0.00    +0.003 C 
ATOM      5  C   UNL     1      34.527 -22.439 -15.170  0.00  0.00    -0.003 C 
ATOM      6  C   UNL     1      36.295 -23.435 -13.859  0.00  0.00    +0.034 C 
ATOM      7  C   UNL     1      33.985 -23.918 -13.337  0.00  0.00    +0.037 C 
ATOM      8  C   UNL     1      35.344 -24.088 -13.073  0.00  0.00    +0.138 C 
BRANCH   4   9
ATOM      9  C   UNL     1      32.166 -22.916 -14.660  0.00  0.00    +0.000 C 
ATOM     10  C   UNL     1      31.726 -22.759 -15.974  0.00  0.00    -0.000 C 
ATOM     11  C   UNL     1      31.248 -22.904 -13.609  0.00  0.00    -0.000 C 
ATOM     12  C   UNL     1      29.448 -22.576 -15.188  0.00  0.00    -0.022 C 
ATOM     13  C   UNL     1      30.367 -22.588 -16.238  0.00  0.00    -0.004 C 
ATOM     14  C   UNL     1      29.890 -22.734 -13.874  0.00  0.00    -0.004 C 
ATOM     15  C   UNL     1      27.995 -22.394 -15.470  0.00  0.00    +0.031 C 
ENDBRANCH   4   9
BRANCH   8  16
ATOM     16  O   UNL     1      35.743 -24.892 -12.050  0.00  0.00    -0.471 OA
ATOM     17  C   UNL     1      36.951 -25.630 -12.238  0.00  0.00    +0.252 C 
ENDBRANCH   8  16
ENDBRANCH   1   3
BRANCH   1  18
ATOM     18  C   UNL     1      36.330 -21.397 -17.015  0.00  0.00    -0.087 C 
ATOM     19  C   UNL     1      35.852 -20.966 -18.030  0.00  0.00    -0.076 C 
BRANCH  19  24
ATOM     20  N   UNL     1      33.520 -20.472 -20.874  0.00  0.00    -0.336 NA
ATOM     21  N   UNL     1      35.363 -18.936 -21.106  0.00  0.00    -0.317 NA
ATOM     22  N   UNL     1      37.105 -18.899 -19.507  0.00  0.00    -0.334 N 
ATOM     23  N   UNL     1      33.629 -18.984 -22.686  0.00  0.00    -0.283 N 
ATOM     24  C   UNL     1      35.283 -20.449 -19.235  0.00  0.00    +0.179 C 
ATOM     25  C   UNL     1      34.093 -20.929 -19.742  0.00  0.00    +0.120 C 
ATOM     26  C   UNL     1      35.880 -19.442 -19.967  0.00  0.00    +0.186 C 
ATOM     27  C   UNL     1      33.345 -22.021 -19.044  0.00  0.00    +0.064 C 
ATOM     28  C   UNL     1      34.199 -19.490 -21.497  0.00  0.00    +0.196 C 
ATOM     29  H   UNL     1      37.546 -18.180 -20.015  0.00  0.00    +0.144 HD
ATOM     30  H   UNL     1      37.515 -19.239 -18.680  0.00  0.00    +0.144 HD
ATOM     31  H   UNL     1      32.778 -19.352 -23.018  0.00  0.00    +0.156 HD
ATOM     32  H   UNL     1      34.082 -18.266 -23.182  0.00  0.00    +0.156 HD
ENDBRANCH  19  24
ENDBRANCH   1  18
TORSDOF 5
ENDMDL
MODEL 9
REMARK VINA RESULT:     -10.4     12.316     15.736
REMARK  Name = 44144378
REMARK  5 active torsions:
REMARK  status: ('A' for Active; 'I' for Inactive)
REMARK    1  A    between atoms: C_1  and  C_3
REMARK    2  A    between atoms: C_1  and  C_18
REMARK    3  A    between atoms: C_4  and  C_9
REMARK    4  A    between atoms: C_8  and  O_16
REMARK    5  A    between atoms: C_19  and  C_24
REMARK                            x       y       z     vdW  Elec       q    Type
REMARK                         _______ _______ _______ _____ _____    ______ ____
ROOT
ATOM      1  C   UNL     1      31.278 -11.257 -20.914  0.00  0.00    +0.086 C 
ATOM      2  C   UNL     1      31.784 -11.555 -19.489  0.00  0.00    +0.019 C 
ENDROOT
BRANCH   1   3
ATOM      3  C   UNL     1      32.005 -12.038 -21.955  0.00  0.00    -0.007 C 
ATOM      4  C   UNL     1      33.314 -13.967 -22.591  0.00  0.00    +0.003 C 
ATOM      5  C   UNL     1      32.634 -13.236 -21.616  0.00  0.00    -0.003 C 
ATOM      6  C   UNL     1      32.054 -11.572 -23.269  0.00  0.00    +0.034 C 
ATOM      7  C   UNL     1      33.363 -13.500 -23.905  0.00  0.00    +0.037 C 
ATOM      8  C   UNL     1      32.734 -12.303 -24.244  0.00  0.00    +0.138 C 
BRANCH   4   9
ATOM      9  C   UNL     1      33.967 -15.210 -22.239  0.00  0.00    +0.000 C 
ATOM     10  C   UNL     1      34.133 -15.555 -20.898  0.00  0.00    -0.000 C 
ATOM     11  C   UNL     1      34.430 -16.062 -23.242  0.00  0.00    -0.000 C 
ATOM     12  C   UNL     1      35.226 -17.605 -21.562  0.00  0.00    -0.022 C 
ATOM     13  C   UNL     1      34.762 -16.753 -20.559  0.00  0.00    -0.004 C 
ATOM     14  C   UNL     1      35.059 -17.260 -22.903  0.00  0.00    -0.004 C 
ATOM     15  C   UNL     1      35.899 -18.886 -21.199  0.00  0.00    +0.031 C 
ENDBRANCH   4   9
BRANCH   8  16
ATOM     16  O   UNL     1      32.782 -11.848 -25.525  0.00  0.00    -0.471 OA
ATOM     17  C   UNL     1      32.736 -12.826 -26.564  0.00  0.00    +0.252 C 
ENDBRANCH   8  16
ENDBRANCH   1   3
BRANCH   1  18
ATOM     18  C   UNL     1      31.330  -9.794 -21.166  0.00  0.00    -0.087 C 
ATOM     19  C   UNL     1      31.360  -8.607 -21.350  0.00  0.00    -0.076 C 
BRANCH  19  24
ATOM     20  N   UNL     1      30.854  -5.287 -22.929  0.00  0.00    -0.336 NA
ATOM     21  N   UNL     1      32.025  -4.984 -20.844  0.00  0.00    -0.317 NA
ATOM     22  N   UNL     1      32.565  -6.845 -19.488  0.00  0.00    -0.334 N 
ATOM     23  N   UNL     1      31.482  -3.147 -22.199  0.00  0.00    -0.283 N 
ATOM     24  C   UNL     1      31.395  -7.194 -21.563  0.00  0.00    +0.179 C 
ATOM     25  C   UNL     1      30.844  -6.614 -22.687  0.00  0.00    +0.120 C 
ATOM     26  C   UNL     1      31.978  -6.321 -20.666  0.00  0.00    +0.186 C 
ATOM     27  C   UNL     1      30.181  -7.449 -23.737  0.00  0.00    +0.064 C 
ATOM     28  C   UNL     1      31.453  -4.542 -21.980  0.00  0.00    +0.196 C 
ATOM     29  H   UNL     1      32.986  -6.238 -18.836  0.00  0.00    +0.144 HD
ATOM     30  H   UNL     1      32.552  -7.814 -19.320  0.00  0.00    +0.144 HD
ATOM     31  H   UNL     1      31.079  -2.768 -23.014  0.00  0.00    +0.156 HD
ATOM     32  H   UNL     1      31.907  -2.554 -21.538  0.00  0.00    +0.156 HD
ENDBRANCH  19  24
ENDBRANCH   1  18
TORSDOF 5
ENDMDL
