MODEL 1
REMARK VINA RESULT:     -11.5      0.000      0.000
REMARK  Name = 10252640
REMARK  6 active torsions:
REMARK  status: ('A' for Active; 'I' for Inactive)
REMARK    1  A    between atoms: N_1  and  C_31
REMARK    2  A    between atoms: C_4  and  N_23
REMARK    3  A    between atoms: C_6  and  C_13
REMARK    4  A    between atoms: C_14  and  C_15
REMARK    5  A    between atoms: C_15  and  C_18
REMARK    6  A    between atoms: N_23  and  C_26
REMARK                            x       y       z     vdW  Elec       q    Type
REMARK                         _______ _______ _______ _____ _____    ______ ____
ROOT
ATOM      1  N   UNL     1      30.125 -24.259 -14.351  0.00  0.00    -0.195 N 
ATOM      2  N   UNL     1      31.037 -23.236 -16.344  0.00  0.00    -0.227 NA
ATOM      3  N   UNL     1      30.499 -24.614 -13.108  0.00  0.00    -0.175 NA
ATOM      4  C   UNL     1      33.444 -23.120 -14.748  0.00  0.00    +0.055 C 
ATOM      5  C   UNL     1      32.237 -23.665 -14.253  0.00  0.00    +0.067 C 
ATOM      6  C   UNL     1      33.394 -22.637 -16.069  0.00  0.00    +0.087 C 
ATOM      7  C   UNL     1      31.125 -23.685 -15.080  0.00  0.00    +0.153 C 
ATOM      8  C   UNL     1      31.784 -24.250 -13.053  0.00  0.00    +0.122 C 
ATOM      9  C   UNL     1      32.208 -22.719 -16.791  0.00  0.00    +0.106 C 
ENDROOT
BRANCH   6  13
ATOM     10  O   UNL     1      34.530 -21.984 -18.045  0.00  0.00    -0.419 OA
ATOM     11  N   UNL     1      35.653 -21.582 -16.153  0.00  0.00    -0.107 NA
ATOM     12  N   UNL     1      36.432 -21.153 -17.211  0.00  0.00    -0.111 NA
ATOM     13  C   UNL     1      34.561 -22.055 -16.691  0.00  0.00    +0.252 A 
ATOM     14  C   UNL     1      35.737 -21.409 -18.295  0.00  0.00    +0.228 A 
BRANCH  14  15
ATOM     15  C   UNL     1      36.075 -21.164 -19.703  0.00  0.00    +0.105 C 
BRANCH  15  18
ATOM     16  S   UNL     1      36.302 -18.674 -20.897  0.00  0.00    -0.080 S 
ATOM     17  N   UNL     1      33.724 -18.531 -21.035  0.00  0.00    -0.408 NA
ATOM     18  C   UNL     1      35.367 -19.953 -20.306  0.00  0.00    +0.111 C 
ATOM     19  C   UNL     1      34.045 -19.738 -20.446  0.00  0.00    +0.098 C 
ATOM     20  C   UNL     1      34.837 -17.886 -21.315  0.00  0.00    +0.134 C 
ATOM     21  C   UNL     1      32.939 -20.632 -20.047  0.00  0.00    +0.062 C 
ATOM     22  C   UNL     1      34.893 -16.554 -21.954  0.00  0.00    +0.074 C 
ENDBRANCH  15  18
ENDBRANCH  14  15
ENDBRANCH   6  13
BRANCH   4  23
ATOM     23  N   UNL     1      34.594 -23.063 -13.983  0.00  0.00    -0.334 N 
ATOM     24  H   UNL     1      34.980 -22.179 -13.786  0.00  0.00    +0.147 HD
BRANCH  23  26
ATOM     25  O   UNL     1      38.047 -23.647 -12.947  0.00  0.00    -0.354 OA
ATOM     26  C   UNL     1      35.262 -24.236 -13.455  0.00  0.00    +0.074 C 
ATOM     27  C   UNL     1      35.806 -23.940 -12.056  0.00  0.00    +0.052 C 
ATOM     28  C   UNL     1      36.386 -24.673 -14.397  0.00  0.00    +0.052 C 
ATOM     29  C   UNL     1      37.054 -23.063 -12.105  0.00  0.00    +0.144 C 
ATOM     30  C   UNL     1      37.606 -23.762 -14.299  0.00  0.00    +0.144 C 
ENDBRANCH  23  26
ENDBRANCH   4  23
BRANCH   1  31
ATOM     31  C   UNL     1      28.769 -24.502 -14.783  0.00  0.00    +0.118 C 
ATOM     32  C   UNL     1      28.092 -23.241 -15.293  0.00  0.00    +0.025 C 
ENDBRANCH   1  31
TORSDOF 6
ENDMDL
MODEL 2
REMARK VINA RESULT:     -10.7      2.037      4.949
REMARK  Name = 10252640
REMARK  6 active torsions:
REMARK  status: ('A' for Active; 'I' for Inactive)
REMARK    1  A    between atoms: N_1  and  C_31
REMARK    2  A    between atoms: C_4  and  N_23
REMARK    3  A    between atoms: C_6  and  C_13
REMARK    4  A    between atoms: C_14  and  C_15
REMARK    5  A    between atoms: C_15  and  C_18
REMARK    6  A    between atoms: N_23  and  C_26
REMARK                            x       y       z     vdW  Elec       q    Type
REMARK                         _______ _______ _______ _____ _____    ______ ____
ROOT
ATOM      1  N   UNL     1      35.816 -23.637 -12.073  0.00  0.00    -0.195 N 
ATOM      2  N   UNL     1      36.056 -22.602 -14.246  0.00  0.00    -0.227 NA
ATOM      3  N   UNL     1      34.894 -24.274 -11.328  0.00  0.00    -0.175 NA
ATOM      4  C   UNL     1      33.293 -23.400 -14.533  0.00  0.00    +0.055 C 
ATOM      5  C   UNL     1      34.037 -23.668 -13.361  0.00  0.00    +0.067 C 
ATOM      6  C   UNL     1      33.990 -22.720 -15.550  0.00  0.00    +0.087 C 
ATOM      7  C   UNL     1      35.358 -23.253 -13.299  0.00  0.00    +0.153 C 
ATOM      8  C   UNL     1      33.814 -24.290 -12.116  0.00  0.00    +0.122 C 
ATOM      9  C   UNL     1      35.319 -22.361 -15.357  0.00  0.00    +0.106 C 
ENDROOT
BRANCH   6  13
ATOM     10  O   UNL     1      34.159 -22.301 -17.877  0.00  0.00    -0.419 OA
ATOM     11  N   UNL     1      32.082 -22.157 -17.057  0.00  0.00    -0.107 NA
ATOM     12  N   UNL     1      32.025 -21.890 -18.412  0.00  0.00    -0.111 NA
ATOM     13  C   UNL     1      33.341 -22.389 -16.798  0.00  0.00    +0.252 A 
ATOM     14  C   UNL     1      33.260 -21.985 -18.849  0.00  0.00    +0.228 A 
BRANCH  14  15
ATOM     15  C   UNL     1      33.789 -21.801 -20.206  0.00  0.00    +0.105 C 
BRANCH  15  18
ATOM     16  S   UNL     1      33.816 -19.366 -21.529  0.00  0.00    -0.080 S 
ATOM     17  N   UNL     1      35.969 -18.722 -20.252  0.00  0.00    -0.408 NA
ATOM     18  C   UNL     1      34.481 -20.457 -20.422  0.00  0.00    +0.111 C 
ATOM     19  C   UNL     1      35.598 -19.985 -19.836  0.00  0.00    +0.098 C 
ATOM     20  C   UNL     1      35.101 -18.297 -21.145  0.00  0.00    +0.134 C 
ATOM     21  C   UNL     1      36.439 -20.658 -18.824  0.00  0.00    +0.062 C 
ATOM     22  C   UNL     1      35.170 -16.983 -21.819  0.00  0.00    +0.074 C 
ENDBRANCH  15  18
ENDBRANCH  14  15
ENDBRANCH   6  13
BRANCH   4  23
ATOM     23  N   UNL     1      31.972 -23.783 -14.670  0.00  0.00    -0.334 N 
ATOM     24  H   UNL     1      31.732 -24.369 -15.424  0.00  0.00    +0.147 HD
BRANCH  23  26
ATOM     25  O   UNL     1      28.345 -24.187 -14.788  0.00  0.00    -0.354 OA
ATOM     26  C   UNL     1      30.921 -23.370 -13.761  0.00  0.00    +0.074 C 
ATOM     27  C   UNL     1      30.171 -24.597 -13.240  0.00  0.00    +0.052 C 
ATOM     28  C   UNL     1      29.965 -22.403 -14.464  0.00  0.00    +0.052 C 
ATOM     29  C   UNL     1      29.239 -25.184 -14.295  0.00  0.00    +0.144 C 
ATOM     30  C   UNL     1      29.035 -23.120 -15.437  0.00  0.00    +0.144 C 
ENDBRANCH  23  26
ENDBRANCH   4  23
BRANCH   1  31
ATOM     31  C   UNL     1      37.140 -23.427 -11.539  0.00  0.00    +0.118 C 
ATOM     32  C   UNL     1      38.180 -24.304 -12.217  0.00  0.00    +0.025 C 
ENDBRANCH   1  31
TORSDOF 6
ENDMDL
MODEL 3
REMARK VINA RESULT:     -10.5      1.803      2.678
REMARK  Name = 10252640
REMARK  6 active torsions:
REMARK  status: ('A' for Active; 'I' for Inactive)
REMARK    1  A    between atoms: N_1  and  C_31
REMARK    2  A    between atoms: C_4  and  N_23
REMARK    3  A    between atoms: C_6  and  C_13
REMARK    4  A    between atoms: C_14  and  C_15
REMARK    5  A    between atoms: C_15  and  C_18
REMARK    6  A    between atoms: N_23  and  C_26
REMARK                            x       y       z     vdW  Elec       q    Type
REMARK                         _______ _______ _______ _____ _____    ______ ____
ROOT
ATOM      1  N   UNL     1      30.673 -23.237 -15.589  0.00  0.00    -0.195 N 
ATOM      2  N   UNL     1      31.018 -21.916 -17.585  0.00  0.00    -0.227 NA
ATOM      3  N   UNL     1      31.378 -23.857 -14.625  0.00  0.00    -0.175 NA
ATOM      4  C   UNL     1      33.805 -22.298 -16.921  0.00  0.00    +0.055 C 
ATOM      5  C   UNL     1      32.763 -22.836 -16.133  0.00  0.00    +0.067 C 
ATOM      6  C   UNL     1      33.395 -21.563 -18.049  0.00  0.00    +0.087 C 
ATOM      7  C   UNL     1      31.450 -22.610 -16.517  0.00  0.00    +0.153 C 
ATOM      8  C   UNL     1      32.649 -23.609 -14.960  0.00  0.00    +0.122 C 
ATOM      9  C   UNL     1      32.039 -21.412 -18.320  0.00  0.00    +0.106 C 
ENDROOT
BRANCH   6  13
ATOM     10  O   UNL     1      33.918 -20.671 -20.182  0.00  0.00    -0.419 OA
ATOM     11  N   UNL     1      35.615 -20.646 -18.725  0.00  0.00    -0.107 NA
ATOM     12  N   UNL     1      36.065 -20.102 -19.912  0.00  0.00    -0.111 NA
ATOM     13  C   UNL     1      34.365 -20.960 -18.934  0.00  0.00    +0.252 A 
ATOM     14  C   UNL     1      35.042 -20.137 -20.734  0.00  0.00    +0.228 A 
BRANCH  14  15
ATOM     15  C   UNL     1      34.946 -19.690 -22.130  0.00  0.00    +0.105 C 
BRANCH  15  18
ATOM     16  S   UNL     1      34.905 -17.154 -21.014  0.00  0.00    -0.080 S 
ATOM     17  N   UNL     1      33.758 -16.258 -23.151  0.00  0.00    -0.408 NA
ATOM     18  C   UNL     1      34.565 -18.219 -22.282  0.00  0.00    +0.111 C 
ATOM     19  C   UNL     1      33.968 -17.612 -23.326  0.00  0.00    +0.098 C 
ATOM     20  C   UNL     1      34.212 -15.907 -21.967  0.00  0.00    +0.134 C 
ATOM     21  C   UNL     1      33.532 -18.224 -24.597  0.00  0.00    +0.062 C 
ATOM     22  C   UNL     1      34.160 -14.532 -21.425  0.00  0.00    +0.074 C 
ENDBRANCH  15  18
ENDBRANCH  14  15
ENDBRANCH   6  13
BRANCH   4  23
ATOM     23  N   UNL     1      35.138 -22.480 -16.602  0.00  0.00    -0.334 N 
ATOM     24  H   UNL     1      35.671 -23.093 -17.158  0.00  0.00    +0.147 HD
BRANCH  23  26
ATOM     25  O   UNL     1      38.026 -23.401 -14.566  0.00  0.00    -0.354 OA
ATOM     26  C   UNL     1      35.793 -21.815 -15.493  0.00  0.00    +0.074 C 
ATOM     27  C   UNL     1      37.245 -21.499 -15.859  0.00  0.00    +0.052 C 
ATOM     28  C   UNL     1      35.724 -22.689 -14.238  0.00  0.00    +0.052 C 
ATOM     29  C   UNL     1      38.123 -22.746 -15.830  0.00  0.00    +0.144 C 
ATOM     30  C   UNL     1      36.702 -23.859 -14.297  0.00  0.00    +0.144 C 
ENDBRANCH  23  26
ENDBRANCH   4  23
BRANCH   1  31
ATOM     31  C   UNL     1      29.231 -23.288 -15.558  0.00  0.00    +0.118 C 
ATOM     32  C   UNL     1      28.711 -24.667 -15.186  0.00  0.00    +0.025 C 
ENDBRANCH   1  31
TORSDOF 6
ENDMDL
MODEL 4
REMARK VINA RESULT:     -10.3      2.986      7.701
REMARK  Name = 10252640
REMARK  6 active torsions:
REMARK  status: ('A' for Active; 'I' for Inactive)
REMARK    1  A    between atoms: N_1  and  C_31
REMARK    2  A    between atoms: C_4  and  N_23
REMARK    3  A    between atoms: C_6  and  C_13
REMARK    4  A    between atoms: C_14  and  C_15
REMARK    5  A    between atoms: C_15  and  C_18
REMARK    6  A    between atoms: N_23  and  C_26
REMARK                            x       y       z     vdW  Elec       q    Type
REMARK                         _______ _______ _______ _____ _____    ______ ____
ROOT
ATOM      1  N   UNL     1      33.901 -21.139 -19.353  0.00  0.00    -0.195 N 
ATOM      2  N   UNL     1      35.154 -21.743 -17.374  0.00  0.00    -0.227 NA
ATOM      3  N   UNL     1      32.648 -21.201 -19.841  0.00  0.00    -0.175 NA
ATOM      4  C   UNL     1      32.585 -22.721 -16.483  0.00  0.00    +0.055 C 
ATOM      5  C   UNL     1      32.762 -22.114 -17.747  0.00  0.00    +0.067 C 
ATOM      6  C   UNL     1      33.743 -22.816 -15.688  0.00  0.00    +0.087 C 
ATOM      7  C   UNL     1      34.026 -21.670 -18.103  0.00  0.00    +0.153 C 
ATOM      8  C   UNL     1      31.960 -21.794 -18.860  0.00  0.00    +0.122 C 
ATOM      9  C   UNL     1      34.953 -22.328 -16.169  0.00  0.00    +0.106 C 
ENDROOT
BRANCH   6  13
ATOM     10  O   UNL     1      34.896 -23.694 -13.812  0.00  0.00    -0.419 OA
ATOM     11  N   UNL     1      32.666 -23.735 -13.633  0.00  0.00    -0.107 NA
ATOM     12  N   UNL     1      33.197 -24.274 -12.477  0.00  0.00    -0.111 NA
ATOM     13  C   UNL     1      33.693 -23.415 -14.374  0.00  0.00    +0.252 A 
ATOM     14  C   UNL     1      34.500 -24.231 -12.625  0.00  0.00    +0.228 A 
BRANCH  14  15
ATOM     15  C   UNL     1      35.562 -24.670 -11.711  0.00  0.00    +0.105 C 
BRANCH  15  18
ATOM     16  S   UNL     1      37.495 -25.982 -13.202  0.00  0.00    -0.080 S 
ATOM     17  N   UNL     1      39.053 -23.935 -12.941  0.00  0.00    -0.408 NA
ATOM     18  C   UNL     1      36.959 -24.638 -12.327  0.00  0.00    +0.111 C 
ATOM     19  C   UNL     1      37.876 -23.652 -12.277  0.00  0.00    +0.098 C 
ATOM     20  C   UNL     1      38.965 -25.138 -13.467  0.00  0.00    +0.134 C 
ATOM     21  C   UNL     1      37.754 -22.341 -11.607  0.00  0.00    +0.062 C 
ATOM     22  C   UNL     1      40.035 -25.787 -14.254  0.00  0.00    +0.074 C 
ENDBRANCH  15  18
ENDBRANCH  14  15
ENDBRANCH   6  13
BRANCH   4  23
ATOM     23  N   UNL     1      31.355 -23.187 -16.056  0.00  0.00    -0.334 N 
ATOM     24  H   UNL     1      31.187 -24.157 -16.090  0.00  0.00    +0.147 HD
BRANCH  23  26
ATOM     25  O   UNL     1      27.928 -23.881 -15.005  0.00  0.00    -0.354 OA
ATOM     26  C   UNL     1      30.300 -22.325 -15.562  0.00  0.00    +0.074 C 
ATOM     27  C   UNL     1      29.899 -22.751 -14.148  0.00  0.00    +0.052 C 
ATOM     28  C   UNL     1      29.097 -22.367 -16.507  0.00  0.00    +0.052 C 
ATOM     29  C   UNL     1      29.064 -24.027 -14.154  0.00  0.00    +0.144 C 
ATOM     30  C   UNL     1      28.299 -23.660 -16.365  0.00  0.00    +0.144 C 
ENDBRANCH  23  26
ENDBRANCH   4  23
BRANCH   1  31
ATOM     31  C   UNL     1      34.947 -20.548 -20.152  0.00  0.00    +0.118 C 
ATOM     32  C   UNL     1      34.441 -19.392 -20.998  0.00  0.00    +0.025 C 
ENDBRANCH   1  31
TORSDOF 6
ENDMDL
MODEL 5
REMARK VINA RESULT:     -10.2      2.554      7.350
REMARK  Name = 10252640
REMARK  6 active torsions:
REMARK  status: ('A' for Active; 'I' for Inactive)
REMARK    1  A    between atoms: N_1  and  C_31
REMARK    2  A    between atoms: C_4  and  N_23
REMARK    3  A    between atoms: C_6  and  C_13
REMARK    4  A    between atoms: C_14  and  C_15
REMARK    5  A    between atoms: C_15  and  C_18
REMARK    6  A    between atoms: N_23  and  C_26
REMARK                            x       y       z     vdW  Elec       q    Type
REMARK                         _______ _______ _______ _____ _____    ______ ____
ROOT
ATOM      1  N   UNL     1      35.043 -18.459 -21.458  0.00  0.00    -0.195 N 
ATOM      2  N   UNL     1      33.123 -19.795 -20.842  0.00  0.00    -0.227 NA
ATOM      3  N   UNL     1      36.337 -18.295 -21.127  0.00  0.00    -0.175 NA
ATOM      4  C   UNL     1      34.984 -20.949 -18.955  0.00  0.00    +0.055 C 
ATOM      5  C   UNL     1      35.360 -19.924 -19.852  0.00  0.00    +0.067 C 
ATOM      6  C   UNL     1      33.643 -21.371 -19.044  0.00  0.00    +0.087 C 
ATOM      7  C   UNL     1      34.410 -19.421 -20.727  0.00  0.00    +0.153 C 
ATOM      8  C   UNL     1      36.525 -19.189 -20.150  0.00  0.00    +0.122 C 
ATOM      9  C   UNL     1      32.793 -20.779 -19.971  0.00  0.00    +0.106 C 
ENDROOT
BRANCH   6  13
ATOM     10  O   UNL     1      32.491 -21.989 -17.067  0.00  0.00    -0.419 OA
ATOM     11  N   UNL     1      33.199 -23.712 -18.305  0.00  0.00    -0.107 NA
ATOM     12  N   UNL     1      32.552 -24.222 -17.196  0.00  0.00    -0.111 NA
ATOM     13  C   UNL     1      33.135 -22.414 -18.182  0.00  0.00    +0.252 A 
ATOM     14  C   UNL     1      32.156 -23.181 -16.501  0.00  0.00    +0.228 A 
BRANCH  14  15
ATOM     15  C   UNL     1      31.420 -23.127 -15.231  0.00  0.00    +0.105 C 
BRANCH  15  18
ATOM     16  S   UNL     1      29.154 -21.836 -16.168  0.00  0.00    -0.080 S 
ATOM     17  N   UNL     1      27.708 -23.796 -15.300  0.00  0.00    -0.408 NA
ATOM     18  C   UNL     1      29.902 -23.142 -15.396  0.00  0.00    +0.111 C 
ATOM     19  C   UNL     1      29.025 -24.083 -15.000  0.00  0.00    +0.098 C 
ATOM     20  C   UNL     1      27.656 -22.635 -15.917  0.00  0.00    +0.134 C 
ATOM     21  C   UNL     1      29.317 -25.351 -14.301  0.00  0.00    +0.062 C 
ATOM     22  C   UNL     1      26.411 -21.996 -16.394  0.00  0.00    +0.074 C 
ENDBRANCH  15  18
ENDBRANCH  14  15
ENDBRANCH   6  13
BRANCH   4  23
ATOM     23  N   UNL     1      35.874 -21.502 -18.054  0.00  0.00    -0.334 N 
ATOM     24  H   UNL     1      36.394 -22.290 -18.334  0.00  0.00    +0.147 HD
BRANCH  23  26
ATOM     25  O   UNL     1      37.138 -23.058 -15.001  0.00  0.00    -0.354 OA
ATOM     26  C   UNL     1      36.086 -20.982 -16.717  0.00  0.00    +0.074 C 
ATOM     27  C   UNL     1      37.567 -21.082 -16.348  0.00  0.00    +0.052 C 
ATOM     28  C   UNL     1      35.219 -21.743 -15.711  0.00  0.00    +0.052 C 
ATOM     29  C   UNL     1      37.976 -22.515 -16.021  0.00  0.00    +0.144 C 
ATOM     30  C   UNL     1      35.773 -23.132 -15.410  0.00  0.00    +0.144 C 
ENDBRANCH  23  26
ENDBRANCH   4  23
BRANCH   1  31
ATOM     31  C   UNL     1      34.468 -17.645 -22.502  0.00  0.00    +0.118 C 
ATOM     32  C   UNL     1      34.666 -16.160 -22.249  0.00  0.00    +0.025 C 
ENDBRANCH   1  31
TORSDOF 6
ENDMDL
MODEL 6
REMARK VINA RESULT:     -10.0      2.830      6.812
REMARK  Name = 10252640
REMARK  6 active torsions:
REMARK  status: ('A' for Active; 'I' for Inactive)
REMARK    1  A    between atoms: N_1  and  C_31
REMARK    2  A    between atoms: C_4  and  N_23
REMARK    3  A    between atoms: C_6  and  C_13
REMARK    4  A    between atoms: C_14  and  C_15
REMARK    5  A    between atoms: C_15  and  C_18
REMARK    6  A    between atoms: N_23  and  C_26
REMARK                            x       y       z     vdW  Elec       q    Type
REMARK                         _______ _______ _______ _____ _____    ______ ____
ROOT
ATOM      1  N   UNL     1      34.635 -20.201 -20.164  0.00  0.00    -0.195 N 
ATOM      2  N   UNL     1      32.490 -20.932 -19.317  0.00  0.00    -0.227 NA
ATOM      3  N   UNL     1      35.946 -20.294 -19.875  0.00  0.00    -0.175 NA
ATOM      4  C   UNL     1      34.121 -22.167 -17.276  0.00  0.00    +0.055 C 
ATOM      5  C   UNL     1      34.681 -21.418 -18.336  0.00  0.00    +0.067 C 
ATOM      6  C   UNL     1      32.717 -22.271 -17.282  0.00  0.00    +0.087 C 
ATOM      7  C   UNL     1      33.832 -20.856 -19.277  0.00  0.00    +0.153 C 
ATOM      8  C   UNL     1      35.968 -21.035 -18.763  0.00  0.00    +0.122 C 
ATOM      9  C   UNL     1      31.983 -21.656 -18.290  0.00  0.00    +0.106 C 
ENDROOT
BRANCH   6  13
ATOM     10  O   UNL     1      30.683 -23.128 -16.418  0.00  0.00    -0.419 OA
ATOM     11  N   UNL     1      32.485 -23.592 -15.178  0.00  0.00    -0.107 NA
ATOM     12  N   UNL     1      31.385 -24.149 -14.555  0.00  0.00    -0.111 NA
ATOM     13  C   UNL     1      32.024 -23.012 -16.253  0.00  0.00    +0.252 A 
ATOM     14  C   UNL     1      30.355 -23.853 -15.314  0.00  0.00    +0.228 A 
BRANCH  14  15
ATOM     15  C   UNL     1      28.936 -24.188 -15.139  0.00  0.00    +0.105 C 
BRANCH  15  18
ATOM     16  S   UNL     1      27.294 -23.508 -17.265  0.00  0.00    -0.080 S 
ATOM     17  N   UNL     1      26.705 -21.291 -16.072  0.00  0.00    -0.408 NA
ATOM     18  C   UNL     1      27.981 -23.170 -15.758  0.00  0.00    +0.111 C 
ATOM     19  C   UNL     1      27.583 -21.983 -15.260  0.00  0.00    +0.098 C 
ATOM     20  C   UNL     1      26.482 -22.001 -17.157  0.00  0.00    +0.134 C 
ATOM     21  C   UNL     1      27.975 -21.366 -13.976  0.00  0.00    +0.062 C 
ATOM     22  C   UNL     1      25.592 -21.582 -18.261  0.00  0.00    +0.074 C 
ENDBRANCH  15  18
ENDBRANCH  14  15
ENDBRANCH   6  13
BRANCH   4  23
ATOM     23  N   UNL     1      34.902 -22.758 -16.300  0.00  0.00    -0.334 N 
ATOM     24  H   UNL     1      35.003 -23.738 -16.314  0.00  0.00    +0.147 HD
BRANCH  23  26
ATOM     25  O   UNL     1      37.796 -23.556 -14.221  0.00  0.00    -0.354 OA
ATOM     26  C   UNL     1      35.581 -22.014 -15.259  0.00  0.00    +0.074 C 
ATOM     27  C   UNL     1      37.034 -21.757 -15.664  0.00  0.00    +0.052 C 
ATOM     28  C   UNL     1      35.510 -22.776 -13.933  0.00  0.00    +0.052 C 
ATOM     29  C   UNL     1      37.890 -23.013 -15.537  0.00  0.00    +0.144 C 
ATOM     30  C   UNL     1      36.467 -23.964 -13.902  0.00  0.00    +0.144 C 
ENDBRANCH  23  26
ENDBRANCH   4  23
BRANCH   1  31
ATOM     31  C   UNL     1      34.214 -19.456 -21.327  0.00  0.00    +0.118 C 
ATOM     32  C   UNL     1      35.148 -18.299 -21.637  0.00  0.00    +0.025 C 
ENDBRANCH   1  31
TORSDOF 6
ENDMDL
MODEL 7
REMARK VINA RESULT:     -10.0      2.801      6.593
REMARK  Name = 10252640
REMARK  6 active torsions:
REMARK  status: ('A' for Active; 'I' for Inactive)
REMARK    1  A    between atoms: N_1  and  C_31
REMARK    2  A    between atoms: C_4  and  N_23
REMARK    3  A    between atoms: C_6  and  C_13
REMARK    4  A    between atoms: C_14  and  C_15
REMARK    5  A    between atoms: C_15  and  C_18
REMARK    6  A    between atoms: N_23  and  C_26
REMARK                            x       y       z     vdW  Elec       q    Type
REMARK                         _______ _______ _______ _____ _____    ______ ____
ROOT
ATOM      1  N   UNL     1      35.937 -21.308 -18.069  0.00  0.00    -0.195 N 
ATOM      2  N   UNL     1      33.795 -22.378 -17.730  0.00  0.00    -0.227 NA
ATOM      3  N   UNL     1      37.019 -20.917 -17.370  0.00  0.00    -0.175 NA
ATOM      4  C   UNL     1      34.665 -22.437 -14.974  0.00  0.00    +0.055 C 
ATOM      5  C   UNL     1      35.462 -21.886 -16.004  0.00  0.00    +0.067 C 
ATOM      6  C   UNL     1      33.421 -22.956 -15.381  0.00  0.00    +0.087 C 
ATOM      7  C   UNL     1      34.975 -21.895 -17.302  0.00  0.00    +0.153 C 
ATOM      8  C   UNL     1      36.725 -21.272 -16.116  0.00  0.00    +0.122 C 
ATOM      9  C   UNL     1      33.055 -22.900 -16.721  0.00  0.00    +0.106 C 
ENDROOT
BRANCH   6  13
ATOM     10  O   UNL     1      31.206 -23.232 -14.585  0.00  0.00    -0.419 OA
ATOM     11  N   UNL     1      32.757 -24.344 -13.417  0.00  0.00    -0.107 NA
ATOM     12  N   UNL     1      31.527 -24.598 -12.841  0.00  0.00    -0.111 NA
ATOM     13  C   UNL     1      32.516 -23.547 -14.424  0.00  0.00    +0.252 A 
ATOM     14  C   UNL     1      30.651 -23.928 -13.555  0.00  0.00    +0.228 A 
BRANCH  14  15
ATOM     15  C   UNL     1      29.195 -23.830 -13.399  0.00  0.00    +0.105 C 
BRANCH  15  18
ATOM     16  S   UNL     1      27.656 -22.027 -14.834  0.00  0.00    -0.080 S 
ATOM     17  N   UNL     1      27.594 -23.690 -16.812  0.00  0.00    -0.408 NA
ATOM     18  C   UNL     1      28.455 -23.511 -14.696  0.00  0.00    +0.111 C 
ATOM     19  C   UNL     1      28.336 -24.270 -15.802  0.00  0.00    +0.098 C 
ATOM     20  C   UNL     1      27.185 -22.505 -16.413  0.00  0.00    +0.134 C 
ATOM     21  C   UNL     1      28.900 -25.614 -16.038  0.00  0.00    +0.062 C 
ATOM     22  C   UNL     1      26.362 -21.586 -17.227  0.00  0.00    +0.074 C 
ENDBRANCH  15  18
ENDBRANCH  14  15
ENDBRANCH   6  13
BRANCH   4  23
ATOM     23  N   UNL     1      35.083 -22.466 -13.657  0.00  0.00    -0.334 N 
ATOM     24  H   UNL     1      34.419 -22.284 -12.953  0.00  0.00    +0.147 HD
BRANCH  23  26
ATOM     25  O   UNL     1      36.478 -24.856 -11.274  0.00  0.00    -0.354 OA
ATOM     26  C   UNL     1      36.446 -22.751 -13.255  0.00  0.00    +0.074 C 
ATOM     27  C   UNL     1      36.796 -24.202 -13.592  0.00  0.00    +0.052 C 
ATOM     28  C   UNL     1      36.625 -22.478 -11.760  0.00  0.00    +0.052 C 
ATOM     29  C   UNL     1      36.144 -25.183 -12.623  0.00  0.00    +0.144 C 
ATOM     30  C   UNL     1      35.995 -23.568 -10.898  0.00  0.00    +0.144 C 
ENDBRANCH  23  26
ENDBRANCH   4  23
BRANCH   1  31
ATOM     31  C   UNL     1      35.892 -21.084 -19.494  0.00  0.00    +0.118 C 
ATOM     32  C   UNL     1      34.690 -20.252 -19.908  0.00  0.00    +0.025 C 
ENDBRANCH   1  31
TORSDOF 6
ENDMDL
MODEL 8
REMARK VINA RESULT:      -9.9      2.782      7.672
REMARK  Name = 10252640
REMARK  6 active torsions:
REMARK  status: ('A' for Active; 'I' for Inactive)
REMARK    1  A    between atoms: N_1  and  C_31
REMARK    2  A    between atoms: C_4  and  N_23
REMARK    3  A    between atoms: C_6  and  C_13
REMARK    4  A    between atoms: C_14  and  C_15
REMARK    5  A    between atoms: C_15  and  C_18
REMARK    6  A    between atoms: N_23  and  C_26
REMARK                            x       y       z     vdW  Elec       q    Type
REMARK                         _______ _______ _______ _____ _____    ______ ____
ROOT
ATOM      1  N   UNL     1      33.502 -19.815 -20.968  0.00  0.00    -0.195 N 
ATOM      2  N   UNL     1      35.598 -20.102 -19.797  0.00  0.00    -0.227 NA
ATOM      3  N   UNL     1      32.212 -20.191 -20.886  0.00  0.00    -0.175 NA
ATOM      4  C   UNL     1      33.979 -21.724 -18.036  0.00  0.00    +0.055 C 
ATOM      5  C   UNL     1      33.439 -21.073 -19.169  0.00  0.00    +0.067 C 
ATOM      6  C   UNL     1      35.357 -21.528 -17.823  0.00  0.00    +0.087 C 
ATOM      7  C   UNL     1      34.281 -20.313 -19.966  0.00  0.00    +0.153 C 
ATOM      8  C   UNL     1      32.180 -20.956 -19.790  0.00  0.00    +0.122 C 
ATOM      9  C   UNL     1      36.086 -20.737 -18.703  0.00  0.00    +0.106 C 
ENDROOT
BRANCH   6  13
ATOM     10  O   UNL     1      35.451 -23.267 -16.215  0.00  0.00    -0.419 OA
ATOM     11  N   UNL     1      37.109 -21.774 -16.064  0.00  0.00    -0.107 NA
ATOM     12  N   UNL     1      37.294 -22.718 -15.072  0.00  0.00    -0.111 NA
ATOM     13  C   UNL     1      36.027 -22.138 -16.698  0.00  0.00    +0.252 A 
ATOM     14  C   UNL     1      36.303 -23.569 -15.197  0.00  0.00    +0.228 A 
BRANCH  14  15
ATOM     15  C   UNL     1      35.996 -24.771 -14.412  0.00  0.00    +0.105 C 
BRANCH  15  18
ATOM     16  S   UNL     1      34.861 -23.985 -12.009  0.00  0.00    -0.080 S 
ATOM     17  N   UNL     1      37.075 -24.556 -10.803  0.00  0.00    -0.408 NA
ATOM     18  C   UNL     1      36.163 -24.584 -12.906  0.00  0.00    +0.111 C 
ATOM     19  C   UNL     1      37.246 -24.835 -12.145  0.00  0.00    +0.098 C 
ATOM     20  C   UNL     1      35.855 -24.102 -10.616  0.00  0.00    +0.134 C 
ATOM     21  C   UNL     1      38.554 -25.363 -12.584  0.00  0.00    +0.062 C 
ATOM     22  C   UNL     1      35.306 -23.696  -9.304  0.00  0.00    +0.074 C 
ENDBRANCH  15  18
ENDBRANCH  14  15
ENDBRANCH   6  13
BRANCH   4  23
ATOM     23  N   UNL     1      33.203 -22.498 -17.193  0.00  0.00    -0.334 N 
ATOM     24  H   UNL     1      33.258 -23.478 -17.278  0.00  0.00    +0.147 HD
BRANCH  23  26
ATOM     25  O   UNL     1      30.924 -24.075 -14.816  0.00  0.00    -0.354 OA
ATOM     26  C   UNL     1      32.315 -21.945 -16.190  0.00  0.00    +0.074 C 
ATOM     27  C   UNL     1      32.723 -22.443 -14.802  0.00  0.00    +0.052 C 
ATOM     28  C   UNL     1      30.865 -22.324 -16.502  0.00  0.00    +0.052 C 
ATOM     29  C   UNL     1      32.320 -23.897 -14.578  0.00  0.00    +0.144 C 
ATOM     30  C   UNL     1      30.567 -23.782 -16.165  0.00  0.00    +0.144 C 
ENDBRANCH  23  26
ENDBRANCH   4  23
BRANCH   1  31
ATOM     31  C   UNL     1      33.926 -18.962 -22.052  0.00  0.00    +0.118 C 
ATOM     32  C   UNL     1      34.790 -17.808 -21.572  0.00  0.00    +0.025 C 
ENDBRANCH   1  31
TORSDOF 6
ENDMDL
MODEL 9
REMARK VINA RESULT:      -9.8      2.317      4.976
REMARK  Name = 10252640
REMARK  6 active torsions:
REMARK  status: ('A' for Active; 'I' for Inactive)
REMARK    1  A    between atoms: N_1  and  C_31
REMARK    2  A    between atoms: C_4  and  N_23
REMARK    3  A    between atoms: C_6  and  C_13
REMARK    4  A    between atoms: C_14  and  C_15
REMARK    5  A    between atoms: C_15  and  C_18
REMARK    6  A    between atoms: N_23  and  C_26
REMARK                            x       y       z     vdW  Elec       q    Type
REMARK                         _______ _______ _______ _____ _____    ______ ____
ROOT
ATOM      1  N   UNL     1      36.887 -23.886 -13.423  0.00  0.00    -0.195 N 
ATOM      2  N   UNL     1      37.515 -22.500 -15.303  0.00  0.00    -0.227 NA
ATOM      3  N   UNL     1      35.811 -24.519 -12.920  0.00  0.00    -0.175 NA
ATOM      4  C   UNL     1      34.736 -22.837 -16.020  0.00  0.00    +0.055 C 
ATOM      5  C   UNL     1      35.291 -23.424 -14.859  0.00  0.00    +0.067 C 
ATOM      6  C   UNL     1      35.628 -22.079 -16.802  0.00  0.00    +0.087 C 
ATOM      7  C   UNL     1      36.633 -23.216 -14.583  0.00  0.00    +0.153 C 
ATOM      8  C   UNL     1      34.843 -24.235 -13.798  0.00  0.00    +0.122 C 
ATOM      9  C   UNL     1      36.955 -21.951 -16.408  0.00  0.00    +0.106 C 
ENDROOT
BRANCH   6  13
ATOM     10  O   UNL     1      36.070 -20.572 -18.577  0.00  0.00    -0.419 OA
ATOM     11  N   UNL     1      34.053 -21.535 -18.659  0.00  0.00    -0.107 NA
ATOM     12  N   UNL     1      34.167 -20.691 -19.747  0.00  0.00    -0.111 NA
ATOM     13  C   UNL     1      35.183 -21.430 -18.014  0.00  0.00    +0.252 A 
ATOM     14  C   UNL     1      35.359 -20.149 -19.658  0.00  0.00    +0.228 A 
BRANCH  14  15
ATOM     15  C   UNL     1      36.015 -19.176 -20.542  0.00  0.00    +0.105 C 
BRANCH  15  18
ATOM     16  S   UNL     1      34.699 -19.597 -22.944  0.00  0.00    -0.080 S 
ATOM     17  N   UNL     1      33.753 -17.194 -22.820  0.00  0.00    -0.408 NA
ATOM     18  C   UNL     1      35.099 -18.615 -21.628  0.00  0.00    +0.111 C 
ATOM     19  C   UNL     1      34.535 -17.394 -21.700  0.00  0.00    +0.098 C 
ATOM     20  C   UNL     1      33.767 -18.289 -23.549  0.00  0.00    +0.134 C 
ATOM     21  C   UNL     1      34.661 -16.284 -20.733  0.00  0.00    +0.062 C 
ATOM     22  C   UNL     1      33.043 -18.453 -24.827  0.00  0.00    +0.074 C 
ENDBRANCH  15  18
ENDBRANCH  14  15
ENDBRANCH   6  13
BRANCH   4  23
ATOM     23  N   UNL     1      33.406 -23.000 -16.362  0.00  0.00    -0.334 N 
ATOM     24  H   UNL     1      33.175 -23.698 -17.017  0.00  0.00    +0.147 HD
BRANCH  23  26
ATOM     25  O   UNL     1      30.192 -23.906 -14.886  0.00  0.00    -0.354 OA
ATOM     26  C   UNL     1      32.333 -22.197 -15.809  0.00  0.00    +0.074 C 
ATOM     27  C   UNL     1      32.128 -22.547 -14.334  0.00  0.00    +0.052 C 
ATOM     28  C   UNL     1      31.045 -22.415 -16.607  0.00  0.00    +0.052 C 
ATOM     29  C   UNL     1      31.421 -23.888 -14.161  0.00  0.00    +0.144 C 
ATOM     30  C   UNL     1      30.393 -23.758 -16.290  0.00  0.00    +0.144 C 
ENDBRANCH  23  26
ENDBRANCH   4  23
BRANCH   1  31
ATOM     31  C   UNL     1      38.149 -23.968 -12.728  0.00  0.00    +0.118 C 
ATOM     32  C   UNL     1      39.068 -25.021 -13.327  0.00  0.00    +0.025 C 
ENDBRANCH   1  31
TORSDOF 6
ENDMDL
