MODEL 1
REMARK VINA RESULT:     -13.5      0.000      0.000
REMARK  Name = 32778
REMARK  7 active torsions:
REMARK  status: ('A' for Active; 'I' for Inactive)
REMARK    1  A    between atoms: C_1  and  S_7
REMARK    2  A    between atoms: C_2  and  C_23
REMARK    3  A    between atoms: S_7  and  N_12
REMARK    4  A    between atoms: N_11  and  N_16
REMARK    5  A    between atoms: C_23  and  C_24
REMARK    6  A    between atoms: C_24  and  N_26
REMARK    7  A    between atoms: C_27  and  C_31
REMARK                            x       y       z     vdW  Elec       q    Type
REMARK                         _______ _______ _______ _____ _____    ______ ____
ROOT
ATOM      1  C   UNL     1      33.962 -21.008 -19.409  0.00  0.00    +0.125 C 
ATOM      2  C   UNL     1      35.081 -19.044 -21.043  0.00  0.00    -0.020 C 
ATOM      3  C   UNL     1      33.139 -20.213 -20.206  0.00  0.00    +0.020 C 
ATOM      4  C   UNL     1      35.344 -20.821 -19.428  0.00  0.00    +0.020 C 
ATOM      5  C   UNL     1      33.698 -19.231 -21.024  0.00  0.00    -0.003 C 
ATOM      6  C   UNL     1      35.904 -19.839 -20.246  0.00  0.00    -0.003 C 
ENDROOT
BRANCH   1   7
ATOM      7  S   UNL     1      33.252 -22.251 -18.372  0.00  0.00    +0.077 S 
ATOM      8  O   UNL     1      33.459 -23.539 -19.004  0.00  0.00    -0.150 OA
ATOM      9  O   UNL     1      31.913 -21.803 -18.036  0.00  0.00    -0.150 OA
BRANCH   7  12
ATOM     10  O   UNL     1      33.837 -24.228 -16.051  0.00  0.00    -0.250 OA
ATOM     11  N   UNL     1      35.283 -22.760 -14.999  0.00  0.00    -0.230 N 
ATOM     12  N   UNL     1      34.250 -22.132 -16.989  0.00  0.00    -0.168 N 
ATOM     13  C   UNL     1      34.415 -23.147 -15.994  0.00  0.00    +0.333 C 
ATOM     14  H   UNL     1      35.709 -21.873 -15.025  0.00  0.00    +0.171 HD
ATOM     15  H   UNL     1      34.753 -21.293 -16.866  0.00  0.00    +0.178 HD
BRANCH  11  16
ATOM     16  N   UNL     1      35.552 -23.637 -13.959  0.00  0.00    -0.205 NA
ATOM     17  C   UNL     1      37.234 -24.311 -11.322  0.00  0.00    +0.002 C 
ATOM     18  C   UNL     1      37.460 -25.606 -12.093  0.00  0.00    +0.002 C 
ATOM     19  C   UNL     1      35.830 -23.731 -11.445  0.00  0.00    +0.019 C 
ATOM     20  C   UNL     1      36.800 -25.723 -13.462  0.00  0.00    +0.019 C 
ATOM     21  C   UNL     1      35.640 -22.883 -12.707  0.00  0.00    +0.092 C 
ATOM     22  C   UNL     1      36.741 -24.433 -14.280  0.00  0.00    +0.092 C 
ENDBRANCH  11  16
ENDBRANCH   7  12
ENDBRANCH   1   7
BRANCH   2  23
ATOM     23  C   UNL     1      35.678 -17.994 -21.918  0.00  0.00    +0.048 C 
BRANCH  23  24
ATOM     24  C   UNL     1      34.893 -17.757 -23.215  0.00  0.00    +0.094 C 
BRANCH  24  26
ATOM     25  O   UNL     1      33.063 -16.763 -25.142  0.00  0.00    -0.268 OA
ATOM     26  N   UNL     1      34.477 -16.388 -23.360  0.00  0.00    -0.299 N 
ATOM     27  C   UNL     1      33.570 -15.982 -24.337  0.00  0.00    +0.267 C 
ATOM     28  H   UNL     1      34.846 -15.712 -22.746  0.00  0.00    +0.150 HD
BRANCH  27  31
ATOM     29  O   UNL     1      32.679 -12.636 -25.201  0.00  0.00    -0.358 OA
ATOM     30  N   UNL     1      32.869 -13.977 -25.515  0.00  0.00    -0.073 NA
ATOM     31  C   UNL     1      33.272 -14.544 -24.375  0.00  0.00    +0.176 C 
ATOM     32  C   UNL     1      33.354 -13.620 -23.318  0.00  0.00    +0.063 C 
ATOM     33  C   UNL     1      32.971 -12.437 -23.890  0.00  0.00    +0.155 C 
ATOM     34  C   UNL     1      32.823 -11.065 -23.386  0.00  0.00    +0.075 C 
ENDBRANCH  27  31
ENDBRANCH  24  26
ENDBRANCH  23  24
ENDBRANCH   2  23
TORSDOF 7
ENDMDL
MODEL 2
REMARK VINA RESULT:     -13.2      0.963      1.356
REMARK  Name = 32778
REMARK  7 active torsions:
REMARK  status: ('A' for Active; 'I' for Inactive)
REMARK    1  A    between atoms: C_1  and  S_7
REMARK    2  A    between atoms: C_2  and  C_23
REMARK    3  A    between atoms: S_7  and  N_12
REMARK    4  A    between atoms: N_11  and  N_16
REMARK    5  A    between atoms: C_23  and  C_24
REMARK    6  A    between atoms: C_24  and  N_26
REMARK    7  A    between atoms: C_27  and  C_31
REMARK                            x       y       z     vdW  Elec       q    Type
REMARK                         _______ _______ _______ _____ _____    ______ ____
ROOT
ATOM      1  C   UNL     1      34.037 -20.895 -19.526  0.00  0.00    +0.125 C 
ATOM      2  C   UNL     1      35.122 -18.942 -21.196  0.00  0.00    -0.020 C 
ATOM      3  C   UNL     1      35.416 -20.681 -19.545  0.00  0.00    +0.020 C 
ATOM      4  C   UNL     1      33.201 -20.133 -20.342  0.00  0.00    +0.020 C 
ATOM      5  C   UNL     1      35.958 -19.704 -20.379  0.00  0.00    -0.003 C 
ATOM      6  C   UNL     1      33.744 -19.155 -21.177  0.00  0.00    -0.003 C 
ENDROOT
BRANCH   1   7
ATOM      7  S   UNL     1      33.351 -22.135 -18.469  0.00  0.00    +0.077 S 
ATOM      8  O   UNL     1      33.477 -23.416 -19.135  0.00  0.00    -0.150 OA
ATOM      9  O   UNL     1      32.050 -21.651 -18.045  0.00  0.00    -0.150 OA
BRANCH   7  12
ATOM     10  O   UNL     1      33.759 -24.004 -16.025  0.00  0.00    -0.250 OA
ATOM     11  N   UNL     1      35.472 -22.710 -15.163  0.00  0.00    -0.230 N 
ATOM     12  N   UNL     1      34.433 -22.073 -17.148  0.00  0.00    -0.168 N 
ATOM     13  C   UNL     1      34.499 -23.026 -16.083  0.00  0.00    +0.333 C 
ATOM     14  H   UNL     1      36.026 -21.904 -15.280  0.00  0.00    +0.171 HD
ATOM     15  H   UNL     1      35.066 -21.318 -17.117  0.00  0.00    +0.178 HD
BRANCH  11  16
ATOM     16  N   UNL     1      35.662 -23.539 -14.068  0.00  0.00    -0.205 NA
ATOM     17  C   UNL     1      37.298 -24.208 -11.402  0.00  0.00    +0.002 C 
ATOM     18  C   UNL     1      37.384 -25.566 -12.086  0.00  0.00    +0.002 C 
ATOM     19  C   UNL     1      35.959 -23.497 -11.556  0.00  0.00    +0.019 C 
ATOM     20  C   UNL     1      36.699 -25.704 -13.442  0.00  0.00    +0.019 C 
ATOM     21  C   UNL     1      35.841 -22.718 -12.870  0.00  0.00    +0.092 C 
ATOM     22  C   UNL     1      36.761 -24.472 -14.342  0.00  0.00    +0.092 C 
ENDBRANCH  11  16
ENDBRANCH   7  12
ENDBRANCH   1   7
BRANCH   2  23
ATOM     23  C   UNL     1      35.702 -17.896 -22.087  0.00  0.00    +0.048 C 
BRANCH  23  24
ATOM     24  C   UNL     1      34.716 -17.370 -23.138  0.00  0.00    +0.094 C 
BRANCH  24  26
ATOM     25  O   UNL     1      33.812 -15.417 -24.988  0.00  0.00    -0.268 OA
ATOM     26  N   UNL     1      34.214 -16.063 -22.811  0.00  0.00    -0.299 N 
ATOM     27  C   UNL     1      33.788 -15.161 -23.785  0.00  0.00    +0.267 C 
ATOM     28  H   UNL     1      34.168 -15.795 -21.865  0.00  0.00    +0.150 HD
BRANCH  27  31
ATOM     29  O   UNL     1      32.670 -12.362 -21.872  0.00  0.00    -0.358 OA
ATOM     30  N   UNL     1      33.068 -13.689 -21.991  0.00  0.00    -0.073 NA
ATOM     31  C   UNL     1      33.332 -13.854 -23.290  0.00  0.00    +0.176 C 
ATOM     32  C   UNL     1      33.121 -12.679 -24.032  0.00  0.00    +0.063 C 
ATOM     33  C   UNL     1      32.706 -11.772 -23.095  0.00  0.00    +0.155 C 
ATOM     34  C   UNL     1      32.312 -10.358 -23.152  0.00  0.00    +0.075 C 
ENDBRANCH  27  31
ENDBRANCH  24  26
ENDBRANCH  23  24
ENDBRANCH   2  23
TORSDOF 7
ENDMDL
MODEL 3
REMARK VINA RESULT:     -12.9      2.571     11.753
REMARK  Name = 32778
REMARK  7 active torsions:
REMARK  status: ('A' for Active; 'I' for Inactive)
REMARK    1  A    between atoms: C_1  and  S_7
REMARK    2  A    between atoms: C_2  and  C_23
REMARK    3  A    between atoms: S_7  and  N_12
REMARK    4  A    between atoms: N_11  and  N_16
REMARK    5  A    between atoms: C_23  and  C_24
REMARK    6  A    between atoms: C_24  and  N_26
REMARK    7  A    between atoms: C_27  and  C_31
REMARK                            x       y       z     vdW  Elec       q    Type
REMARK                         _______ _______ _______ _____ _____    ______ ____
ROOT
ATOM      1  C   UNL     1      34.957 -19.542 -20.520  0.00  0.00    +0.125 C 
ATOM      2  C   UNL     1      33.695 -21.496 -18.980  0.00  0.00    -0.020 C 
ATOM      3  C   UNL     1      33.566 -19.650 -20.534  0.00  0.00    +0.020 C 
ATOM      4  C   UNL     1      35.717 -20.412 -19.738  0.00  0.00    +0.020 C 
ATOM      5  C   UNL     1      32.935 -20.627 -19.763  0.00  0.00    -0.003 C 
ATOM      6  C   UNL     1      35.086 -21.388 -18.967  0.00  0.00    -0.003 C 
ENDROOT
BRANCH   1   7
ATOM      7  S   UNL     1      35.755 -18.305 -21.499  0.00  0.00    +0.077 S 
ATOM      8  O   UNL     1      35.420 -18.543 -22.889  0.00  0.00    -0.150 OA
ATOM      9  O   UNL     1      37.142 -18.265 -21.073  0.00  0.00    -0.150 OA
BRANCH   7  12
ATOM     10  O   UNL     1      34.178 -16.098 -23.007  0.00  0.00    -0.250 OA
ATOM     11  N   UNL     1      33.722 -14.923 -21.066  0.00  0.00    -0.230 N 
ATOM     12  N   UNL     1      34.957 -16.895 -20.956  0.00  0.00    -0.168 N 
ATOM     13  C   UNL     1      34.264 -15.961 -21.789  0.00  0.00    +0.333 C 
ATOM     14  H   UNL     1      33.836 -14.884 -20.088  0.00  0.00    +0.171 HD
ATOM     15  H   UNL     1      34.977 -16.709 -19.989  0.00  0.00    +0.178 HD
BRANCH  11  16
ATOM     16  N   UNL     1      33.015 -13.933 -21.730  0.00  0.00    -0.205 NA
ATOM     17  C   UNL     1      32.970 -11.000 -23.007  0.00  0.00    +0.002 C 
ATOM     18  C   UNL     1      31.727 -10.903 -22.132  0.00  0.00    +0.002 C 
ATOM     19  C   UNL     1      33.165 -12.345 -23.695  0.00  0.00    +0.019 C 
ATOM     20  C   UNL     1      31.353 -12.137 -21.318  0.00  0.00    +0.019 C 
ATOM     21  C   UNL     1      33.849 -13.383 -22.800  0.00  0.00    +0.092 C 
ATOM     22  C   UNL     1      32.527 -12.943 -20.764  0.00  0.00    +0.092 C 
ENDBRANCH  11  16
ENDBRANCH   7  12
ENDBRANCH   1   7
BRANCH   2  23
ATOM     23  C   UNL     1      33.020 -22.539 -18.155  0.00  0.00    +0.048 C 
BRANCH  23  24
ATOM     24  C   UNL     1      33.215 -22.348 -16.645  0.00  0.00    +0.094 C 
BRANCH  24  26
ATOM     25  O   UNL     1      35.687 -21.564 -15.494  0.00  0.00    -0.268 OA
ATOM     26  N   UNL     1      34.215 -23.230 -16.106  0.00  0.00    -0.299 N 
ATOM     27  C   UNL     1      35.406 -22.761 -15.557  0.00  0.00    +0.267 C 
ATOM     28  H   UNL     1      34.051 -24.201 -16.125  0.00  0.00    +0.150 HD
BRANCH  27  31
ATOM     29  O   UNL     1      37.067 -25.763 -14.572  0.00  0.00    -0.358 OA
ATOM     30  N   UNL     1      35.969 -25.075 -15.075  0.00  0.00    -0.073 NA
ATOM     31  C   UNL     1      36.338 -23.791 -15.078  0.00  0.00    +0.176 C 
ATOM     32  C   UNL     1      37.645 -23.610 -14.592  0.00  0.00    +0.063 C 
ATOM     33  C   UNL     1      38.058 -24.880 -14.288  0.00  0.00    +0.155 C 
ATOM     34  C   UNL     1      39.301 -25.441 -13.743  0.00  0.00    +0.075 C 
ENDBRANCH  27  31
ENDBRANCH  24  26
ENDBRANCH  23  24
ENDBRANCH   2  23
TORSDOF 7
ENDMDL
MODEL 4
REMARK VINA RESULT:     -12.0      3.347     12.322
REMARK  Name = 32778
REMARK  7 active torsions:
REMARK  status: ('A' for Active; 'I' for Inactive)
REMARK    1  A    between atoms: C_1  and  S_7
REMARK    2  A    between atoms: C_2  and  C_23
REMARK    3  A    between atoms: S_7  and  N_12
REMARK    4  A    between atoms: N_11  and  N_16
REMARK    5  A    between atoms: C_23  and  C_24
REMARK    6  A    between atoms: C_24  and  N_26
REMARK    7  A    between atoms: C_27  and  C_31
REMARK                            x       y       z     vdW  Elec       q    Type
REMARK                         _______ _______ _______ _____ _____    ______ ____
ROOT
ATOM      1  C   UNL     1      34.196 -16.956 -23.186  0.00  0.00    +0.125 C 
ATOM      2  C   UNL     1      35.017 -18.865 -21.325  0.00  0.00    -0.020 C 
ATOM      3  C   UNL     1      33.948 -18.309 -23.419  0.00  0.00    +0.020 C 
ATOM      4  C   UNL     1      34.855 -16.558 -22.024  0.00  0.00    +0.020 C 
ATOM      5  C   UNL     1      34.358 -19.263 -22.488  0.00  0.00    -0.003 C 
ATOM      6  C   UNL     1      35.265 -17.512 -21.092  0.00  0.00    -0.003 C 
ENDROOT
BRANCH   1   7
ATOM      7  S   UNL     1      33.677 -15.748 -24.368  0.00  0.00    +0.077 S 
ATOM      8  O   UNL     1      32.436 -16.202 -24.963  0.00  0.00    -0.150 OA
ATOM      9  O   UNL     1      34.828 -15.455 -25.201  0.00  0.00    -0.150 OA
BRANCH   7  12
ATOM     10  O   UNL     1      32.714 -12.859 -24.968  0.00  0.00    -0.250 OA
ATOM     11  N   UNL     1      32.751 -12.250 -22.736  0.00  0.00    -0.230 N 
ATOM     12  N   UNL     1      33.363 -14.411 -23.351  0.00  0.00    -0.168 N 
ATOM     13  C   UNL     1      32.917 -13.123 -23.786  0.00  0.00    +0.333 C 
ATOM     14  H   UNL     1      32.936 -12.538 -21.813  0.00  0.00    +0.171 HD
ATOM     15  H   UNL     1      33.500 -14.538 -22.383  0.00  0.00    +0.178 HD
BRANCH  11  16
ATOM     16  N   UNL     1      32.320 -10.957 -22.994  0.00  0.00    -0.205 NA
ATOM     17  C   UNL     1      32.595  -7.822 -22.419  0.00  0.00    +0.002 C 
ATOM     18  C   UNL     1      31.094  -7.977 -22.211  0.00  0.00    +0.002 C 
ATOM     19  C   UNL     1      33.170  -8.644 -23.567  0.00  0.00    +0.019 C 
ATOM     20  C   UNL     1      30.507  -9.371 -22.403  0.00  0.00    +0.019 C 
ATOM     21  C   UNL     1      33.485 -10.089 -23.171  0.00  0.00    +0.092 C 
ATOM     22  C   UNL     1      31.391 -10.529 -21.943  0.00  0.00    +0.092 C 
ENDBRANCH  11  16
ENDBRANCH   7  12
ENDBRANCH   1   7
BRANCH   2  23
ATOM     23  C   UNL     1      35.455 -19.885 -20.329  0.00  0.00    +0.048 C 
BRANCH  23  24
ATOM     24  C   UNL     1      34.550 -21.124 -20.282  0.00  0.00    +0.094 C 
BRANCH  24  26
ATOM     25  O   UNL     1      33.406 -23.565 -19.399  0.00  0.00    -0.268 OA
ATOM     26  N   UNL     1      34.074 -21.403 -18.955  0.00  0.00    -0.299 N 
ATOM     27  C   UNL     1      33.523 -22.634 -18.603  0.00  0.00    +0.267 C 
ATOM     28  H   UNL     1      34.139 -20.700 -18.269  0.00  0.00    +0.150 HD
BRANCH  27  31
ATOM     29  O   UNL     1      33.140 -23.148 -15.091  0.00  0.00    -0.358 OA
ATOM     30  N   UNL     1      33.896 -23.150 -16.258  0.00  0.00    -0.073 NA
ATOM     31  C   UNL     1      33.054 -22.751 -17.215  0.00  0.00    +0.176 C 
ATOM     32  C   UNL     1      31.766 -22.485 -16.717  0.00  0.00    +0.063 C 
ATOM     33  C   UNL     1      31.874 -22.751 -15.378  0.00  0.00    +0.155 C 
ATOM     34  C   UNL     1      30.934 -22.692 -14.251  0.00  0.00    +0.075 C 
ENDBRANCH  27  31
ENDBRANCH  24  26
ENDBRANCH  23  24
ENDBRANCH   2  23
TORSDOF 7
ENDMDL
MODEL 5
REMARK VINA RESULT:     -11.6      3.120      4.048
REMARK  Name = 32778
REMARK  7 active torsions:
REMARK  status: ('A' for Active; 'I' for Inactive)
REMARK    1  A    between atoms: C_1  and  S_7
REMARK    2  A    between atoms: C_2  and  C_23
REMARK    3  A    between atoms: S_7  and  N_12
REMARK    4  A    between atoms: N_11  and  N_16
REMARK    5  A    between atoms: C_23  and  C_24
REMARK    6  A    between atoms: C_24  and  N_26
REMARK    7  A    between atoms: C_27  and  C_31
REMARK                            x       y       z     vdW  Elec       q    Type
REMARK                         _______ _______ _______ _____ _____    ______ ____
ROOT
ATOM      1  C   UNL     1      34.963 -19.932 -20.359  0.00  0.00    +0.125 C 
ATOM      2  C   UNL     1      34.482 -18.006 -22.318  0.00  0.00    -0.020 C 
ATOM      3  C   UNL     1      35.964 -19.025 -20.706  0.00  0.00    +0.020 C 
ATOM      4  C   UNL     1      33.721 -19.876 -20.992  0.00  0.00    +0.020 C 
ATOM      5  C   UNL     1      35.723 -18.061 -21.685  0.00  0.00    -0.003 C 
ATOM      6  C   UNL     1      33.480 -18.913 -21.971  0.00  0.00    -0.003 C 
ENDROOT
BRANCH   1   7
ATOM      7  S   UNL     1      35.269 -21.153 -19.118  0.00  0.00    +0.077 S 
ATOM      8  O   UNL     1      36.157 -20.578 -18.127  0.00  0.00    -0.150 OA
ATOM      9  O   UNL     1      35.636 -22.374 -19.813  0.00  0.00    -0.150 OA
BRANCH   7  12
ATOM     10  O   UNL     1      34.119 -23.152 -17.040  0.00  0.00    -0.250 OA
ATOM     11  N   UNL     1      32.003 -22.219 -17.129  0.00  0.00    -0.230 N 
ATOM     12  N   UNL     1      33.709 -21.335 -18.446  0.00  0.00    -0.168 N 
ATOM     13  C   UNL     1      33.329 -22.322 -17.482  0.00  0.00    +0.333 C 
ATOM     14  H   UNL     1      31.433 -21.524 -17.531  0.00  0.00    +0.171 HD
ATOM     15  H   UNL     1      33.012 -20.707 -18.746  0.00  0.00    +0.178 HD
BRANCH  11  16
ATOM     16  N   UNL     1      31.481 -23.107 -16.201  0.00  0.00    -0.205 NA
ATOM     17  C   UNL     1      29.328 -23.710 -13.912  0.00  0.00    +0.002 C 
ATOM     18  C   UNL     1      30.593 -24.123 -13.171  0.00  0.00    +0.002 C 
ATOM     19  C   UNL     1      29.297 -24.092 -15.387  0.00  0.00    +0.019 C 
ATOM     20  C   UNL     1      31.912 -24.002 -13.927  0.00  0.00    +0.019 C 
ATOM     21  C   UNL     1      30.019 -23.083 -16.284  0.00  0.00    +0.092 C 
ATOM     22  C   UNL     1      32.024 -22.806 -14.872  0.00  0.00    +0.092 C 
ENDBRANCH  11  16
ENDBRANCH   7  12
ENDBRANCH   1   7
BRANCH   2  23
ATOM     23  C   UNL     1      34.224 -16.975 -23.365  0.00  0.00    +0.048 C 
BRANCH  23  24
ATOM     24  C   UNL     1      35.031 -15.685 -23.166  0.00  0.00    +0.094 C 
BRANCH  24  26
ATOM     25  O   UNL     1      34.110 -14.499 -20.758  0.00  0.00    -0.268 OA
ATOM     26  N   UNL     1      34.189 -14.524 -23.062  0.00  0.00    -0.299 N 
ATOM     27  C   UNL     1      33.781 -14.004 -21.835  0.00  0.00    +0.267 C 
ATOM     28  H   UNL     1      33.890 -14.079 -23.889  0.00  0.00    +0.150 HD
BRANCH  27  31
ATOM     29  O   UNL     1      32.042 -10.999 -22.663  0.00  0.00    -0.358 OA
ATOM     30  N   UNL     1      33.012 -11.964 -22.908  0.00  0.00    -0.073 NA
ATOM     31  C   UNL     1      32.896 -12.833 -21.900  0.00  0.00    +0.176 C 
ATOM     32  C   UNL     1      31.879 -12.472 -20.998  0.00  0.00    +0.063 C 
ATOM     33  C   UNL     1      31.375 -11.313 -21.523  0.00  0.00    +0.155 C 
ATOM     34  C   UNL     1      30.307 -10.391 -21.113  0.00  0.00    +0.075 C 
ENDBRANCH  27  31
ENDBRANCH  24  26
ENDBRANCH  23  24
ENDBRANCH   2  23
TORSDOF 7
ENDMDL
MODEL 6
REMARK VINA RESULT:     -11.5      5.008     14.166
REMARK  Name = 32778
REMARK  7 active torsions:
REMARK  status: ('A' for Active; 'I' for Inactive)
REMARK    1  A    between atoms: C_1  and  S_7
REMARK    2  A    between atoms: C_2  and  C_23
REMARK    3  A    between atoms: S_7  and  N_12
REMARK    4  A    between atoms: N_11  and  N_16
REMARK    5  A    between atoms: C_23  and  C_24
REMARK    6  A    between atoms: C_24  and  N_26
REMARK    7  A    between atoms: C_27  and  C_31
REMARK                            x       y       z     vdW  Elec       q    Type
REMARK                         _______ _______ _______ _____ _____    ______ ____
ROOT
ATOM      1  C   UNL     1      32.157 -11.653 -21.703  0.00  0.00    +0.125 C 
ATOM      2  C   UNL     1      33.696 -13.680 -22.843  0.00  0.00    -0.020 C 
ATOM      3  C   UNL     1      32.504 -12.773 -20.948  0.00  0.00    +0.020 C 
ATOM      4  C   UNL     1      32.578 -11.546 -23.028  0.00  0.00    +0.020 C 
ATOM      5  C   UNL     1      33.274 -13.786 -21.518  0.00  0.00    -0.003 C 
ATOM      6  C   UNL     1      33.349 -12.560 -23.598  0.00  0.00    -0.003 C 
ENDROOT
BRANCH   1   7
ATOM      7  S   UNL     1      31.179 -10.369 -20.979  0.00  0.00    +0.077 S 
ATOM      8  O   UNL     1      31.197 -10.545 -19.540  0.00  0.00    -0.150 OA
ATOM      9  O   UNL     1      29.921 -10.343 -21.702  0.00  0.00    -0.150 OA
BRANCH   7  12
ATOM     10  O   UNL     1      31.013  -8.405 -23.377  0.00  0.00    -0.250 OA
ATOM     11  N   UNL     1      32.789  -7.131 -22.617  0.00  0.00    -0.230 N 
ATOM     12  N   UNL     1      32.096  -8.988 -21.394  0.00  0.00    -0.168 N 
ATOM     13  C   UNL     1      31.894  -8.174 -22.553  0.00  0.00    +0.333 C 
ATOM     14  H   UNL     1      33.469  -7.013 -21.914  0.00  0.00    +0.171 HD
ATOM     15  H   UNL     1      32.826  -8.730 -20.783  0.00  0.00    +0.178 HD
BRANCH  11  16
ATOM     16  N   UNL     1      32.722  -6.247 -23.683  0.00  0.00    -0.205 NA
ATOM     17  C   UNL     1      34.185  -4.088 -25.535  0.00  0.00    +0.002 C 
ATOM     18  C   UNL     1      32.943  -3.288 -25.163  0.00  0.00    +0.002 C 
ATOM     19  C   UNL     1      33.938  -5.569 -25.796  0.00  0.00    +0.019 C 
ATOM     20  C   UNL     1      31.923  -3.970 -24.259  0.00  0.00    +0.019 C 
ATOM     21  C   UNL     1      33.915  -6.408 -24.515  0.00  0.00    +0.092 C 
ATOM     22  C   UNL     1      32.503  -4.887 -23.182  0.00  0.00    +0.092 C 
ENDBRANCH  11  16
ENDBRANCH   7  12
ENDBRANCH   1   7
BRANCH   2  23
ATOM     23  C   UNL     1      34.520 -14.763 -23.452  0.00  0.00    +0.048 C 
BRANCH  23  24
ATOM     24  C   UNL     1      33.900 -16.160 -23.311  0.00  0.00    +0.094 C 
BRANCH  24  26
ATOM     25  O   UNL     1      34.007 -18.991 -23.162  0.00  0.00    -0.268 OA
ATOM     26  N   UNL     1      34.516 -16.929 -22.264  0.00  0.00    -0.299 N 
ATOM     27  C   UNL     1      34.524 -18.322 -22.267  0.00  0.00    +0.267 C 
ATOM     28  H   UNL     1      34.949 -16.454 -21.518  0.00  0.00    +0.150 HD
BRANCH  27  31
ATOM     29  O   UNL     1      36.602 -19.261 -19.521  0.00  0.00    -0.358 OA
ATOM     30  N   UNL     1      36.266 -18.421 -20.577  0.00  0.00    -0.073 NA
ATOM     31  C   UNL     1      35.167 -18.961 -21.110  0.00  0.00    +0.176 C 
ATOM     32  C   UNL     1      34.766 -20.129 -20.440  0.00  0.00    +0.063 C 
ATOM     33  C   UNL     1      35.701 -20.274 -19.450  0.00  0.00    +0.155 C 
ATOM     34  C   UNL     1      35.907 -21.261 -18.383  0.00  0.00    +0.075 C 
ENDBRANCH  27  31
ENDBRANCH  24  26
ENDBRANCH  23  24
ENDBRANCH   2  23
TORSDOF 7
ENDMDL
MODEL 7
REMARK VINA RESULT:     -11.4      4.621     13.716
REMARK  Name = 32778
REMARK  7 active torsions:
REMARK  status: ('A' for Active; 'I' for Inactive)
REMARK    1  A    between atoms: C_1  and  S_7
REMARK    2  A    between atoms: C_2  and  C_23
REMARK    3  A    between atoms: S_7  and  N_12
REMARK    4  A    between atoms: N_11  and  N_16
REMARK    5  A    between atoms: C_23  and  C_24
REMARK    6  A    between atoms: C_24  and  N_26
REMARK    7  A    between atoms: C_27  and  C_31
REMARK                            x       y       z     vdW  Elec       q    Type
REMARK                         _______ _______ _______ _____ _____    ______ ____
ROOT
ATOM      1  C   UNL     1      32.639 -13.041 -21.610  0.00  0.00    +0.125 C 
ATOM      2  C   UNL     1      34.241 -15.283 -22.041  0.00  0.00    -0.020 C 
ATOM      3  C   UNL     1      33.044 -13.827 -20.531  0.00  0.00    +0.020 C 
ATOM      4  C   UNL     1      33.035 -13.377 -22.905  0.00  0.00    +0.020 C 
ATOM      5  C   UNL     1      33.845 -14.948 -20.747  0.00  0.00    -0.003 C 
ATOM      6  C   UNL     1      33.837 -14.497 -23.121  0.00  0.00    -0.003 C 
ENDROOT
BRANCH   1   7
ATOM      7  S   UNL     1      31.623 -11.621 -21.336  0.00  0.00    +0.077 S 
ATOM      8  O   UNL     1      31.852 -11.155 -19.983  0.00  0.00    -0.150 OA
ATOM      9  O   UNL     1      30.285 -11.972 -21.775  0.00  0.00    -0.150 OA
BRANCH   7  12
ATOM     10  O   UNL     1      31.239  -8.565 -21.722  0.00  0.00    -0.250 OA
ATOM     11  N   UNL     1      32.725  -8.476 -23.493  0.00  0.00    -0.230 N 
ATOM     12  N   UNL     1      32.306 -10.512 -22.442  0.00  0.00    -0.168 N 
ATOM     13  C   UNL     1      32.023  -9.110 -22.494  0.00  0.00    +0.333 C 
ATOM     14  H   UNL     1      33.337  -8.985 -24.073  0.00  0.00    +0.171 HD
ATOM     15  H   UNL     1      32.949 -10.867 -23.099  0.00  0.00    +0.178 HD
BRANCH  11  16
ATOM     16  N   UNL     1      32.562  -7.111 -23.672  0.00  0.00    -0.205 NA
ATOM     17  C   UNL     1      31.987  -4.668 -25.656  0.00  0.00    +0.002 C 
ATOM     18  C   UNL     1      33.244  -4.140 -24.978  0.00  0.00    +0.002 C 
ATOM     19  C   UNL     1      31.024  -5.405 -24.734  0.00  0.00    +0.019 C 
ATOM     20  C   UNL     1      33.878  -5.021 -23.906  0.00  0.00    +0.019 C 
ATOM     21  C   UNL     1      31.397  -6.876 -24.528  0.00  0.00    +0.092 C 
ATOM     22  C   UNL     1      33.813  -6.525 -24.165  0.00  0.00    +0.092 C 
ENDBRANCH  11  16
ENDBRANCH   7  12
ENDBRANCH   1   7
BRANCH   2  23
ATOM     23  C   UNL     1      35.099 -16.482 -22.271  0.00  0.00    +0.048 C 
BRANCH  23  24
ATOM     24  C   UNL     1      34.371 -17.629 -22.984  0.00  0.00    +0.094 C 
BRANCH  24  26
ATOM     25  O   UNL     1      35.728 -19.023 -20.917  0.00  0.00    -0.268 OA
ATOM     26  N   UNL     1      33.779 -18.559 -22.060  0.00  0.00    -0.299 N 
ATOM     27  C   UNL     1      34.520 -19.203 -21.071  0.00  0.00    +0.267 C 
ATOM     28  H   UNL     1      32.815 -18.747 -22.128  0.00  0.00    +0.150 HD
BRANCH  27  31
ATOM     29  O   UNL     1      32.070 -21.189 -19.398  0.00  0.00    -0.358 OA
ATOM     30  N   UNL     1      32.443 -20.212 -20.315  0.00  0.00    -0.073 NA
ATOM     31  C   UNL     1      33.775 -20.147 -20.227  0.00  0.00    +0.176 C 
ATOM     32  C   UNL     1      34.293 -21.050 -19.282  0.00  0.00    +0.063 C 
ATOM     33  C   UNL     1      33.181 -21.680 -18.790  0.00  0.00    +0.155 C 
ATOM     34  C   UNL     1      32.968 -22.729 -17.784  0.00  0.00    +0.075 C 
ENDBRANCH  27  31
ENDBRANCH  24  26
ENDBRANCH  23  24
ENDBRANCH   2  23
TORSDOF 7
ENDMDL
MODEL 8
REMARK VINA RESULT:     -11.3      1.652      2.193
REMARK  Name = 32778
REMARK  7 active torsions:
REMARK  status: ('A' for Active; 'I' for Inactive)
REMARK    1  A    between atoms: C_1  and  S_7
REMARK    2  A    between atoms: C_2  and  C_23
REMARK    3  A    between atoms: S_7  and  N_12
REMARK    4  A    between atoms: N_11  and  N_16
REMARK    5  A    between atoms: C_23  and  C_24
REMARK    6  A    between atoms: C_24  and  N_26
REMARK    7  A    between atoms: C_27  and  C_31
REMARK                            x       y       z     vdW  Elec       q    Type
REMARK                         _______ _______ _______ _____ _____    ______ ____
ROOT
ATOM      1  C   UNL     1      33.290 -21.719 -18.599  0.00  0.00    +0.125 C 
ATOM      2  C   UNL     1      34.495 -19.982 -20.419  0.00  0.00    -0.020 C 
ATOM      3  C   UNL     1      34.676 -21.725 -18.755  0.00  0.00    +0.020 C 
ATOM      4  C   UNL     1      32.506 -20.846 -19.354  0.00  0.00    +0.020 C 
ATOM      5  C   UNL     1      35.279 -20.856 -19.664  0.00  0.00    -0.003 C 
ATOM      6  C   UNL     1      33.109 -19.977 -20.263  0.00  0.00    -0.003 C 
ENDROOT
BRANCH   1   7
ATOM      7  S   UNL     1      32.527 -22.822 -17.448  0.00  0.00    +0.077 S 
ATOM      8  O   UNL     1      32.900 -24.177 -17.805  0.00  0.00    -0.150 OA
ATOM      9  O   UNL     1      31.129 -22.442 -17.366  0.00  0.00    -0.150 OA
BRANCH   7  12
ATOM     10  O   UNL     1      34.812 -24.164 -15.831  0.00  0.00    -0.250 OA
ATOM     11  N   UNL     1      34.807 -22.510 -14.213  0.00  0.00    -0.230 N 
ATOM     12  N   UNL     1      33.317 -22.379 -15.999  0.00  0.00    -0.168 N 
ATOM     13  C   UNL     1      34.370 -23.116 -15.369  0.00  0.00    +0.333 C 
ATOM     14  H   UNL     1      34.400 -21.667 -13.907  0.00  0.00    +0.171 HD
ATOM     15  H   UNL     1      33.024 -21.547 -15.560  0.00  0.00    +0.178 HD
BRANCH  11  16
ATOM     16  N   UNL     1      35.828 -23.101 -13.484  0.00  0.00    -0.205 NA
ATOM     17  C   UNL     1      37.832 -25.565 -13.096  0.00  0.00    +0.002 C 
ATOM     18  C   UNL     1      37.251 -25.500 -11.690  0.00  0.00    +0.002 C 
ATOM     19  C   UNL     1      38.087 -24.210 -13.746  0.00  0.00    +0.019 C 
ATOM     20  C   UNL     1      36.215 -24.414 -11.415  0.00  0.00    +0.019 C 
ATOM     21  C   UNL     1      36.839 -23.617 -14.408  0.00  0.00    +0.092 C 
ATOM     22  C   UNL     1      35.265 -24.101 -12.570  0.00  0.00    +0.092 C 
ENDBRANCH  11  16
ENDBRANCH   7  12
ENDBRANCH   1   7
BRANCH   2  23
ATOM     23  C   UNL     1      35.140 -19.052 -21.390  0.00  0.00    +0.048 C 
BRANCH  23  24
ATOM     24  C   UNL     1      34.286 -18.775 -22.634  0.00  0.00    +0.094 C 
BRANCH  24  26
ATOM     25  O   UNL     1      35.381 -16.652 -21.103  0.00  0.00    -0.268 OA
ATOM     26  N   UNL     1      33.997 -17.376 -22.799  0.00  0.00    -0.299 N 
ATOM     27  C   UNL     1      34.580 -16.394 -22.001  0.00  0.00    +0.267 C 
ATOM     28  H   UNL     1      33.364 -17.102 -23.502  0.00  0.00    +0.150 HD
BRANCH  27  31
ATOM     29  O   UNL     1      33.676 -12.943 -21.878  0.00  0.00    -0.358 OA
ATOM     30  N   UNL     1      34.106 -14.123 -21.281  0.00  0.00    -0.073 NA
ATOM     31  C   UNL     1      34.156 -15.014 -22.275  0.00  0.00    +0.176 C 
ATOM     32  C   UNL     1      33.774 -14.460 -23.509  0.00  0.00    +0.063 C 
ATOM     33  C   UNL     1      33.482 -13.157 -23.204  0.00  0.00    +0.155 C 
ATOM     34  C   UNL     1      33.023 -12.007 -23.994  0.00  0.00    +0.075 C 
ENDBRANCH  27  31
ENDBRANCH  24  26
ENDBRANCH  23  24
ENDBRANCH   2  23
TORSDOF 7
ENDMDL
MODEL 9
REMARK VINA RESULT:     -11.1      7.172     16.005
REMARK  Name = 32778
REMARK  7 active torsions:
REMARK  status: ('A' for Active; 'I' for Inactive)
REMARK    1  A    between atoms: C_1  and  S_7
REMARK    2  A    between atoms: C_2  and  C_23
REMARK    3  A    between atoms: S_7  and  N_12
REMARK    4  A    between atoms: N_11  and  N_16
REMARK    5  A    between atoms: C_23  and  C_24
REMARK    6  A    between atoms: C_24  and  N_26
REMARK    7  A    between atoms: C_27  and  C_31
REMARK                            x       y       z     vdW  Elec       q    Type
REMARK                         _______ _______ _______ _____ _____    ______ ____
ROOT
ATOM      1  C   UNL     1      31.590  -7.537 -20.485  0.00  0.00    +0.125 C 
ATOM      2  C   UNL     1      31.266 -10.297 -20.722  0.00  0.00    -0.020 C 
ATOM      3  C   UNL     1      31.655  -8.141 -21.741  0.00  0.00    +0.020 C 
ATOM      4  C   UNL     1      31.365  -8.313 -19.348  0.00  0.00    +0.020 C 
ATOM      5  C   UNL     1      31.492  -9.521 -21.859  0.00  0.00    -0.003 C 
ATOM      6  C   UNL     1      31.202  -9.693 -19.466  0.00  0.00    -0.003 C 
ENDROOT
BRANCH   1   7
ATOM      7  S   UNL     1      31.798  -5.788 -20.336  0.00  0.00    +0.077 S 
ATOM      8  O   UNL     1      32.611  -5.528 -19.164  0.00  0.00    -0.150 OA
ATOM      9  O   UNL     1      30.479  -5.196 -20.462  0.00  0.00    -0.150 OA
BRANCH   7  12
ATOM     10  O   UNL     1      30.954  -5.198 -23.264  0.00  0.00    -0.250 OA
ATOM     11  N   UNL     1      33.141  -4.949 -23.976  0.00  0.00    -0.230 N 
ATOM     12  N   UNL     1      32.706  -5.446 -21.743  0.00  0.00    -0.168 N 
ATOM     13  C   UNL     1      32.161  -5.193 -23.041  0.00  0.00    +0.333 C 
ATOM     14  H   UNL     1      34.091  -4.963 -23.718  0.00  0.00    +0.171 HD
ATOM     15  H   UNL     1      33.687  -5.421 -21.653  0.00  0.00    +0.178 HD
BRANCH  11  16
ATOM     16  N   UNL     1      32.774  -4.683 -25.287  0.00  0.00    -0.205 NA
ATOM     17  C   UNL     1      33.653  -4.217 -28.327  0.00  0.00    +0.002 C 
ATOM     18  C   UNL     1      32.783  -2.982 -28.133  0.00  0.00    +0.002 C 
ATOM     19  C   UNL     1      33.125  -5.482 -27.662  0.00  0.00    +0.019 C 
ATOM     20  C   UNL     1      32.126  -2.802 -26.769  0.00  0.00    +0.019 C 
ATOM     21  C   UNL     1      33.502  -5.584 -26.181  0.00  0.00    +0.092 C 
ATOM     22  C   UNL     1      32.958  -3.256 -25.570  0.00  0.00    +0.092 C 
ENDBRANCH  11  16
ENDBRANCH   7  12
ENDBRANCH   1   7
BRANCH   2  23
ATOM     23  C   UNL     1      31.092 -11.773 -20.849  0.00  0.00    +0.048 C 
BRANCH  23  24
ATOM     24  C   UNL     1      31.881 -12.386 -22.013  0.00  0.00    +0.094 C 
BRANCH  24  26
ATOM     25  O   UNL     1      33.770 -13.779 -23.608  0.00  0.00    -0.268 OA
ATOM     26  N   UNL     1      32.641 -13.539 -21.612  0.00  0.00    -0.299 N 
ATOM     27  C   UNL     1      33.551 -14.166 -22.461  0.00  0.00    +0.267 C 
ATOM     28  H   UNL     1      32.514 -13.899 -20.704  0.00  0.00    +0.150 HD
BRANCH  27  31
ATOM     29  O   UNL     1      34.962 -16.734 -20.422  0.00  0.00    -0.358 OA
ATOM     30  N   UNL     1      34.266 -15.542 -20.591  0.00  0.00    -0.073 NA
ATOM     31  C   UNL     1      34.225 -15.352 -21.912  0.00  0.00    +0.176 C 
ATOM     32  C   UNL     1      34.870 -16.379 -22.621  0.00  0.00    +0.063 C 
ATOM     33  C   UNL     1      35.317 -17.222 -21.639  0.00  0.00    +0.155 C 
ATOM     34  C   UNL     1      36.065 -18.486 -21.646  0.00  0.00    +0.075 C 
ENDBRANCH  27  31
ENDBRANCH  24  26
ENDBRANCH  23  24
ENDBRANCH   2  23
TORSDOF 7
ENDMDL
