MODEL 1
REMARK VINA RESULT:     -11.7      0.000      0.000
REMARK  Name = 5278690
REMARK  6 active torsions:
REMARK  status: ('A' for Active; 'I' for Inactive)
REMARK    1  A    between atoms: C_1  and  O_2
REMARK    2  A    between atoms: C_1  and  C_14
REMARK    3  A    between atoms: O_2  and  C_4
REMARK    4  A    between atoms: C_4  and  N_5
REMARK    5  A    between atoms: N_5  and  C_8
REMARK    6  A    between atoms: C_14  and  N_17
REMARK                            x       y       z     vdW  Elec       q    Type
REMARK                         _______ _______ _______ _____ _____    ______ ____
ROOT
ATOM      1  C   UNL     1      34.188 -18.906 -22.279  0.00  0.00    +0.229 C 
ENDROOT
BRANCH   1   2
ATOM      2  O   UNL     1      34.596 -19.341 -20.989  0.00  0.00    -0.456 OA
BRANCH   2   4
ATOM      3  S   UNL     1      32.286 -20.227 -19.980  0.00  0.00    +0.006 S 
ATOM      4  C   UNL     1      33.939 -20.286 -20.243  0.00  0.00    +0.233 C 
BRANCH   4   5
ATOM      5  N   UNL     1      34.691 -21.311 -19.703  0.00  0.00    -0.278 N 
ATOM      6  H   UNL     1      35.107 -21.904 -20.370  0.00  0.00    +0.156 HD
BRANCH   5   8
ATOM      7  I   UNL     1      35.918 -22.847 -13.758  0.00  0.00    -0.043 I 
ATOM      8  C   UNL     1      34.968 -21.659 -18.358  0.00  0.00    +0.051 C 
ATOM      9  C   UNL     1      33.999 -22.310 -17.615  0.00  0.00    +0.015 C 
ATOM     10  C   UNL     1      36.202 -21.337 -17.818  0.00  0.00    +0.015 C 
ATOM     11  C   UNL     1      34.273 -22.652 -16.291  0.00  0.00    +0.007 C 
ATOM     12  C   UNL     1      36.475 -21.680 -16.493  0.00  0.00    +0.007 C 
ATOM     13  C   UNL     1      35.510 -22.337 -15.730  0.00  0.00    +0.030 C 
ENDBRANCH   5   8
ENDBRANCH   4   5
ENDBRANCH   2   4
ENDBRANCH   1   2
BRANCH   1  14
ATOM     14  C   UNL     1      35.146 -17.839 -22.777  0.00  0.00    +0.149 C 
BRANCH  14  17
ATOM     15  O   UNL     1      34.163 -16.097 -24.987  0.00  0.00    -0.269 OA
ATOM     16  O   UNL     1      34.612 -16.149 -20.377  0.00  0.00    -0.269 OA
ATOM     17  N   UNL     1      34.557 -16.518 -22.703  0.00  0.00    -0.219 N 
ATOM     18  C   UNL     1      33.604 -14.546 -23.284  0.00  0.00    +0.058 C 
ATOM     19  C   UNL     1      33.739 -14.563 -21.904  0.00  0.00    +0.058 C 
ATOM     20  C   UNL     1      34.134 -15.805 -23.806  0.00  0.00    +0.255 C 
ATOM     21  C   UNL     1      34.358 -15.833 -21.523  0.00  0.00    +0.255 C 
ATOM     22  C   UNL     1      33.051 -13.473 -23.951  0.00  0.00    +0.005 C 
ATOM     23  C   UNL     1      33.328 -13.507 -21.117  0.00  0.00    +0.005 C 
ATOM     24  C   UNL     1      32.626 -12.391 -23.173  0.00  0.00    +0.000 C 
ATOM     25  C   UNL     1      32.763 -12.408 -21.771  0.00  0.00    +0.000 C 
ENDBRANCH  14  17
ENDBRANCH   1  14
TORSDOF 6
ENDMDL
MODEL 2
REMARK VINA RESULT:     -11.7      0.091      2.051
REMARK  Name = 5278690
REMARK  6 active torsions:
REMARK  status: ('A' for Active; 'I' for Inactive)
REMARK    1  A    between atoms: C_1  and  O_2
REMARK    2  A    between atoms: C_1  and  C_14
REMARK    3  A    between atoms: O_2  and  C_4
REMARK    4  A    between atoms: C_4  and  N_5
REMARK    5  A    between atoms: N_5  and  C_8
REMARK    6  A    between atoms: C_14  and  N_17
REMARK                            x       y       z     vdW  Elec       q    Type
REMARK                         _______ _______ _______ _____ _____    ______ ____
ROOT
ATOM      1  C   UNL     1      34.212 -18.885 -22.205  0.00  0.00    +0.229 C 
ENDROOT
BRANCH   1   2
ATOM      2  O   UNL     1      34.598 -19.331 -20.912  0.00  0.00    -0.456 OA
BRANCH   2   4
ATOM      3  S   UNL     1      32.281 -20.251 -19.950  0.00  0.00    +0.006 S 
ATOM      4  C   UNL     1      33.938 -20.294 -20.192  0.00  0.00    +0.233 C 
BRANCH   4   5
ATOM      5  N   UNL     1      34.689 -21.323 -19.662  0.00  0.00    -0.278 N 
ATOM      6  H   UNL     1      35.081 -21.927 -20.333  0.00  0.00    +0.156 HD
BRANCH   5   8
ATOM      7  I   UNL     1      36.039 -22.824 -13.734  0.00  0.00    -0.043 I 
ATOM      8  C   UNL     1      34.995 -21.663 -18.320  0.00  0.00    +0.051 C 
ATOM      9  C   UNL     1      36.240 -21.340 -17.809  0.00  0.00    +0.015 C 
ATOM     10  C   UNL     1      34.042 -22.310 -17.554  0.00  0.00    +0.015 C 
ATOM     11  C   UNL     1      36.540 -21.674 -16.489  0.00  0.00    +0.007 C 
ATOM     12  C   UNL     1      34.342 -22.645 -16.233  0.00  0.00    +0.007 C 
ATOM     13  C   UNL     1      35.592 -22.327 -15.701  0.00  0.00    +0.030 C 
ENDBRANCH   5   8
ENDBRANCH   4   5
ENDBRANCH   2   4
ENDBRANCH   1   2
BRANCH   1  14
ATOM     14  C   UNL     1      35.177 -17.814 -22.678  0.00  0.00    +0.149 C 
BRANCH  14  17
ATOM     15  O   UNL     1      34.568 -16.047 -20.356  0.00  0.00    -0.269 OA
ATOM     16  O   UNL     1      34.187 -16.181 -24.971  0.00  0.00    -0.269 OA
ATOM     17  N   UNL     1      34.564 -16.501 -22.668  0.00  0.00    -0.219 N 
ATOM     18  C   UNL     1      33.718 -14.522 -21.960  0.00  0.00    +0.058 C 
ATOM     19  C   UNL     1      33.605 -14.564 -23.341  0.00  0.00    +0.058 C 
ATOM     20  C   UNL     1      34.334 -15.773 -21.518  0.00  0.00    +0.255 C 
ATOM     21  C   UNL     1      34.146 -15.841 -23.804  0.00  0.00    +0.255 C 
ATOM     22  C   UNL     1      33.289 -13.438 -21.224  0.00  0.00    +0.005 C 
ATOM     23  C   UNL     1      33.056 -13.522 -24.061  0.00  0.00    +0.005 C 
ATOM     24  C   UNL     1      32.730 -12.369 -21.932  0.00  0.00    +0.000 C 
ATOM     25  C   UNL     1      32.614 -12.411 -23.336  0.00  0.00    +0.000 C 
ENDBRANCH  14  17
ENDBRANCH   1  14
TORSDOF 6
ENDMDL
MODEL 3
REMARK VINA RESULT:     -11.2      3.697      8.809
REMARK  Name = 5278690
REMARK  6 active torsions:
REMARK  status: ('A' for Active; 'I' for Inactive)
REMARK    1  A    between atoms: C_1  and  O_2
REMARK    2  A    between atoms: C_1  and  C_14
REMARK    3  A    between atoms: O_2  and  C_4
REMARK    4  A    between atoms: C_4  and  N_5
REMARK    5  A    between atoms: N_5  and  C_8
REMARK    6  A    between atoms: C_14  and  N_17
REMARK                            x       y       z     vdW  Elec       q    Type
REMARK                         _______ _______ _______ _____ _____    ______ ____
ROOT
ATOM      1  C   UNL     1      35.576 -20.125 -19.703  0.00  0.00    +0.229 C 
ENDROOT
BRANCH   1   2
ATOM      2  O   UNL     1      34.488 -19.376 -20.228  0.00  0.00    -0.456 OA
BRANCH   2   4
ATOM      3  S   UNL     1      34.279 -18.929 -22.854  0.00  0.00    +0.006 S 
ATOM      4  C   UNL     1      34.585 -18.487 -21.268  0.00  0.00    +0.233 C 
BRANCH   4   5
ATOM      5  N   UNL     1      34.947 -17.189 -20.966  0.00  0.00    -0.278 N 
ATOM      6  H   UNL     1      35.641 -17.112 -20.272  0.00  0.00    +0.156 HD
BRANCH   5   8
ATOM      7  I   UNL     1      32.947 -11.710 -23.244  0.00  0.00    -0.043 I 
ATOM      8  C   UNL     1      34.494 -15.949 -21.482  0.00  0.00    +0.051 C 
ATOM      9  C   UNL     1      33.990 -15.000 -20.611  0.00  0.00    +0.015 C 
ATOM     10  C   UNL     1      34.566 -15.718 -22.845  0.00  0.00    +0.015 C 
ATOM     11  C   UNL     1      33.545 -13.779 -21.118  0.00  0.00    +0.007 C 
ATOM     12  C   UNL     1      34.121 -14.497 -23.352  0.00  0.00    +0.007 C 
ATOM     13  C   UNL     1      33.610 -13.528 -22.489  0.00  0.00    +0.030 C 
ENDBRANCH   5   8
ENDBRANCH   4   5
ENDBRANCH   2   4
ENDBRANCH   1   2
BRANCH   1  14
ATOM     14  C   UNL     1      35.204 -21.596 -19.663  0.00  0.00    +0.149 C 
BRANCH  14  17
ATOM     15  O   UNL     1      32.231 -21.758 -19.531  0.00  0.00    -0.269 OA
ATOM     16  O   UNL     1      35.979 -22.214 -16.848  0.00  0.00    -0.269 OA
ATOM     17  N   UNL     1      34.357 -21.900 -18.527  0.00  0.00    -0.219 N 
ATOM     18  C   UNL     1      32.533 -22.296 -17.242  0.00  0.00    +0.058 C 
ATOM     19  C   UNL     1      33.656 -22.432 -16.441  0.00  0.00    +0.058 C 
ATOM     20  C   UNL     1      32.979 -21.949 -18.591  0.00  0.00    +0.255 C 
ATOM     21  C   UNL     1      34.838 -22.174 -17.264  0.00  0.00    +0.255 C 
ATOM     22  C   UNL     1      31.257 -22.477 -16.750  0.00  0.00    +0.005 C 
ATOM     23  C   UNL     1      33.563 -22.757 -15.103  0.00  0.00    +0.005 C 
ATOM     24  C   UNL     1      31.139 -22.808 -15.397  0.00  0.00    +0.000 C 
ATOM     25  C   UNL     1      32.280 -22.946 -14.581  0.00  0.00    +0.000 C 
ENDBRANCH  14  17
ENDBRANCH   1  14
TORSDOF 6
ENDMDL
MODEL 4
REMARK VINA RESULT:     -11.1      3.451      8.784
REMARK  Name = 5278690
REMARK  6 active torsions:
REMARK  status: ('A' for Active; 'I' for Inactive)
REMARK    1  A    between atoms: C_1  and  O_2
REMARK    2  A    between atoms: C_1  and  C_14
REMARK    3  A    between atoms: O_2  and  C_4
REMARK    4  A    between atoms: C_4  and  N_5
REMARK    5  A    between atoms: N_5  and  C_8
REMARK    6  A    between atoms: C_14  and  N_17
REMARK                            x       y       z     vdW  Elec       q    Type
REMARK                         _______ _______ _______ _____ _____    ______ ____
ROOT
ATOM      1  C   UNL     1      34.343 -18.898 -20.701  0.00  0.00    +0.229 C 
ENDROOT
BRANCH   1   2
ATOM      2  O   UNL     1      35.145 -18.228 -21.666  0.00  0.00    -0.456 OA
BRANCH   2   4
ATOM      3  S   UNL     1      33.769 -18.343 -23.953  0.00  0.00    +0.006 S 
ATOM      4  C   UNL     1      34.653 -17.566 -22.762  0.00  0.00    +0.233 C 
BRANCH   4   5
ATOM      5  N   UNL     1      34.909 -16.213 -22.859  0.00  0.00    -0.278 N 
ATOM      6  H   UNL     1      35.797 -15.992 -23.222  0.00  0.00    +0.156 HD
BRANCH   5   8
ATOM      7  I   UNL     1      31.407 -11.231 -21.398  0.00  0.00    -0.043 I 
ATOM      8  C   UNL     1      34.116 -15.085 -22.528  0.00  0.00    +0.051 C 
ATOM      9  C   UNL     1      33.961 -14.736 -21.198  0.00  0.00    +0.015 C 
ATOM     10  C   UNL     1      33.516 -14.361 -23.543  0.00  0.00    +0.015 C 
ATOM     11  C   UNL     1      33.181 -13.626 -20.873  0.00  0.00    +0.007 C 
ATOM     12  C   UNL     1      32.735 -13.251 -23.218  0.00  0.00    +0.007 C 
ATOM     13  C   UNL     1      32.568 -12.884 -21.883  0.00  0.00    +0.030 C 
ENDBRANCH   5   8
ENDBRANCH   4   5
ENDBRANCH   2   4
ENDBRANCH   1   2
BRANCH   1  14
ATOM     14  C   UNL     1      34.702 -20.372 -20.685  0.00  0.00    +0.149 C 
BRANCH  14  17
ATOM     15  O   UNL     1      36.249 -21.348 -18.332  0.00  0.00    -0.269 OA
ATOM     16  O   UNL     1      31.907 -21.096 -19.928  0.00  0.00    -0.269 OA
ATOM     17  N   UNL     1      34.220 -21.024 -19.484  0.00  0.00    -0.219 N 
ATOM     18  C   UNL     1      34.154 -22.023 -17.452  0.00  0.00    +0.058 C 
ATOM     19  C   UNL     1      32.855 -21.947 -17.930  0.00  0.00    +0.058 C 
ATOM     20  C   UNL     1      35.041 -21.432 -18.453  0.00  0.00    +0.255 C 
ATOM     21  C   UNL     1      32.891 -21.306 -19.245  0.00  0.00    +0.255 C 
ATOM     22  C   UNL     1      34.449 -22.583 -16.226  0.00  0.00    +0.005 C 
ATOM     23  C   UNL     1      31.781 -22.427 -17.209  0.00  0.00    +0.005 C 
ATOM     24  C   UNL     1      33.376 -23.076 -15.476  0.00  0.00    +0.000 C 
ATOM     25  C   UNL     1      32.056 -22.999 -15.963  0.00  0.00    +0.000 C 
ENDBRANCH  14  17
ENDBRANCH   1  14
TORSDOF 6
ENDMDL
MODEL 5
REMARK VINA RESULT:     -11.1      3.486      8.693
REMARK  Name = 5278690
REMARK  6 active torsions:
REMARK  status: ('A' for Active; 'I' for Inactive)
REMARK    1  A    between atoms: C_1  and  O_2
REMARK    2  A    between atoms: C_1  and  C_14
REMARK    3  A    between atoms: O_2  and  C_4
REMARK    4  A    between atoms: C_4  and  N_5
REMARK    5  A    between atoms: N_5  and  C_8
REMARK    6  A    between atoms: C_14  and  N_17
REMARK                            x       y       z     vdW  Elec       q    Type
REMARK                         _______ _______ _______ _____ _____    ______ ____
ROOT
ATOM      1  C   UNL     1      34.481 -18.369 -20.981  0.00  0.00    +0.229 C 
ENDROOT
BRANCH   1   2
ATOM      2  O   UNL     1      35.182 -17.804 -22.082  0.00  0.00    -0.456 OA
BRANCH   2   4
ATOM      3  S   UNL     1      33.661 -17.646 -24.273  0.00  0.00    +0.006 S 
ATOM      4  C   UNL     1      34.610 -17.014 -23.046  0.00  0.00    +0.233 C 
BRANCH   4   5
ATOM      5  N   UNL     1      34.838 -15.654 -22.977  0.00  0.00    -0.278 N 
ATOM      6  H   UNL     1      35.748 -15.382 -23.235  0.00  0.00    +0.156 HD
BRANCH   5   8
ATOM      7  I   UNL     1      31.099 -10.917 -21.306  0.00  0.00    -0.043 I 
ATOM      8  C   UNL     1      33.992 -14.582 -22.599  0.00  0.00    +0.051 C 
ATOM      9  C   UNL     1      33.355 -13.846 -23.582  0.00  0.00    +0.015 C 
ATOM     10  C   UNL     1      33.823 -14.296 -21.255  0.00  0.00    +0.015 C 
ATOM     11  C   UNL     1      32.522 -12.791 -23.210  0.00  0.00    +0.007 C 
ATOM     12  C   UNL     1      32.990 -13.241 -20.882  0.00  0.00    +0.007 C 
ATOM     13  C   UNL     1      32.340 -12.488 -21.860  0.00  0.00    +0.030 C 
ENDBRANCH   5   8
ENDBRANCH   4   5
ENDBRANCH   2   4
ENDBRANCH   1   2
BRANCH   1  14
ATOM     14  C   UNL     1      34.277 -19.853 -21.222  0.00  0.00    +0.149 C 
BRANCH  14  17
ATOM     15  O   UNL     1      31.883 -21.177 -20.038  0.00  0.00    -0.269 OA
ATOM     16  O   UNL     1      36.369 -20.415 -19.171  0.00  0.00    -0.269 OA
ATOM     17  N   UNL     1      34.162 -20.584 -19.976  0.00  0.00    -0.219 N 
ATOM     18  C   UNL     1      33.320 -21.796 -18.257  0.00  0.00    +0.058 C 
ATOM     19  C   UNL     1      34.663 -21.567 -17.999  0.00  0.00    +0.058 C 
ATOM     20  C   UNL     1      32.989 -21.160 -19.532  0.00  0.00    +0.255 C 
ATOM     21  C   UNL     1      35.212 -20.781 -19.104  0.00  0.00    +0.255 C 
ATOM     22  C   UNL     1      32.521 -22.513 -17.391  0.00  0.00    +0.005 C 
ATOM     23  C   UNL     1      35.279 -22.044 -16.860  0.00  0.00    +0.005 C 
ATOM     24  C   UNL     1      33.124 -23.007 -16.231  0.00  0.00    +0.000 C 
ATOM     25  C   UNL     1      34.489 -22.774 -15.967  0.00  0.00    +0.000 C 
ENDBRANCH  14  17
ENDBRANCH   1  14
TORSDOF 6
ENDMDL
MODEL 6
REMARK VINA RESULT:     -10.9      4.099      5.935
REMARK  Name = 5278690
REMARK  6 active torsions:
REMARK  status: ('A' for Active; 'I' for Inactive)
REMARK    1  A    between atoms: C_1  and  O_2
REMARK    2  A    between atoms: C_1  and  C_14
REMARK    3  A    between atoms: O_2  and  C_4
REMARK    4  A    between atoms: C_4  and  N_5
REMARK    5  A    between atoms: N_5  and  C_8
REMARK    6  A    between atoms: C_14  and  N_17
REMARK                            x       y       z     vdW  Elec       q    Type
REMARK                         _______ _______ _______ _____ _____    ______ ____
ROOT
ATOM      1  C   UNL     1      32.376 -22.280 -17.076  0.00  0.00    +0.229 C 
ENDROOT
BRANCH   1   2
ATOM      2  O   UNL     1      32.285 -23.220 -16.014  0.00  0.00    -0.456 OA
BRANCH   2   4
ATOM      3  S   UNL     1      31.410 -23.198 -13.490  0.00  0.00    +0.006 S 
ATOM      4  C   UNL     1      32.540 -22.934 -14.697  0.00  0.00    +0.233 C 
BRANCH   4   5
ATOM      5  N   UNL     1      33.780 -22.413 -14.385  0.00  0.00    -0.278 N 
ATOM      6  H   UNL     1      33.766 -21.468 -14.111  0.00  0.00    +0.156 HD
BRANCH   5   8
ATOM      7  I   UNL     1      39.478 -25.010 -14.409  0.00  0.00    -0.043 I 
ATOM      8  C   UNL     1      35.069 -23.001 -14.390  0.00  0.00    +0.051 C 
ATOM      9  C   UNL     1      35.284 -24.165 -13.673  0.00  0.00    +0.015 C 
ATOM     10  C   UNL     1      36.084 -22.397 -15.113  0.00  0.00    +0.015 C 
ATOM     11  C   UNL     1      36.553 -24.743 -13.679  0.00  0.00    +0.007 C 
ATOM     12  C   UNL     1      37.354 -22.976 -15.118  0.00  0.00    +0.007 C 
ATOM     13  C   UNL     1      37.588 -24.149 -14.401  0.00  0.00    +0.030 C 
ENDBRANCH   5   8
ENDBRANCH   4   5
ENDBRANCH   2   4
ENDBRANCH   1   2
BRANCH   1  14
ATOM     14  C   UNL     1      33.396 -22.762 -18.090  0.00  0.00    +0.149 C 
BRANCH  14  17
ATOM     15  O   UNL     1      36.144 -21.625 -18.291  0.00  0.00    -0.269 OA
ATOM     16  O   UNL     1      31.889 -21.077 -20.039  0.00  0.00    -0.269 OA
ATOM     17  N   UNL     1      33.875 -21.676 -18.922  0.00  0.00    -0.219 N 
ATOM     18  C   UNL     1      35.230 -20.150 -19.906  0.00  0.00    +0.058 C 
ATOM     19  C   UNL     1      33.956 -19.987 -20.428  0.00  0.00    +0.058 C 
ATOM     20  C   UNL     1      35.184 -21.238 -18.929  0.00  0.00    +0.255 C 
ATOM     21  C   UNL     1      33.075 -20.968 -19.794  0.00  0.00    +0.255 C 
ATOM     22  C   UNL     1      36.291 -19.364 -20.307  0.00  0.00    +0.005 C 
ATOM     23  C   UNL     1      33.674 -19.029 -21.380  0.00  0.00    +0.005 C 
ATOM     24  C   UNL     1      36.028 -18.387 -21.273  0.00  0.00    +0.000 C 
ATOM     25  C   UNL     1      34.733 -18.221 -21.803  0.00  0.00    +0.000 C 
ENDBRANCH  14  17
ENDBRANCH   1  14
TORSDOF 6
ENDMDL
MODEL 7
REMARK VINA RESULT:     -10.8      5.547     10.343
REMARK  Name = 5278690
REMARK  6 active torsions:
REMARK  status: ('A' for Active; 'I' for Inactive)
REMARK    1  A    between atoms: C_1  and  O_2
REMARK    2  A    between atoms: C_1  and  C_14
REMARK    3  A    between atoms: O_2  and  C_4
REMARK    4  A    between atoms: C_4  and  N_5
REMARK    5  A    between atoms: N_5  and  C_8
REMARK    6  A    between atoms: C_14  and  N_17
REMARK                            x       y       z     vdW  Elec       q    Type
REMARK                         _______ _______ _______ _____ _____    ______ ____
ROOT
ATOM      1  C   UNL     1      33.387 -23.667 -14.884  0.00  0.00    +0.229 C 
ENDROOT
BRANCH   1   2
ATOM      2  O   UNL     1      33.545 -23.303 -16.249  0.00  0.00    -0.456 OA
BRANCH   2   4
ATOM      3  S   UNL     1      31.015 -22.470 -16.456  0.00  0.00    +0.006 S 
ATOM      4  C   UNL     1      32.533 -22.845 -17.054  0.00  0.00    +0.233 C 
BRANCH   4   5
ATOM      5  N   UNL     1      32.805 -22.695 -18.399  0.00  0.00    -0.278 N 
ATOM      6  H   UNL     1      32.487 -23.436 -18.963  0.00  0.00    +0.156 HD
BRANCH   5   8
ATOM      7  I   UNL     1      35.714 -18.125 -21.541  0.00  0.00    -0.043 I 
ATOM      8  C   UNL     1      33.463 -21.660 -19.111  0.00  0.00    +0.051 C 
ATOM      9  C   UNL     1      32.709 -20.746 -19.824  0.00  0.00    +0.015 C 
ATOM     10  C   UNL     1      34.846 -21.590 -19.074  0.00  0.00    +0.015 C 
ATOM     11  C   UNL     1      33.357 -19.729 -20.524  0.00  0.00    +0.007 C 
ATOM     12  C   UNL     1      35.494 -20.572 -19.774  0.00  0.00    +0.007 C 
ATOM     13  C   UNL     1      34.749 -19.641 -20.499  0.00  0.00    +0.030 C 
ENDBRANCH   5   8
ENDBRANCH   4   5
ENDBRANCH   2   4
ENDBRANCH   1   2
BRANCH   1  14
ATOM     14  C   UNL     1      34.344 -22.857 -14.031  0.00  0.00    +0.149 C 
BRANCH  14  17
ATOM     15  O   UNL     1      35.563 -24.843 -12.173  0.00  0.00    -0.269 OA
ATOM     16  O   UNL     1      36.590 -22.324 -15.922  0.00  0.00    -0.269 OA
ATOM     17  N   UNL     1      35.679 -23.420 -14.047  0.00  0.00    -0.219 N 
ATOM     18  C   UNL     1      37.509 -24.645 -13.512  0.00  0.00    +0.058 C 
ATOM     19  C   UNL     1      37.815 -23.891 -14.635  0.00  0.00    +0.058 C 
ATOM     20  C   UNL     1      36.131 -24.343 -13.125  0.00  0.00    +0.255 C 
ATOM     21  C   UNL     1      36.638 -23.094 -14.983  0.00  0.00    +0.255 C 
ATOM     22  C   UNL     1      38.423 -25.504 -12.937  0.00  0.00    +0.005 C 
ATOM     23  C   UNL     1      39.052 -23.954 -15.242  0.00  0.00    +0.005 C 
ATOM     24  C   UNL     1      39.683 -25.585 -13.537  0.00  0.00    +0.000 C 
ATOM     25  C   UNL     1      39.995 -24.818 -14.677  0.00  0.00    +0.000 C 
ENDBRANCH  14  17
ENDBRANCH   1  14
TORSDOF 6
ENDMDL
MODEL 8
REMARK VINA RESULT:     -10.7      3.983      5.656
REMARK  Name = 5278690
REMARK  6 active torsions:
REMARK  status: ('A' for Active; 'I' for Inactive)
REMARK    1  A    between atoms: C_1  and  O_2
REMARK    2  A    between atoms: C_1  and  C_14
REMARK    3  A    between atoms: O_2  and  C_4
REMARK    4  A    between atoms: C_4  and  N_5
REMARK    5  A    between atoms: N_5  and  C_8
REMARK    6  A    between atoms: C_14  and  N_17
REMARK                            x       y       z     vdW  Elec       q    Type
REMARK                         _______ _______ _______ _____ _____    ______ ____
ROOT
ATOM      1  C   UNL     1      32.333 -22.094 -17.208  0.00  0.00    +0.229 C 
ENDROOT
BRANCH   1   2
ATOM      2  O   UNL     1      32.173 -23.101 -16.218  0.00  0.00    -0.456 OA
BRANCH   2   4
ATOM      3  S   UNL     1      31.559 -23.451 -13.641  0.00  0.00    +0.006 S 
ATOM      4  C   UNL     1      32.546 -22.969 -14.905  0.00  0.00    +0.233 C 
BRANCH   4   5
ATOM      5  N   UNL     1      33.785 -22.418 -14.646  0.00  0.00    -0.278 N 
ATOM      6  H   UNL     1      33.769 -21.452 -14.456  0.00  0.00    +0.156 HD
BRANCH   5   8
ATOM      7  I   UNL     1      39.493 -24.987 -14.468  0.00  0.00    -0.043 I 
ATOM      8  C   UNL     1      35.077 -23.000 -14.605  0.00  0.00    +0.051 C 
ATOM      9  C   UNL     1      35.240 -24.242 -14.018  0.00  0.00    +0.015 C 
ATOM     10  C   UNL     1      36.145 -22.311 -15.154  0.00  0.00    +0.015 C 
ATOM     11  C   UNL     1      36.512 -24.814 -13.979  0.00  0.00    +0.007 C 
ATOM     12  C   UNL     1      37.417 -22.883 -15.114  0.00  0.00    +0.007 C 
ATOM     13  C   UNL     1      37.600 -24.135 -14.526  0.00  0.00    +0.030 C 
ENDBRANCH   5   8
ENDBRANCH   4   5
ENDBRANCH   2   4
ENDBRANCH   1   2
BRANCH   1  14
ATOM     14  C   UNL     1      33.228 -22.614 -18.317  0.00  0.00    +0.149 C 
BRANCH  14  17
ATOM     15  O   UNL     1      31.855 -20.759 -20.202  0.00  0.00    -0.269 OA
ATOM     16  O   UNL     1      36.055 -21.671 -18.475  0.00  0.00    -0.269 OA
ATOM     17  N   UNL     1      33.788 -21.533 -19.102  0.00  0.00    -0.219 N 
ATOM     18  C   UNL     1      33.989 -19.779 -20.522  0.00  0.00    +0.058 C 
ATOM     19  C   UNL     1      35.245 -20.053 -20.004  0.00  0.00    +0.058 C 
ATOM     20  C   UNL     1      33.043 -20.734 -19.945  0.00  0.00    +0.255 C 
ATOM     21  C   UNL     1      35.123 -21.187 -19.088  0.00  0.00    +0.255 C 
ATOM     22  C   UNL     1      33.777 -18.756 -21.423  0.00  0.00    +0.005 C 
ATOM     23  C   UNL     1      36.358 -19.318 -20.360  0.00  0.00    +0.005 C 
ATOM     24  C   UNL     1      34.890 -17.997 -21.798  0.00  0.00    +0.000 C 
ATOM     25  C   UNL     1      36.168 -18.276 -21.272  0.00  0.00    +0.000 C 
ENDBRANCH  14  17
ENDBRANCH   1  14
TORSDOF 6
ENDMDL
MODEL 9
REMARK VINA RESULT:     -10.7      6.088     10.744
REMARK  Name = 5278690
REMARK  6 active torsions:
REMARK  status: ('A' for Active; 'I' for Inactive)
REMARK    1  A    between atoms: C_1  and  O_2
REMARK    2  A    between atoms: C_1  and  C_14
REMARK    3  A    between atoms: O_2  and  C_4
REMARK    4  A    between atoms: C_4  and  N_5
REMARK    5  A    between atoms: N_5  and  C_8
REMARK    6  A    between atoms: C_14  and  N_17
REMARK                            x       y       z     vdW  Elec       q    Type
REMARK                         _______ _______ _______ _____ _____    ______ ____
ROOT
ATOM      1  C   UNL     1      31.985 -12.528 -22.836  0.00  0.00    +0.229 C 
ENDROOT
BRANCH   1   2
ATOM      2  O   UNL     1      31.926 -11.843 -21.591  0.00  0.00    -0.456 OA
BRANCH   2   4
ATOM      3  S   UNL     1      31.149  -9.921 -19.906  0.00  0.00    +0.006 S 
ATOM      4  C   UNL     1      31.425 -10.578 -21.422  0.00  0.00    +0.233 C 
BRANCH   4   5
ATOM      5  N   UNL     1      31.149  -9.843 -22.557  0.00  0.00    -0.278 N 
ATOM      6  H   UNL     1      30.402 -10.191 -23.095  0.00  0.00    +0.156 HD
BRANCH   5   8
ATOM      7  I   UNL     1      33.818  -4.678 -24.884  0.00  0.00    -0.043 I 
ATOM      8  C   UNL     1      31.754  -8.674 -23.084  0.00  0.00    +0.051 C 
ATOM      9  C   UNL     1      33.132  -8.555 -23.055  0.00  0.00    +0.015 C 
ATOM     10  C   UNL     1      30.950  -7.679 -23.614  0.00  0.00    +0.015 C 
ATOM     11  C   UNL     1      33.726  -7.405 -23.573  0.00  0.00    +0.007 C 
ATOM     12  C   UNL     1      31.545  -6.528 -24.133  0.00  0.00    +0.007 C 
ATOM     13  C   UNL     1      32.933  -6.391 -24.112  0.00  0.00    +0.030 C 
ENDBRANCH   5   8
ENDBRANCH   4   5
ENDBRANCH   2   4
ENDBRANCH   1   2
BRANCH   1  14
ATOM     14  C   UNL     1      33.433 -12.812 -23.188  0.00  0.00    +0.149 C 
BRANCH  14  17
ATOM     15  O   UNL     1      34.197 -14.114 -20.618  0.00  0.00    -0.269 OA
ATOM     16  O   UNL     1      33.583 -15.095 -25.103  0.00  0.00    -0.269 OA
ATOM     17  N   UNL     1      33.781 -14.196 -22.935  0.00  0.00    -0.219 N 
ATOM     18  C   UNL     1      34.382 -16.110 -21.883  0.00  0.00    +0.058 C 
ATOM     19  C   UNL     1      34.198 -16.402 -23.226  0.00  0.00    +0.058 C 
ATOM     20  C   UNL     1      34.118 -14.684 -21.689  0.00  0.00    +0.255 C 
ATOM     21  C   UNL     1      33.813 -15.169 -23.911  0.00  0.00    +0.255 C 
ATOM     22  C   UNL     1      34.754 -17.074 -20.969  0.00  0.00    +0.005 C 
ATOM     23  C   UNL     1      34.375 -17.676 -23.727  0.00  0.00    +0.005 C 
ATOM     24  C   UNL     1      34.938 -18.373 -21.455  0.00  0.00    +0.000 C 
ATOM     25  C   UNL     1      34.752 -18.670 -22.820  0.00  0.00    +0.000 C 
ENDBRANCH  14  17
ENDBRANCH   1  14
TORSDOF 6
ENDMDL
