MODEL 1
REMARK VINA RESULT:     -12.6      0.000      0.000
REMARK  Name = 656948
REMARK  8 active torsions:
REMARK  status: ('A' for Active; 'I' for Inactive)
REMARK    1  A    between atoms: N_1  and  C_3
REMARK    2  A    between atoms: N_1  and  C_18
REMARK    3  A    between atoms: C_6  and  C_10
REMARK    4  A    between atoms: C_10  and  O_11
REMARK    5  A    between atoms: O_11  and  P_12
REMARK    6  A    between atoms: P_12  and  O_14
REMARK    7  A    between atoms: P_12  and  O_16
REMARK    8  A    between atoms: C_18  and  C_25
REMARK                            x       y       z     vdW  Elec       q    Type
REMARK                         _______ _______ _______ _____ _____    ______ ____
ROOT
ATOM      1  N   UNL     1      33.859 -19.225 -21.878  0.00  0.00    -0.327 N 
ATOM      2  H   UNL     1      33.025 -19.267 -22.400  0.00  0.00    +0.147 HD
ENDROOT
BRANCH   1   3
ATOM      3  C   UNL     1      33.948 -19.988 -20.727  0.00  0.00    +0.045 C 
ATOM      4  C   UNL     1      32.790 -20.459 -20.079  0.00  0.00    +0.015 C 
ATOM      5  C   UNL     1      35.200 -20.316 -20.171  0.00  0.00    +0.015 C 
ATOM      6  C   UNL     1      34.130 -21.542 -18.384  0.00  0.00    +0.076 C 
ATOM      7  C   UNL     1      32.880 -21.229 -18.919  0.00  0.00    +0.008 C 
ATOM      8  C   UNL     1      35.289 -21.086 -19.010  0.00  0.00    +0.008 C 
BRANCH   6  10
ATOM      9  O   UNL     1      33.291 -22.982 -16.673  0.00  0.00    -0.245 OA
ATOM     10  C   UNL     1      34.223 -22.344 -17.176  0.00  0.00    +0.348 C 
BRANCH  10  11
ATOM     11  O   UNL     1      35.477 -22.318 -16.642  0.00  0.00    -0.368 OA
BRANCH  11  12
ATOM     12  P   UNL     1      35.891 -22.858 -15.175  0.00  0.00    +0.530 P 
ATOM     13  O   UNL     1      37.287 -22.507 -14.745  0.00  0.00    -0.216 OA
BRANCH  12  14
ATOM     14  O   UNL     1      35.566 -24.440 -15.246  0.00  0.00    -0.293 OA
ATOM     15  H   UNL     1      35.566 -24.811 -14.349  0.00  0.00    +0.223 HD
ENDBRANCH  12  14
BRANCH  12  16
ATOM     16  O   UNL     1      34.717 -22.276 -14.229  0.00  0.00    -0.293 OA
ATOM     17  H   UNL     1      34.507 -21.368 -14.497  0.00  0.00    +0.223 HD
ENDBRANCH  12  16
ENDBRANCH  11  12
ENDBRANCH  10  11
ENDBRANCH   6  10
ENDBRANCH   1   3
BRANCH   1  18
ATOM     18  C   UNL     1      34.925 -18.368 -22.355  0.00  0.00    +0.145 C 
BRANCH  18  25
ATOM     19  O   UNL     1      33.255 -15.086 -25.641  0.00  0.00    -0.206 OA
ATOM     20  N   UNL     1      34.105 -16.370 -23.459  0.00  0.00    -0.391 NA
ATOM     21  N   UNL     1      33.400 -13.005 -22.231  0.00  0.00    -0.259 N 
ATOM     22  N   UNL     1      34.214 -14.932 -21.051  0.00  0.00    -0.246 NA
ATOM     23  N   UNL     1      32.913 -13.085 -24.562  0.00  0.00    -0.300 NA
ATOM     24  N   UNL     1      32.624 -11.129 -23.302  0.00  0.00    -0.320 N 
ATOM     25  C   UNL     1      34.519 -16.937 -22.311  0.00  0.00    +0.132 C 
ATOM     26  C   UNL     1      33.748 -15.073 -23.370  0.00  0.00    +0.255 C 
ATOM     27  C   UNL     1      33.796 -14.345 -22.193  0.00  0.00    +0.173 C 
ATOM     28  C   UNL     1      34.574 -16.230 -21.129  0.00  0.00    +0.183 C 
ATOM     29  C   UNL     1      33.288 -14.416 -24.614  0.00  0.00    +0.240 C 
ATOM     30  C   UNL     1      32.980 -12.449 -23.420  0.00  0.00    +0.249 C 
ATOM     31  H   UNL     1      33.421 -12.460 -21.411  0.00  0.00    +0.157 HD
ATOM     32  H   UNL     1      32.686 -10.678 -22.429  0.00  0.00    +0.146 HD
ATOM     33  H   UNL     1      32.308 -10.632 -24.091  0.00  0.00    +0.146 HD
ENDBRANCH  18  25
ENDBRANCH   1  18
TORSDOF 8
ENDMDL
MODEL 2
REMARK VINA RESULT:     -12.2      1.236      1.749
REMARK  Name = 656948
REMARK  8 active torsions:
REMARK  status: ('A' for Active; 'I' for Inactive)
REMARK    1  A    between atoms: N_1  and  C_3
REMARK    2  A    between atoms: N_1  and  C_18
REMARK    3  A    between atoms: C_6  and  C_10
REMARK    4  A    between atoms: C_10  and  O_11
REMARK    5  A    between atoms: O_11  and  P_12
REMARK    6  A    between atoms: P_12  and  O_14
REMARK    7  A    between atoms: P_12  and  O_16
REMARK    8  A    between atoms: C_18  and  C_25
REMARK                            x       y       z     vdW  Elec       q    Type
REMARK                         _______ _______ _______ _____ _____    ______ ____
ROOT
ATOM      1  N   UNL     1      33.862 -19.199 -21.877  0.00  0.00    -0.327 N 
ATOM      2  H   UNL     1      32.993 -19.182 -22.339  0.00  0.00    +0.147 HD
ENDROOT
BRANCH   1   3
ATOM      3  C   UNL     1      33.984 -19.982 -20.743  0.00  0.00    +0.045 C 
ATOM      4  C   UNL     1      32.845 -20.486 -20.085  0.00  0.00    +0.015 C 
ATOM      5  C   UNL     1      35.250 -20.298 -20.214  0.00  0.00    +0.015 C 
ATOM      6  C   UNL     1      34.232 -21.576 -18.434  0.00  0.00    +0.076 C 
ATOM      7  C   UNL     1      32.967 -21.275 -18.942  0.00  0.00    +0.008 C 
ATOM      8  C   UNL     1      35.372 -21.087 -19.070  0.00  0.00    +0.008 C 
BRANCH   6  10
ATOM      9  O   UNL     1      33.507 -23.198 -16.836  0.00  0.00    -0.245 OA
ATOM     10  C   UNL     1      34.359 -22.399 -17.243  0.00  0.00    +0.348 C 
BRANCH  10  11
ATOM     11  O   UNL     1      35.546 -22.192 -16.605  0.00  0.00    -0.368 OA
BRANCH  11  12
ATOM     12  P   UNL     1      35.973 -22.820 -15.177  0.00  0.00    +0.530 P 
ATOM     13  O   UNL     1      37.317 -22.380 -14.672  0.00  0.00    -0.216 OA
BRANCH  12  14
ATOM     14  O   UNL     1      35.803 -24.413 -15.394  0.00  0.00    -0.293 OA
ATOM     15  H   UNL     1      35.051 -24.580 -15.984  0.00  0.00    +0.223 HD
ENDBRANCH  12  14
BRANCH  12  16
ATOM     16  O   UNL     1      34.725 -22.437 -14.223  0.00  0.00    -0.293 OA
ATOM     17  H   UNL     1      33.967 -22.182 -14.772  0.00  0.00    +0.223 HD
ENDBRANCH  12  16
ENDBRANCH  11  12
ENDBRANCH  10  11
ENDBRANCH   6  10
ENDBRANCH   1   3
BRANCH   1  18
ATOM     18  C   UNL     1      34.943 -18.403 -22.421  0.00  0.00    +0.145 C 
BRANCH  18  25
ATOM     19  O   UNL     1      34.178 -13.976 -20.376  0.00  0.00    -0.206 OA
ATOM     20  N   UNL     1      34.377 -16.081 -22.009  0.00  0.00    -0.391 NA
ATOM     21  N   UNL     1      33.084 -13.449 -24.185  0.00  0.00    -0.259 N 
ATOM     22  N   UNL     1      33.618 -15.736 -24.689  0.00  0.00    -0.246 NA
ATOM     23  N   UNL     1      33.369 -12.558 -21.994  0.00  0.00    -0.300 NA
ATOM     24  N   UNL     1      32.556 -11.255 -23.767  0.00  0.00    -0.320 N 
ATOM     25  C   UNL     1      34.446 -17.085 -22.902  0.00  0.00    +0.132 C 
ATOM     26  C   UNL     1      33.922 -14.907 -22.491  0.00  0.00    +0.255 C 
ATOM     27  C   UNL     1      33.541 -14.716 -23.809  0.00  0.00    +0.173 C 
ATOM     28  C   UNL     1      34.072 -16.916 -24.218  0.00  0.00    +0.183 C 
ATOM     29  C   UNL     1      33.833 -13.779 -21.537  0.00  0.00    +0.240 C 
ATOM     30  C   UNL     1      33.024 -12.438 -23.251  0.00  0.00    +0.249 C 
ATOM     31  H   UNL     1      32.806 -13.281 -25.115  0.00  0.00    +0.157 HD
ATOM     32  H   UNL     1      32.304 -11.197 -24.717  0.00  0.00    +0.146 HD
ATOM     33  H   UNL     1      32.472 -10.464 -23.186  0.00  0.00    +0.146 HD
ENDBRANCH  18  25
ENDBRANCH   1  18
TORSDOF 8
ENDMDL
MODEL 3
REMARK VINA RESULT:     -12.2      1.509      2.071
REMARK  Name = 656948
REMARK  8 active torsions:
REMARK  status: ('A' for Active; 'I' for Inactive)
REMARK    1  A    between atoms: N_1  and  C_3
REMARK    2  A    between atoms: N_1  and  C_18
REMARK    3  A    between atoms: C_6  and  C_10
REMARK    4  A    between atoms: C_10  and  O_11
REMARK    5  A    between atoms: O_11  and  P_12
REMARK    6  A    between atoms: P_12  and  O_14
REMARK    7  A    between atoms: P_12  and  O_16
REMARK    8  A    between atoms: C_18  and  C_25
REMARK                            x       y       z     vdW  Elec       q    Type
REMARK                         _______ _______ _______ _____ _____    ______ ____
ROOT
ATOM      1  N   UNL     1      35.070 -18.785 -21.689  0.00  0.00    -0.327 N 
ATOM      2  H   UNL     1      35.826 -18.212 -21.427  0.00  0.00    +0.147 HD
ENDROOT
BRANCH   1   3
ATOM      3  C   UNL     1      34.542 -19.643 -20.740  0.00  0.00    +0.045 C 
ATOM      4  C   UNL     1      33.150 -19.733 -20.539  0.00  0.00    +0.015 C 
ATOM      5  C   UNL     1      35.380 -20.452 -19.949  0.00  0.00    +0.015 C 
ATOM      6  C   UNL     1      33.467 -21.390 -18.809  0.00  0.00    +0.076 C 
ATOM      7  C   UNL     1      32.618 -20.597 -19.583  0.00  0.00    +0.008 C 
ATOM      8  C   UNL     1      34.847 -21.317 -18.992  0.00  0.00    +0.008 C 
BRANCH   6  10
ATOM      9  O   UNL     1      31.708 -22.407 -17.551  0.00  0.00    -0.245 OA
ATOM     10  C   UNL     1      32.912 -22.292 -17.813  0.00  0.00    +0.348 C 
BRANCH  10  11
ATOM     11  O   UNL     1      33.881 -23.014 -17.183  0.00  0.00    -0.368 OA
BRANCH  11  12
ATOM     12  P   UNL     1      34.124 -23.076 -15.585  0.00  0.00    +0.530 P 
ATOM     13  O   UNL     1      34.900 -21.922 -15.020  0.00  0.00    -0.216 OA
BRANCH  12  14
ATOM     14  O   UNL     1      34.785 -24.533 -15.357  0.00  0.00    -0.293 OA
ATOM     15  H   UNL     1      35.735 -24.435 -15.186  0.00  0.00    +0.223 HD
ENDBRANCH  12  14
BRANCH  12  16
ATOM     16  O   UNL     1      32.628 -23.247 -14.997  0.00  0.00    -0.293 OA
ATOM     17  H   UNL     1      32.103 -22.462 -15.217  0.00  0.00    +0.223 HD
ENDBRANCH  12  16
ENDBRANCH  11  12
ENDBRANCH  10  11
ENDBRANCH   6  10
ENDBRANCH   1   3
BRANCH   1  18
ATOM     18  C   UNL     1      34.571 -18.685 -23.044  0.00  0.00    +0.145 C 
BRANCH  18  25
ATOM     19  O   UNL     1      34.234 -14.459 -20.517  0.00  0.00    -0.206 OA
ATOM     20  N   UNL     1      34.213 -16.383 -22.369  0.00  0.00    -0.391 NA
ATOM     21  N   UNL     1      33.087 -13.436 -24.208  0.00  0.00    -0.259 N 
ATOM     22  N   UNL     1      33.414 -15.690 -24.970  0.00  0.00    -0.246 NA
ATOM     23  N   UNL     1      33.504 -12.813 -21.946  0.00  0.00    -0.300 NA
ATOM     24  N   UNL     1      32.757 -11.264 -23.541  0.00  0.00    -0.320 N 
ATOM     25  C   UNL     1      34.174 -17.287 -23.365  0.00  0.00    +0.132 C 
ATOM     26  C   UNL     1      33.845 -15.131 -22.708  0.00  0.00    +0.255 C 
ATOM     27  C   UNL     1      33.446 -14.768 -23.984  0.00  0.00    +0.173 C 
ATOM     28  C   UNL     1      33.780 -16.947 -24.642  0.00  0.00    +0.183 C 
ATOM     29  C   UNL     1      33.875 -14.110 -21.637  0.00  0.00    +0.240 C 
ATOM     30  C   UNL     1      33.137 -12.531 -23.170  0.00  0.00    +0.249 C 
ATOM     31  H   UNL     1      32.800 -13.146 -25.104  0.00  0.00    +0.157 HD
ATOM     32  H   UNL     1      32.484 -11.084 -24.470  0.00  0.00    +0.146 HD
ATOM     33  H   UNL     1      32.754 -10.537 -22.877  0.00  0.00    +0.146 HD
ENDBRANCH  18  25
ENDBRANCH   1  18
TORSDOF 8
ENDMDL
MODEL 4
REMARK VINA RESULT:     -12.0      6.417     10.702
REMARK  Name = 656948
REMARK  8 active torsions:
REMARK  status: ('A' for Active; 'I' for Inactive)
REMARK    1  A    between atoms: N_1  and  C_3
REMARK    2  A    between atoms: N_1  and  C_18
REMARK    3  A    between atoms: C_6  and  C_10
REMARK    4  A    between atoms: C_10  and  O_11
REMARK    5  A    between atoms: O_11  and  P_12
REMARK    6  A    between atoms: P_12  and  O_14
REMARK    7  A    between atoms: P_12  and  O_16
REMARK    8  A    between atoms: C_18  and  C_25
REMARK                            x       y       z     vdW  Elec       q    Type
REMARK                         _______ _______ _______ _____ _____    ______ ____
ROOT
ATOM      1  N   UNL     1      33.198 -23.183 -16.417  0.00  0.00    -0.327 N 
ATOM      2  H   UNL     1      32.860 -24.094 -16.575  0.00  0.00    +0.147 HD
ENDROOT
BRANCH   1   3
ATOM      3  C   UNL     1      33.357 -22.346 -17.507  0.00  0.00    +0.045 C 
ATOM      4  C   UNL     1      34.636 -22.071 -18.029  0.00  0.00    +0.015 C 
ATOM      5  C   UNL     1      32.245 -21.744 -18.127  0.00  0.00    +0.015 C 
ATOM      6  C   UNL     1      33.681 -20.641 -19.726  0.00  0.00    +0.076 C 
ATOM      7  C   UNL     1      34.797 -21.228 -19.127  0.00  0.00    +0.008 C 
ATOM      8  C   UNL     1      32.406 -20.900 -19.226  0.00  0.00    +0.008 C 
BRANCH   6  10
ATOM      9  O   UNL     1      32.938 -19.395 -21.624  0.00  0.00    -0.245 OA
ATOM     10  C   UNL     1      33.849 -19.763 -20.872  0.00  0.00    +0.348 C 
BRANCH  10  11
ATOM     11  O   UNL     1      35.147 -19.379 -21.035  0.00  0.00    -0.368 OA
BRANCH  11  12
ATOM     12  P   UNL     1      35.652 -17.885 -21.392  0.00  0.00    +0.530 P 
ATOM     13  O   UNL     1      35.104 -16.804 -20.504  0.00  0.00    -0.216 OA
BRANCH  12  14
ATOM     14  O   UNL     1      35.308 -17.731 -22.964  0.00  0.00    -0.293 OA
ATOM     15  H   UNL     1      35.860 -18.342 -23.477  0.00  0.00    +0.223 HD
ENDBRANCH  12  14
BRANCH  12  16
ATOM     16  O   UNL     1      37.262 -18.032 -21.373  0.00  0.00    -0.293 OA
ATOM     17  H   UNL     1      37.615 -17.826 -22.253  0.00  0.00    +0.223 HD
ENDBRANCH  12  16
ENDBRANCH  11  12
ENDBRANCH  10  11
ENDBRANCH   6  10
ENDBRANCH   1   3
BRANCH   1  18
ATOM     18  C   UNL     1      33.502 -22.792 -15.056  0.00  0.00    +0.145 C 
BRANCH  18  25
ATOM     19  O   UNL     1      36.173 -26.901 -15.641  0.00  0.00    -0.206 OA
ATOM     20  N   UNL     1      35.250 -24.472 -15.021  0.00  0.00    -0.391 NA
ATOM     21  N   UNL     1      38.621 -24.474 -13.616  0.00  0.00    -0.259 N 
ATOM     22  N   UNL     1      36.951 -22.748 -13.600  0.00  0.00    -0.246 NA
ATOM     23  N   UNL     1      38.224 -26.582 -14.652  0.00  0.00    -0.300 NA
ATOM     24  N   UNL     1      40.258 -26.083 -13.597  0.00  0.00    -0.320 N 
ATOM     25  C   UNL     1      34.870 -23.231 -14.667  0.00  0.00    +0.132 C 
ATOM     26  C   UNL     1      36.498 -24.825 -14.647  0.00  0.00    +0.255 C 
ATOM     27  C   UNL     1      37.351 -23.990 -13.945  0.00  0.00    +0.173 C 
ATOM     28  C   UNL     1      35.705 -22.385 -13.969  0.00  0.00    +0.183 C 
ATOM     29  C   UNL     1      36.950 -26.184 -15.019  0.00  0.00    +0.240 C 
ATOM     30  C   UNL     1      38.986 -25.749 -13.989  0.00  0.00    +0.249 C 
ATOM     31  H   UNL     1      39.252 -23.905 -13.117  0.00  0.00    +0.157 HD
ATOM     32  H   UNL     1      40.806 -25.434 -13.098  0.00  0.00    +0.146 HD
ATOM     33  H   UNL     1      40.622 -26.972 -13.812  0.00  0.00    +0.146 HD
ENDBRANCH  18  25
ENDBRANCH   1  18
TORSDOF 8
ENDMDL
MODEL 5
REMARK VINA RESULT:     -11.8      4.470     10.103
REMARK  Name = 656948
REMARK  8 active torsions:
REMARK  status: ('A' for Active; 'I' for Inactive)
REMARK    1  A    between atoms: N_1  and  C_3
REMARK    2  A    between atoms: N_1  and  C_18
REMARK    3  A    between atoms: C_6  and  C_10
REMARK    4  A    between atoms: C_10  and  O_11
REMARK    5  A    between atoms: O_11  and  P_12
REMARK    6  A    between atoms: P_12  and  O_14
REMARK    7  A    between atoms: P_12  and  O_16
REMARK    8  A    between atoms: C_18  and  C_25
REMARK                            x       y       z     vdW  Elec       q    Type
REMARK                         _______ _______ _______ _____ _____    ______ ____
ROOT
ATOM      1  N   UNL     1      34.604 -20.224 -20.656  0.00  0.00    -0.327 N 
ATOM      2  H   UNL     1      33.887 -20.894 -20.741  0.00  0.00    +0.147 HD
ENDROOT
BRANCH   1   3
ATOM      3  C   UNL     1      34.538 -19.093 -21.449  0.00  0.00    +0.045 C 
ATOM      4  C   UNL     1      34.026 -19.156 -22.760  0.00  0.00    +0.015 C 
ATOM      5  C   UNL     1      34.982 -17.845 -20.970  0.00  0.00    +0.015 C 
ATOM      6  C   UNL     1      34.405 -16.789 -23.065  0.00  0.00    +0.076 C 
ATOM      7  C   UNL     1      33.960 -18.015 -23.560  0.00  0.00    +0.008 C 
ATOM      8  C   UNL     1      34.915 -16.704 -21.771  0.00  0.00    +0.008 C 
BRANCH   6  10
ATOM      9  O   UNL     1      34.175 -15.601 -25.125  0.00  0.00    -0.245 OA
ATOM     10  C   UNL     1      34.335 -15.600 -23.899  0.00  0.00    +0.348 C 
BRANCH  10  11
ATOM     11  O   UNL     1      34.469 -14.457 -23.169  0.00  0.00    -0.368 OA
BRANCH  11  12
ATOM     12  P   UNL     1      33.280 -13.422 -22.807  0.00  0.00    +0.530 P 
ATOM     13  O   UNL     1      32.650 -13.631 -21.460  0.00  0.00    -0.216 OA
BRANCH  12  14
ATOM     14  O   UNL     1      32.274 -13.541 -24.067  0.00  0.00    -0.293 OA
ATOM     15  H   UNL     1      32.789 -13.597 -24.888  0.00  0.00    +0.223 HD
ENDBRANCH  12  14
BRANCH  12  16
ATOM     16  O   UNL     1      33.977 -11.979 -23.020  0.00  0.00    -0.293 OA
ATOM     17  H   UNL     1      34.151 -11.574 -22.156  0.00  0.00    +0.223 HD
ENDBRANCH  12  16
ENDBRANCH  11  12
ENDBRANCH  10  11
ENDBRANCH   6  10
ENDBRANCH   1   3
BRANCH   1  18
ATOM     18  C   UNL     1      35.670 -20.477 -19.709  0.00  0.00    +0.145 C 
BRANCH  18  25
ATOM     19  O   UNL     1      37.512 -21.833 -15.335  0.00  0.00    -0.206 OA
ATOM     20  N   UNL     1      36.007 -21.432 -17.505  0.00  0.00    -0.391 NA
ATOM     21  N   UNL     1      33.871 -23.483 -15.368  0.00  0.00    -0.259 N 
ATOM     22  N   UNL     1      33.445 -22.578 -17.553  0.00  0.00    -0.246 NA
ATOM     23  N   UNL     1      35.937 -23.104 -14.245  0.00  0.00    -0.300 NA
ATOM     24  N   UNL     1      34.217 -24.375 -13.282  0.00  0.00    -0.320 N 
ATOM     25  C   UNL     1      35.180 -21.280 -18.556  0.00  0.00    +0.132 C 
ATOM     26  C   UNL     1      35.520 -22.167 -16.484  0.00  0.00    +0.255 C 
ATOM     27  C   UNL     1      34.260 -22.742 -16.489  0.00  0.00    +0.173 C 
ATOM     28  C   UNL     1      33.923 -21.844 -18.579  0.00  0.00    +0.183 C 
ATOM     29  C   UNL     1      36.402 -22.355 -15.311  0.00  0.00    +0.240 C 
ATOM     30  C   UNL     1      34.737 -23.623 -14.306  0.00  0.00    +0.249 C 
ATOM     31  H   UNL     1      32.981 -23.904 -15.340  0.00  0.00    +0.157 HD
ATOM     32  H   UNL     1      33.311 -24.753 -13.359  0.00  0.00    +0.146 HD
ATOM     33  H   UNL     1      34.752 -24.539 -12.472  0.00  0.00    +0.146 HD
ENDBRANCH  18  25
ENDBRANCH   1  18
TORSDOF 8
ENDMDL
MODEL 6
REMARK VINA RESULT:     -11.7      0.817      1.586
REMARK  Name = 656948
REMARK  8 active torsions:
REMARK  status: ('A' for Active; 'I' for Inactive)
REMARK    1  A    between atoms: N_1  and  C_3
REMARK    2  A    between atoms: N_1  and  C_18
REMARK    3  A    between atoms: C_6  and  C_10
REMARK    4  A    between atoms: C_10  and  O_11
REMARK    5  A    between atoms: O_11  and  P_12
REMARK    6  A    between atoms: P_12  and  O_14
REMARK    7  A    between atoms: P_12  and  O_16
REMARK    8  A    between atoms: C_18  and  C_25
REMARK                            x       y       z     vdW  Elec       q    Type
REMARK                         _______ _______ _______ _____ _____    ______ ____
ROOT
ATOM      1  N   UNL     1      34.143 -18.961 -22.232  0.00  0.00    -0.327 N 
ATOM      2  H   UNL     1      33.365 -19.097 -22.820  0.00  0.00    +0.147 HD
ENDROOT
BRANCH   1   3
ATOM      3  C   UNL     1      34.239 -19.730 -21.087  0.00  0.00    +0.045 C 
ATOM      4  C   UNL     1      35.494 -20.091 -20.559  0.00  0.00    +0.015 C 
ATOM      5  C   UNL     1      33.084 -20.175 -20.414  0.00  0.00    +0.015 C 
ATOM      6  C   UNL     1      34.433 -21.297 -18.754  0.00  0.00    +0.076 C 
ATOM      7  C   UNL     1      35.590 -20.866 -19.404  0.00  0.00    +0.008 C 
ATOM      8  C   UNL     1      33.181 -20.951 -19.259  0.00  0.00    +0.008 C 
BRANCH   6  10
ATOM      9  O   UNL     1      33.573 -22.532 -16.898  0.00  0.00    -0.245 OA
ATOM     10  C   UNL     1      34.534 -22.105 -17.549  0.00  0.00    +0.348 C 
BRANCH  10  11
ATOM     11  O   UNL     1      35.831 -22.346 -17.205  0.00  0.00    -0.368 OA
BRANCH  11  12
ATOM     12  P   UNL     1      36.581 -21.777 -15.890  0.00  0.00    +0.530 P 
ATOM     13  O   UNL     1      35.805 -21.917 -14.611  0.00  0.00    -0.216 OA
BRANCH  12  14
ATOM     14  O   UNL     1      36.973 -20.264 -16.300  0.00  0.00    -0.293 OA
ATOM     15  H   UNL     1      36.259 -19.876 -16.829  0.00  0.00    +0.223 HD
ENDBRANCH  12  14
BRANCH  12  16
ATOM     16  O   UNL     1      37.999 -22.552 -15.917  0.00  0.00    -0.293 OA
ATOM     17  H   UNL     1      38.041 -23.122 -16.701  0.00  0.00    +0.223 HD
ENDBRANCH  12  16
ENDBRANCH  11  12
ENDBRANCH  10  11
ENDBRANCH   6  10
ENDBRANCH   1   3
BRANCH   1  18
ATOM     18  C   UNL     1      35.124 -17.966 -22.613  0.00  0.00    +0.145 C 
BRANCH  18  25
ATOM     19  O   UNL     1      33.077 -14.602 -25.590  0.00  0.00    -0.206 OA
ATOM     20  N   UNL     1      34.092 -15.973 -23.535  0.00  0.00    -0.391 NA
ATOM     21  N   UNL     1      33.089 -12.807 -22.018  0.00  0.00    -0.259 N 
ATOM     22  N   UNL     1      34.110 -14.736 -21.015  0.00  0.00    -0.246 NA
ATOM     23  N   UNL     1      32.565 -12.741 -24.341  0.00  0.00    -0.300 NA
ATOM     24  N   UNL     1      32.113 -10.934 -22.917  0.00  0.00    -0.320 N 
ATOM     25  C   UNL     1      34.583 -16.590 -22.444  0.00  0.00    +0.132 C 
ATOM     26  C   UNL     1      33.613 -14.729 -23.332  0.00  0.00    +0.255 C 
ATOM     27  C   UNL     1      33.614 -14.100 -22.098  0.00  0.00    +0.173 C 
ATOM     28  C   UNL     1      34.592 -15.982 -21.207  0.00  0.00    +0.183 C 
ATOM     29  C   UNL     1      33.066 -14.020 -24.510  0.00  0.00    +0.240 C 
ATOM     30  C   UNL     1      32.593 -12.199 -23.150  0.00  0.00    +0.249 C 
ATOM     31  H   UNL     1      33.074 -12.333 -21.155  0.00  0.00    +0.157 HD
ATOM     32  H   UNL     1      32.149 -10.553 -22.009  0.00  0.00    +0.146 HD
ATOM     33  H   UNL     1      31.734 -10.407 -23.657  0.00  0.00    +0.146 HD
ENDBRANCH  18  25
ENDBRANCH   1  18
TORSDOF 8
ENDMDL
MODEL 7
REMARK VINA RESULT:     -11.6      4.416      9.814
REMARK  Name = 656948
REMARK  8 active torsions:
REMARK  status: ('A' for Active; 'I' for Inactive)
REMARK    1  A    between atoms: N_1  and  C_3
REMARK    2  A    between atoms: N_1  and  C_18
REMARK    3  A    between atoms: C_6  and  C_10
REMARK    4  A    between atoms: C_10  and  O_11
REMARK    5  A    between atoms: O_11  and  P_12
REMARK    6  A    between atoms: P_12  and  O_14
REMARK    7  A    between atoms: P_12  and  O_16
REMARK    8  A    between atoms: C_18  and  C_25
REMARK                            x       y       z     vdW  Elec       q    Type
REMARK                         _______ _______ _______ _____ _____    ______ ____
ROOT
ATOM      1  N   UNL     1      35.215 -17.419 -21.118  0.00  0.00    -0.327 N 
ATOM      2  H   UNL     1      35.883 -17.410 -20.395  0.00  0.00    +0.147 HD
ENDROOT
BRANCH   1   3
ATOM      3  C   UNL     1      34.649 -16.216 -21.499  0.00  0.00    +0.045 C 
ATOM      4  C   UNL     1      34.618 -15.825 -22.852  0.00  0.00    +0.015 C 
ATOM      5  C   UNL     1      34.087 -15.346 -20.545  0.00  0.00    +0.015 C 
ATOM      6  C   UNL     1      33.496 -13.765 -22.274  0.00  0.00    +0.076 C 
ATOM      7  C   UNL     1      34.047 -14.613 -23.236  0.00  0.00    +0.008 C 
ATOM      8  C   UNL     1      33.516 -14.132 -20.929  0.00  0.00    +0.008 C 
BRANCH   6  10
ATOM      9  O   UNL     1      33.405 -11.697 -23.467  0.00  0.00    -0.245 OA
ATOM     10  C   UNL     1      32.900 -12.501 -22.674  0.00  0.00    +0.348 C 
BRANCH  10  11
ATOM     11  O   UNL     1      31.698 -12.290 -22.068  0.00  0.00    -0.368 OA
BRANCH  11  12
ATOM     12  P   UNL     1      31.252 -10.939 -21.299  0.00  0.00    +0.530 P 
ATOM     13  O   UNL     1      31.652 -10.875 -19.853  0.00  0.00    -0.216 OA
BRANCH  12  14
ATOM     14  O   UNL     1      29.664 -10.844 -21.583  0.00  0.00    -0.293 OA
ATOM     15  H   UNL     1      29.185 -11.367 -20.921  0.00  0.00    +0.223 HD
ENDBRANCH  12  14
BRANCH  12  16
ATOM     16  O   UNL     1      31.869  -9.770 -22.231  0.00  0.00    -0.293 OA
ATOM     17  H   UNL     1      31.172  -9.409 -22.800  0.00  0.00    +0.223 HD
ENDBRANCH  12  16
ENDBRANCH  11  12
ENDBRANCH  10  11
ENDBRANCH   6  10
ENDBRANCH   1   3
BRANCH   1  18
ATOM     18  C   UNL     1      34.879 -18.690 -21.725  0.00  0.00    +0.145 C 
BRANCH  18  25
ATOM     19  O   UNL     1      36.081 -21.666 -17.974  0.00  0.00    -0.206 OA
ATOM     20  N   UNL     1      34.837 -20.239 -19.858  0.00  0.00    -0.391 NA
ATOM     21  N   UNL     1      32.096 -21.939 -18.145  0.00  0.00    -0.259 N 
ATOM     22  N   UNL     1      32.038 -20.411 -19.998  0.00  0.00    -0.246 NA
ATOM     23  N   UNL     1      34.150 -22.574 -17.119  0.00  0.00    -0.300 NA
ATOM     24  N   UNL     1      32.086 -23.403 -16.377  0.00  0.00    -0.320 N 
ATOM     25  C   UNL     1      34.127 -19.554 -20.774  0.00  0.00    +0.132 C 
ATOM     26  C   UNL     1      34.112 -21.007 -19.019  0.00  0.00    +0.255 C 
ATOM     27  C   UNL     1      32.732 -21.107 -19.072  0.00  0.00    +0.173 C 
ATOM     28  C   UNL     1      32.753 -19.640 -20.843  0.00  0.00    +0.183 C 
ATOM     29  C   UNL     1      34.859 -21.775 -17.998  0.00  0.00    +0.240 C 
ATOM     30  C   UNL     1      32.846 -22.629 -17.218  0.00  0.00    +0.249 C 
ATOM     31  H   UNL     1      31.116 -22.032 -18.156  0.00  0.00    +0.157 HD
ATOM     32  H   UNL     1      31.107 -23.423 -16.478  0.00  0.00    +0.146 HD
ATOM     33  H   UNL     1      32.520 -23.940 -15.675  0.00  0.00    +0.146 HD
ENDBRANCH  18  25
ENDBRANCH   1  18
TORSDOF 8
ENDMDL
MODEL 8
REMARK VINA RESULT:     -11.6      1.107      1.979
REMARK  Name = 656948
REMARK  8 active torsions:
REMARK  status: ('A' for Active; 'I' for Inactive)
REMARK    1  A    between atoms: N_1  and  C_3
REMARK    2  A    between atoms: N_1  and  C_18
REMARK    3  A    between atoms: C_6  and  C_10
REMARK    4  A    between atoms: C_10  and  O_11
REMARK    5  A    between atoms: O_11  and  P_12
REMARK    6  A    between atoms: P_12  and  O_14
REMARK    7  A    between atoms: P_12  and  O_16
REMARK    8  A    between atoms: C_18  and  C_25
REMARK                            x       y       z     vdW  Elec       q    Type
REMARK                         _______ _______ _______ _____ _____    ______ ____
ROOT
ATOM      1  N   UNL     1      33.830 -19.374 -21.712  0.00  0.00    -0.327 N 
ATOM      2  H   UNL     1      33.008 -19.401 -22.254  0.00  0.00    +0.147 HD
ENDROOT
BRANCH   1   3
ATOM      3  C   UNL     1      33.876 -20.136 -20.558  0.00  0.00    +0.045 C 
ATOM      4  C   UNL     1      35.108 -20.484 -19.969  0.00  0.00    +0.015 C 
ATOM      5  C   UNL     1      32.694 -20.586 -19.939  0.00  0.00    +0.015 C 
ATOM      6  C   UNL     1      33.972 -21.688 -18.210  0.00  0.00    +0.076 C 
ATOM      7  C   UNL     1      35.155 -21.252 -18.806  0.00  0.00    +0.008 C 
ATOM      8  C   UNL     1      32.742 -21.355 -18.776  0.00  0.00    +0.008 C 
BRANCH   6  10
ATOM      9  O   UNL     1      35.056 -22.837 -16.417  0.00  0.00    -0.245 OA
ATOM     10  C   UNL     1      34.021 -22.489 -16.997  0.00  0.00    +0.348 C 
BRANCH  10  11
ATOM     11  O   UNL     1      32.775 -22.825 -16.557  0.00  0.00    -0.368 OA
BRANCH  11  12
ATOM     12  P   UNL     1      32.341 -23.026 -15.012  0.00  0.00    +0.530 P 
ATOM     13  O   UNL     1      32.156 -24.455 -14.590  0.00  0.00    -0.216 OA
BRANCH  12  14
ATOM     14  O   UNL     1      31.038 -22.083 -14.856  0.00  0.00    -0.293 OA
ATOM     15  H   UNL     1      31.127 -21.536 -14.060  0.00  0.00    +0.223 HD
ENDBRANCH  12  14
BRANCH  12  16
ATOM     16  O   UNL     1      33.486 -22.218 -14.206  0.00  0.00    -0.293 OA
ATOM     17  H   UNL     1      34.261 -22.101 -14.777  0.00  0.00    +0.223 HD
ENDBRANCH  12  16
ENDBRANCH  11  12
ENDBRANCH  10  11
ENDBRANCH   6  10
ENDBRANCH   1   3
BRANCH   1  18
ATOM     18  C   UNL     1      34.922 -18.538 -22.164  0.00  0.00    +0.145 C 
BRANCH  18  25
ATOM     19  O   UNL     1      33.332 -15.321 -25.554  0.00  0.00    -0.206 OA
ATOM     20  N   UNL     1      34.140 -16.559 -23.329  0.00  0.00    -0.391 NA
ATOM     21  N   UNL     1      33.455 -13.156 -22.195  0.00  0.00    -0.259 N 
ATOM     22  N   UNL     1      34.233 -15.062 -20.956  0.00  0.00    -0.246 NA
ATOM     23  N   UNL     1      32.998 -13.290 -24.529  0.00  0.00    -0.300 NA
ATOM     24  N   UNL     1      32.713 -11.300 -23.322  0.00  0.00    -0.320 N 
ATOM     25  C   UNL     1      34.532 -17.102 -22.161  0.00  0.00    +0.132 C 
ATOM     26  C   UNL     1      33.796 -15.256 -23.277  0.00  0.00    +0.255 C 
ATOM     27  C   UNL     1      33.836 -14.500 -22.117  0.00  0.00    +0.173 C 
ATOM     28  C   UNL     1      34.579 -16.366 -20.997  0.00  0.00    +0.183 C 
ATOM     29  C   UNL     1      33.359 -14.626 -24.543  0.00  0.00    +0.240 C 
ATOM     30  C   UNL     1      33.057 -12.627 -23.402  0.00  0.00    +0.249 C 
ATOM     31  H   UNL     1      33.472 -12.592 -21.388  0.00  0.00    +0.157 HD
ATOM     32  H   UNL     1      32.769 -10.828 -22.460  0.00  0.00    +0.146 HD
ATOM     33  H   UNL     1      32.414 -10.820 -24.128  0.00  0.00    +0.146 HD
ENDBRANCH  18  25
ENDBRANCH   1  18
TORSDOF 8
ENDMDL
MODEL 9
REMARK VINA RESULT:     -11.5      6.065     10.734
REMARK  Name = 656948
REMARK  8 active torsions:
REMARK  status: ('A' for Active; 'I' for Inactive)
REMARK    1  A    between atoms: N_1  and  C_3
REMARK    2  A    between atoms: N_1  and  C_18
REMARK    3  A    between atoms: C_6  and  C_10
REMARK    4  A    between atoms: C_10  and  O_11
REMARK    5  A    between atoms: O_11  and  P_12
REMARK    6  A    between atoms: P_12  and  O_14
REMARK    7  A    between atoms: P_12  and  O_16
REMARK    8  A    between atoms: C_18  and  C_25
REMARK                            x       y       z     vdW  Elec       q    Type
REMARK                         _______ _______ _______ _____ _____    ______ ____
ROOT
ATOM      1  N   UNL     1      33.363 -22.868 -17.307  0.00  0.00    -0.327 N 
ATOM      2  H   UNL     1      33.015 -23.742 -17.598  0.00  0.00    +0.147 HD
ENDROOT
BRANCH   1   3
ATOM      3  C   UNL     1      33.678 -21.934 -18.278  0.00  0.00    +0.045 C 
ATOM      4  C   UNL     1      32.667 -21.251 -18.982  0.00  0.00    +0.015 C 
ATOM      5  C   UNL     1      35.020 -21.640 -18.592  0.00  0.00    +0.015 C 
ATOM      6  C   UNL     1      34.321 -20.034 -20.256  0.00  0.00    +0.076 C 
ATOM      7  C   UNL     1      32.986 -20.310 -19.961  0.00  0.00    +0.008 C 
ATOM      8  C   UNL     1      35.337 -20.699 -19.572  0.00  0.00    +0.008 C 
BRANCH   6  10
ATOM      9  O   UNL     1      35.737 -18.467 -21.373  0.00  0.00    -0.245 OA
ATOM     10  C   UNL     1      34.652 -19.053 -21.276  0.00  0.00    +0.348 C 
BRANCH  10  11
ATOM     11  O   UNL     1      33.616 -18.841 -22.135  0.00  0.00    -0.368 OA
BRANCH  11  12
ATOM     12  P   UNL     1      33.749 -18.479 -23.706  0.00  0.00    +0.530 P 
ATOM     13  O   UNL     1      32.443 -18.361 -24.439  0.00  0.00    -0.216 OA
BRANCH  12  14
ATOM     14  O   UNL     1      34.761 -19.605 -24.272  0.00  0.00    -0.293 OA
ATOM     15  H   UNL     1      35.086 -19.338 -25.147  0.00  0.00    +0.223 HD
ENDBRANCH  12  14
BRANCH  12  16
ATOM     16  O   UNL     1      34.650 -17.138 -23.694  0.00  0.00    -0.293 OA
ATOM     17  H   UNL     1      34.127 -16.394 -24.032  0.00  0.00    +0.223 HD
ENDBRANCH  12  16
ENDBRANCH  11  12
ENDBRANCH  10  11
ENDBRANCH   6  10
ENDBRANCH   1   3
BRANCH   1  18
ATOM     18  C   UNL     1      33.517 -22.629 -15.887  0.00  0.00    +0.145 C 
BRANCH  18  25
ATOM     19  O   UNL     1      35.798 -26.952 -15.196  0.00  0.00    -0.206 OA
ATOM     20  N   UNL     1      35.119 -24.374 -15.363  0.00  0.00    -0.391 NA
ATOM     21  N   UNL     1      38.554 -24.259 -14.131  0.00  0.00    -0.259 N 
ATOM     22  N   UNL     1      37.037 -22.463 -14.623  0.00  0.00    -0.246 NA
ATOM     23  N   UNL     1      37.923 -26.537 -14.422  0.00  0.00    -0.300 NA
ATOM     24  N   UNL     1      40.049 -25.931 -13.642  0.00  0.00    -0.320 N 
ATOM     25  C   UNL     1      34.864 -23.054 -15.418  0.00  0.00    +0.132 C 
ATOM     26  C   UNL     1      36.352 -24.710 -14.932  0.00  0.00    +0.255 C 
ATOM     27  C   UNL     1      37.312 -23.783 -14.562  0.00  0.00    +0.173 C 
ATOM     28  C   UNL     1      35.806 -22.116 -15.053  0.00  0.00    +0.183 C 
ATOM     29  C   UNL     1      36.667 -26.154 -14.860  0.00  0.00    +0.240 C 
ATOM     30  C   UNL     1      38.788 -25.616 -14.084  0.00  0.00    +0.249 C 
ATOM     31  H   UNL     1      39.258 -23.626 -13.860  0.00  0.00    +0.157 HD
ATOM     32  H   UNL     1      40.678 -25.214 -13.395  0.00  0.00    +0.146 HD
ATOM     33  H   UNL     1      40.324 -26.873 -13.570  0.00  0.00    +0.146 HD
ENDBRANCH  18  25
ENDBRANCH   1  18
TORSDOF 8
ENDMDL
