MODEL 1
REMARK VINA RESULT:     -12.8      0.000      0.000
REMARK  Name = 66000
REMARK  8 active torsions:
REMARK  status: ('A' for Active; 'I' for Inactive)
REMARK    1  A    between atoms: C_1  and  O_19
REMARK    2  A    between atoms: C_4  and  C_7
REMARK    3  A    between atoms: C_10  and  C_15
REMARK    4  A    between atoms: O_19  and  C_20
REMARK    5  A    between atoms: C_20  and  C_24
REMARK    6  A    between atoms: C_23  and  C_28
REMARK    7  A    between atoms: C_28  and  C_30
REMARK    8  A    between atoms: C_30  and  O_31
REMARK                            x       y       z     vdW  Elec       q    Type
REMARK                         _______ _______ _______ _____ _____    ______ ____
ROOT
ATOM      1  C   UNL     1      34.946 -21.746 -17.982  0.00  0.00    +0.139 C 
ATOM      2  C   UNL     1      36.046 -21.052 -18.474  0.00  0.00    +0.037 C 
ATOM      3  C   UNL     1      33.682 -21.553 -18.525  0.00  0.00    +0.037 C 
ATOM      4  C   UNL     1      34.611 -19.949 -20.074  0.00  0.00    +0.000 C 
ATOM      5  C   UNL     1      35.877 -20.150 -19.524  0.00  0.00    +0.003 C 
ATOM      6  C   UNL     1      33.514 -20.650 -19.575  0.00  0.00    +0.003 C 
ENDROOT
BRANCH   4   7
ATOM      7  C   UNL     1      34.436 -19.013 -21.164  0.00  0.00    +0.000 C 
ATOM      8  C   UNL     1      34.869 -17.694 -21.026  0.00  0.00    +0.000 C 
ATOM      9  C   UNL     1      33.835 -19.429 -22.352  0.00  0.00    +0.000 C 
ATOM     10  C   UNL     1      34.101 -17.208 -23.264  0.00  0.00    +0.031 C 
ATOM     11  C   UNL     1      34.701 -16.791 -22.076  0.00  0.00    +0.003 C 
ATOM     12  C   UNL     1      33.668 -18.526 -23.403  0.00  0.00    +0.003 C 
BRANCH  10  15
ATOM     13  N   UNL     1      34.806 -15.204 -24.551  0.00  0.00    -0.343 N 
ATOM     14  N   UNL     1      32.910 -16.409 -25.193  0.00  0.00    -0.285 NA
ATOM     15  C   UNL     1      33.925 -16.266 -24.359  0.00  0.00    +0.117 C 
ATOM     16  H   UNL     1      34.668 -14.578 -25.298  0.00  0.00    +0.144 HD
ATOM     17  H   UNL     1      35.566 -15.078 -23.938  0.00  0.00    +0.144 HD
ATOM     18  H   UNL     1      32.789 -15.773 -25.935  0.00  0.00    +0.188 HD
ENDBRANCH  10  15
ENDBRANCH   4   7
BRANCH   1  19
ATOM     19  O   UNL     1      35.112 -22.633 -16.948  0.00  0.00    -0.474 OA
BRANCH  19  20
ATOM     20  C   UNL     1      35.986 -22.246 -15.902  0.00  0.00    +0.225 C 
BRANCH  20  24
ATOM     21  O   UNL     1      36.192 -26.603 -15.409  0.00  0.00    -0.275 OA
ATOM     22  N   UNL     1      35.292 -24.461 -15.124  0.00  0.00    -0.302 N 
ATOM     23  C   UNL     1      37.567 -24.732 -14.646  0.00  0.00    +0.089 C 
ATOM     24  C   UNL     1      35.749 -23.158 -14.706  0.00  0.00    +0.116 C 
ATOM     25  C   UNL     1      37.028 -23.482 -13.942  0.00  0.00    +0.033 C 
ATOM     26  C   UNL     1      36.296 -25.427 -15.096  0.00  0.00    +0.223 C 
ATOM     27  H   UNL     1      34.367 -24.649 -15.401  0.00  0.00    +0.149 HD
BRANCH  23  28
ATOM     28  C   UNL     1      38.426 -25.600 -13.747  0.00  0.00    +0.118 C 
BRANCH  28  30
ATOM     29  O   UNL     1      40.779 -26.234 -13.702  0.00  0.00    -0.250 OA
ATOM     30  C   UNL     1      39.812 -25.798 -14.307  0.00  0.00    +0.314 C 
BRANCH  30  31
ATOM     31  O   UNL     1      39.846 -25.420 -15.611  0.00  0.00    -0.480 OA
ATOM     32  H   UNL     1      39.232 -24.790 -15.933  0.00  0.00    +0.295 HD
ENDBRANCH  30  31
ENDBRANCH  28  30
ENDBRANCH  23  28
ENDBRANCH  20  24
ENDBRANCH  19  20
ENDBRANCH   1  19
TORSDOF 8
ENDMDL
MODEL 2
REMARK VINA RESULT:     -12.7      1.500      2.183
REMARK  Name = 66000
REMARK  8 active torsions:
REMARK  status: ('A' for Active; 'I' for Inactive)
REMARK    1  A    between atoms: C_1  and  O_19
REMARK    2  A    between atoms: C_4  and  C_7
REMARK    3  A    between atoms: C_10  and  C_15
REMARK    4  A    between atoms: O_19  and  C_20
REMARK    5  A    between atoms: C_20  and  C_24
REMARK    6  A    between atoms: C_23  and  C_28
REMARK    7  A    between atoms: C_28  and  C_30
REMARK    8  A    between atoms: C_30  and  O_31
REMARK                            x       y       z     vdW  Elec       q    Type
REMARK                         _______ _______ _______ _____ _____    ______ ____
ROOT
ATOM      1  C   UNL     1      34.235 -21.843 -18.562  0.00  0.00    +0.139 C 
ATOM      2  C   UNL     1      35.443 -21.319 -19.008  0.00  0.00    +0.037 C 
ATOM      3  C   UNL     1      33.026 -21.329 -19.013  0.00  0.00    +0.037 C 
ATOM      4  C   UNL     1      34.231 -19.739 -20.375  0.00  0.00    +0.000 C 
ATOM      5  C   UNL     1      35.440 -20.262 -19.918  0.00  0.00    +0.003 C 
ATOM      6  C   UNL     1      33.024 -20.271 -19.922  0.00  0.00    +0.003 C 
ENDROOT
BRANCH   4   7
ATOM      7  C   UNL     1      34.229 -18.642 -21.319  0.00  0.00    +0.000 C 
ATOM      8  C   UNL     1      33.826 -18.857 -22.637  0.00  0.00    +0.000 C 
ATOM      9  C   UNL     1      34.628 -17.369 -20.910  0.00  0.00    +0.000 C 
ATOM     10  C   UNL     1      34.221 -16.526 -23.138  0.00  0.00    +0.031 C 
ATOM     11  C   UNL     1      33.822 -17.799 -23.547  0.00  0.00    +0.003 C 
ATOM     12  C   UNL     1      34.624 -16.311 -21.820  0.00  0.00    +0.003 C 
BRANCH  10  15
ATOM     13  N   UNL     1      34.270 -14.098 -23.660  0.00  0.00    -0.343 N 
ATOM     14  N   UNL     1      34.159 -15.672 -25.384  0.00  0.00    -0.285 NA
ATOM     15  C   UNL     1      34.217 -15.424 -24.087  0.00  0.00    +0.117 C 
ATOM     16  H   UNL     1      34.266 -13.368 -24.320  0.00  0.00    +0.144 HD
ATOM     17  H   UNL     1      34.311 -13.893 -22.698  0.00  0.00    +0.144 HD
ATOM     18  H   UNL     1      34.156 -14.928 -26.028  0.00  0.00    +0.188 HD
ENDBRANCH  10  15
ENDBRANCH   4   7
BRANCH   1  19
ATOM     19  O   UNL     1      34.237 -22.883 -17.666  0.00  0.00    -0.474 OA
BRANCH  19  20
ATOM     20  C   UNL     1      33.530 -22.689 -16.454  0.00  0.00    +0.225 C 
BRANCH  20  24
ATOM     21  O   UNL     1      33.981 -24.070 -12.311  0.00  0.00    -0.275 OA
ATOM     22  N   UNL     1      33.942 -22.501 -14.048  0.00  0.00    -0.302 N 
ATOM     23  C   UNL     1      35.246 -24.416 -14.373  0.00  0.00    +0.089 C 
ATOM     24  C   UNL     1      34.528 -22.342 -15.357  0.00  0.00    +0.116 C 
ATOM     25  C   UNL     1      35.715 -23.297 -15.310  0.00  0.00    +0.033 C 
ATOM     26  C   UNL     1      34.332 -23.678 -13.414  0.00  0.00    +0.223 C 
ATOM     27  H   UNL     1      33.330 -21.845 -13.644  0.00  0.00    +0.149 HD
BRANCH  23  28
ATOM     28  C   UNL     1      36.388 -25.126 -13.671  0.00  0.00    +0.118 C 
BRANCH  28  30
ATOM     29  O   UNL     1      37.975 -26.865 -14.301  0.00  0.00    -0.250 OA
ATOM     30  C   UNL     1      36.912 -26.289 -14.474  0.00  0.00    +0.314 C 
BRANCH  30  31
ATOM     31  O   UNL     1      36.022 -26.624 -15.444  0.00  0.00    -0.480 OA
ATOM     32  H   UNL     1      35.157 -26.898 -15.211  0.00  0.00    +0.295 HD
ENDBRANCH  30  31
ENDBRANCH  28  30
ENDBRANCH  23  28
ENDBRANCH  20  24
ENDBRANCH  19  20
ENDBRANCH   1  19
TORSDOF 8
ENDMDL
MODEL 3
REMARK VINA RESULT:     -12.6      1.729      2.598
REMARK  Name = 66000
REMARK  8 active torsions:
REMARK  status: ('A' for Active; 'I' for Inactive)
REMARK    1  A    between atoms: C_1  and  O_19
REMARK    2  A    between atoms: C_4  and  C_7
REMARK    3  A    between atoms: C_10  and  C_15
REMARK    4  A    between atoms: O_19  and  C_20
REMARK    5  A    between atoms: C_20  and  C_24
REMARK    6  A    between atoms: C_23  and  C_28
REMARK    7  A    between atoms: C_28  and  C_30
REMARK    8  A    between atoms: C_30  and  O_31
REMARK                            x       y       z     vdW  Elec       q    Type
REMARK                         _______ _______ _______ _____ _____    ______ ____
ROOT
ATOM      1  C   UNL     1      34.538 -21.765 -18.238  0.00  0.00    +0.139 C 
ATOM      2  C   UNL     1      33.296 -21.423 -18.760  0.00  0.00    +0.037 C 
ATOM      3  C   UNL     1      35.698 -21.169 -18.713  0.00  0.00    +0.037 C 
ATOM      4  C   UNL     1      34.375 -19.866 -20.258  0.00  0.00    +0.000 C 
ATOM      5  C   UNL     1      33.215 -20.470 -19.774  0.00  0.00    +0.003 C 
ATOM      6  C   UNL     1      35.617 -20.216 -19.728  0.00  0.00    +0.003 C 
ENDROOT
BRANCH   4   7
ATOM      7  C   UNL     1      34.291 -18.877 -21.311  0.00  0.00    +0.000 C 
ATOM      8  C   UNL     1      34.727 -17.572 -21.079  0.00  0.00    +0.000 C 
ATOM      9  C   UNL     1      33.776 -19.229 -22.559  0.00  0.00    +0.000 C 
ATOM     10  C   UNL     1      34.133 -16.971 -23.342  0.00  0.00    +0.031 C 
ATOM     11  C   UNL     1      34.647 -16.619 -22.095  0.00  0.00    +0.003 C 
ATOM     12  C   UNL     1      33.697 -18.275 -23.575  0.00  0.00    +0.003 C 
BRANCH  10  15
ATOM     13  N   UNL     1      34.997 -14.962 -24.520  0.00  0.00    -0.343 N 
ATOM     14  N   UNL     1      33.056 -16.024 -25.271  0.00  0.00    -0.285 NA
ATOM     15  C   UNL     1      34.049 -15.977 -24.401  0.00  0.00    +0.117 C 
ATOM     16  H   UNL     1      34.920 -14.300 -25.244  0.00  0.00    +0.144 HD
ATOM     17  H   UNL     1      35.742 -14.908 -23.880  0.00  0.00    +0.144 HD
ATOM     18  H   UNL     1      32.997 -15.352 -25.988  0.00  0.00    +0.188 HD
ENDBRANCH  10  15
ENDBRANCH   4   7
BRANCH   1  19
ATOM     19  O   UNL     1      34.617 -22.705 -17.239  0.00  0.00    -0.474 OA
BRANCH  19  20
ATOM     20  C   UNL     1      35.339 -22.345 -16.074  0.00  0.00    +0.225 C 
BRANCH  20  24
ATOM     21  O   UNL     1      38.541 -23.825 -13.462  0.00  0.00    -0.275 OA
ATOM     22  N   UNL     1      36.818 -23.997 -15.037  0.00  0.00    -0.302 N 
ATOM     23  C   UNL     1      36.350 -22.815 -13.072  0.00  0.00    +0.089 C 
ATOM     24  C   UNL     1      35.447 -23.566 -15.172  0.00  0.00    +0.116 C 
ATOM     25  C   UNL     1      35.045 -23.278 -13.729  0.00  0.00    +0.033 C 
ATOM     26  C   UNL     1      37.397 -23.608 -13.831  0.00  0.00    +0.223 C 
ATOM     27  H   UNL     1      37.295 -24.513 -15.726  0.00  0.00    +0.149 HD
BRANCH  23  28
ATOM     28  C   UNL     1      36.388 -23.069 -11.577  0.00  0.00    +0.118 C 
BRANCH  28  30
ATOM     29  O   UNL     1      36.501 -25.495 -11.372  0.00  0.00    -0.250 OA
ATOM     30  C   UNL     1      35.891 -24.448 -11.223  0.00  0.00    +0.314 C 
BRANCH  30  31
ATOM     31  O   UNL     1      34.639 -24.372 -10.700  0.00  0.00    -0.480 OA
ATOM     32  H   UNL     1      33.982 -23.860 -11.130  0.00  0.00    +0.295 HD
ENDBRANCH  30  31
ENDBRANCH  28  30
ENDBRANCH  23  28
ENDBRANCH  20  24
ENDBRANCH  19  20
ENDBRANCH   1  19
TORSDOF 8
ENDMDL
MODEL 4
REMARK VINA RESULT:     -12.1      1.418      1.998
REMARK  Name = 66000
REMARK  8 active torsions:
REMARK  status: ('A' for Active; 'I' for Inactive)
REMARK    1  A    between atoms: C_1  and  O_19
REMARK    2  A    between atoms: C_4  and  C_7
REMARK    3  A    between atoms: C_10  and  C_15
REMARK    4  A    between atoms: O_19  and  C_20
REMARK    5  A    between atoms: C_20  and  C_24
REMARK    6  A    between atoms: C_23  and  C_28
REMARK    7  A    between atoms: C_28  and  C_30
REMARK    8  A    between atoms: C_30  and  O_31
REMARK                            x       y       z     vdW  Elec       q    Type
REMARK                         _______ _______ _______ _____ _____    ______ ____
ROOT
ATOM      1  C   UNL     1      35.429 -21.018 -19.068  0.00  0.00    +0.139 C 
ATOM      2  C   UNL     1      36.437 -20.172 -19.515  0.00  0.00    +0.037 C 
ATOM      3  C   UNL     1      34.117 -20.848 -19.493  0.00  0.00    +0.037 C 
ATOM      4  C   UNL     1      34.814 -18.961 -20.831  0.00  0.00    +0.000 C 
ATOM      5  C   UNL     1      36.128 -19.140 -20.400  0.00  0.00    +0.003 C 
ATOM      6  C   UNL     1      33.808 -19.815 -20.378  0.00  0.00    +0.003 C 
ENDROOT
BRANCH   4   7
ATOM      7  C   UNL     1      34.493 -17.890 -21.749  0.00  0.00    +0.000 C 
ATOM      8  C   UNL     1      34.089 -18.184 -23.052  0.00  0.00    +0.000 C 
ATOM      9  C   UNL     1      34.585 -16.562 -21.331  0.00  0.00    +0.000 C 
ATOM     10  C   UNL     1      33.871 -15.824 -23.518  0.00  0.00    +0.031 C 
ATOM     11  C   UNL     1      33.778 -17.151 -23.936  0.00  0.00    +0.003 C 
ATOM     12  C   UNL     1      34.274 -15.529 -22.216  0.00  0.00    +0.003 C 
BRANCH  10  15
ATOM     13  N   UNL     1      33.736 -13.411 -24.092  0.00  0.00    -0.343 N 
ATOM     14  N   UNL     1      33.059 -15.029 -25.636  0.00  0.00    -0.285 NA
ATOM     15  C   UNL     1      33.547 -14.747 -24.441  0.00  0.00    +0.117 C 
ATOM     16  H   UNL     1      33.510 -12.699 -24.732  0.00  0.00    +0.144 HD
ATOM     17  H   UNL     1      34.096 -13.181 -23.206  0.00  0.00    +0.144 HD
ATOM     18  H   UNL     1      32.839 -14.302 -26.262  0.00  0.00    +0.188 HD
ENDBRANCH  10  15
ENDBRANCH   4   7
BRANCH   1  19
ATOM     19  O   UNL     1      35.733 -22.034 -18.196  0.00  0.00    -0.474 OA
BRANCH  19  20
ATOM     20  C   UNL     1      34.992 -22.091 -16.991  0.00  0.00    +0.225 C 
BRANCH  20  24
ATOM     21  O   UNL     1      35.801 -23.675 -12.977  0.00  0.00    -0.275 OA
ATOM     22  N   UNL     1      35.357 -22.019 -14.571  0.00  0.00    -0.302 N 
ATOM     23  C   UNL     1      37.101 -23.508 -15.040  0.00  0.00    +0.089 C 
ATOM     24  C   UNL     1      35.876 -21.602 -15.851  0.00  0.00    +0.116 C 
ATOM     25  C   UNL     1      37.266 -22.228 -15.867  0.00  0.00    +0.033 C 
ATOM     26  C   UNL     1      36.035 -23.112 -14.036  0.00  0.00    +0.223 C 
ATOM     27  H   UNL     1      34.602 -21.577 -14.121  0.00  0.00    +0.149 HD
BRANCH  23  28
ATOM     28  C   UNL     1      38.389 -23.966 -14.384  0.00  0.00    +0.118 C 
BRANCH  28  30
ATOM     29  O   UNL     1      38.221 -26.398 -14.385  0.00  0.00    -0.250 OA
ATOM     30  C   UNL     1      38.757 -25.374 -14.780  0.00  0.00    +0.314 C 
BRANCH  30  31
ATOM     31  O   UNL     1      39.791 -25.355 -15.661  0.00  0.00    -0.480 OA
ATOM     32  H   UNL     1      40.565 -24.866 -15.465  0.00  0.00    +0.295 HD
ENDBRANCH  30  31
ENDBRANCH  28  30
ENDBRANCH  23  28
ENDBRANCH  20  24
ENDBRANCH  19  20
ENDBRANCH   1  19
TORSDOF 8
ENDMDL
MODEL 5
REMARK VINA RESULT:     -11.9      3.159      5.281
REMARK  Name = 66000
REMARK  8 active torsions:
REMARK  status: ('A' for Active; 'I' for Inactive)
REMARK    1  A    between atoms: C_1  and  O_19
REMARK    2  A    between atoms: C_4  and  C_7
REMARK    3  A    between atoms: C_10  and  C_15
REMARK    4  A    between atoms: O_19  and  C_20
REMARK    5  A    between atoms: C_20  and  C_24
REMARK    6  A    between atoms: C_23  and  C_28
REMARK    7  A    between atoms: C_28  and  C_30
REMARK    8  A    between atoms: C_30  and  O_31
REMARK                            x       y       z     vdW  Elec       q    Type
REMARK                         _______ _______ _______ _____ _____    ______ ____
ROOT
ATOM      1  C   UNL     1      34.515 -21.762 -18.274  0.00  0.00    +0.139 C 
ATOM      2  C   UNL     1      33.275 -21.384 -18.776  0.00  0.00    +0.037 C 
ATOM      3  C   UNL     1      35.684 -21.194 -18.764  0.00  0.00    +0.037 C 
ATOM      4  C   UNL     1      34.373 -19.848 -20.282  0.00  0.00    +0.000 C 
ATOM      5  C   UNL     1      33.205 -20.423 -19.784  0.00  0.00    +0.003 C 
ATOM      6  C   UNL     1      35.613 -20.234 -19.773  0.00  0.00    +0.003 C 
ENDROOT
BRANCH   4   7
ATOM      7  C   UNL     1      34.300 -18.851 -21.329  0.00  0.00    +0.000 C 
ATOM      8  C   UNL     1      34.787 -17.564 -21.101  0.00  0.00    +0.000 C 
ATOM      9  C   UNL     1      33.745 -19.178 -22.566  0.00  0.00    +0.000 C 
ATOM     10  C   UNL     1      34.163 -16.931 -23.347  0.00  0.00    +0.031 C 
ATOM     11  C   UNL     1      34.718 -16.603 -22.111  0.00  0.00    +0.003 C 
ATOM     12  C   UNL     1      33.676 -18.218 -23.576  0.00  0.00    +0.003 C 
BRANCH  10  15
ATOM     13  N   UNL     1      34.988 -14.864 -24.451  0.00  0.00    -0.343 N 
ATOM     14  N   UNL     1      33.154 -16.017 -25.329  0.00  0.00    -0.285 NA
ATOM     15  C   UNL     1      34.090 -15.929 -24.399  0.00  0.00    +0.117 C 
ATOM     16  H   UNL     1      34.920 -14.198 -25.172  0.00  0.00    +0.144 HD
ATOM     17  H   UNL     1      35.690 -14.780 -23.767  0.00  0.00    +0.144 HD
ATOM     18  H   UNL     1      33.103 -15.340 -26.041  0.00  0.00    +0.188 HD
ENDBRANCH  10  15
ENDBRANCH   4   7
BRANCH   1  19
ATOM     19  O   UNL     1      34.584 -22.709 -17.282  0.00  0.00    -0.474 OA
BRANCH  19  20
ATOM     20  C   UNL     1      34.094 -22.339 -16.005  0.00  0.00    +0.225 C 
BRANCH  20  24
ATOM     21  O   UNL     1      31.265 -22.663 -12.664  0.00  0.00    -0.275 OA
ATOM     22  N   UNL     1      33.061 -23.320 -14.014  0.00  0.00    -0.302 N 
ATOM     23  C   UNL     1      31.056 -22.786 -15.096  0.00  0.00    +0.089 C 
ATOM     24  C   UNL     1      33.325 -23.516 -15.419  0.00  0.00    +0.116 C 
ATOM     25  C   UNL     1      31.925 -23.662 -16.005  0.00  0.00    +0.033 C 
ATOM     26  C   UNL     1      31.754 -22.912 -13.755  0.00  0.00    +0.223 C 
ATOM     27  H   UNL     1      33.734 -23.460 -13.311  0.00  0.00    +0.149 HD
BRANCH  23  28
ATOM     28  C   UNL     1      29.605 -23.229 -15.048  0.00  0.00    +0.118 C 
BRANCH  28  30
ATOM     29  O   UNL     1      28.431 -22.101 -16.861  0.00  0.00    -0.250 OA
ATOM     30  C   UNL     1      28.682 -22.212 -15.672  0.00  0.00    +0.314 C 
BRANCH  30  31
ATOM     31  O   UNL     1      28.149 -21.415 -14.710  0.00  0.00    -0.480 OA
ATOM     32  H   UNL     1      28.143 -21.698 -13.817  0.00  0.00    +0.295 HD
ENDBRANCH  30  31
ENDBRANCH  28  30
ENDBRANCH  23  28
ENDBRANCH  20  24
ENDBRANCH  19  20
ENDBRANCH   1  19
TORSDOF 8
ENDMDL
MODEL 6
REMARK VINA RESULT:     -11.8      4.055     10.942
REMARK  Name = 66000
REMARK  8 active torsions:
REMARK  status: ('A' for Active; 'I' for Inactive)
REMARK    1  A    between atoms: C_1  and  O_19
REMARK    2  A    between atoms: C_4  and  C_7
REMARK    3  A    between atoms: C_10  and  C_15
REMARK    4  A    between atoms: O_19  and  C_20
REMARK    5  A    between atoms: C_20  and  C_24
REMARK    6  A    between atoms: C_23  and  C_28
REMARK    7  A    between atoms: C_28  and  C_30
REMARK    8  A    between atoms: C_30  and  O_31
REMARK                            x       y       z     vdW  Elec       q    Type
REMARK                         _______ _______ _______ _____ _____    ______ ____
ROOT
ATOM      1  C   UNL     1      34.369 -20.974 -19.513  0.00  0.00    +0.139 C 
ATOM      2  C   UNL     1      33.418 -21.632 -18.742  0.00  0.00    +0.037 C 
ATOM      3  C   UNL     1      35.683 -20.861 -19.078  0.00  0.00    +0.037 C 
ATOM      4  C   UNL     1      35.106 -22.075 -17.071  0.00  0.00    +0.000 C 
ATOM      5  C   UNL     1      33.788 -22.184 -17.516  0.00  0.00    +0.003 C 
ATOM      6  C   UNL     1      36.053 -21.412 -17.852  0.00  0.00    +0.003 C 
ENDROOT
BRANCH   4   7
ATOM      7  C   UNL     1      35.490 -22.647 -15.799  0.00  0.00    +0.000 C 
ATOM      8  C   UNL     1      34.544 -23.314 -15.020  0.00  0.00    +0.000 C 
ATOM      9  C   UNL     1      36.807 -22.533 -15.352  0.00  0.00    +0.000 C 
ATOM     10  C   UNL     1      36.232 -23.753 -13.348  0.00  0.00    +0.031 C 
ATOM     11  C   UNL     1      34.915 -23.867 -13.794  0.00  0.00    +0.003 C 
ATOM     12  C   UNL     1      37.177 -23.086 -14.126  0.00  0.00    +0.003 C 
BRANCH  10  15
ATOM     13  N   UNL     1      37.585 -23.730 -11.265  0.00  0.00    -0.343 N 
ATOM     14  N   UNL     1      36.049 -25.447 -11.652  0.00  0.00    -0.285 NA
ATOM     15  C   UNL     1      36.618 -24.329 -12.069  0.00  0.00    +0.117 C 
ATOM     16  H   UNL     1      37.831 -24.138 -10.404  0.00  0.00    +0.144 HD
ATOM     17  H   UNL     1      38.023 -22.899 -11.560  0.00  0.00    +0.144 HD
ATOM     18  H   UNL     1      36.308 -25.839 -10.788  0.00  0.00    +0.188 HD
ENDBRANCH  10  15
ENDBRANCH   4   7
BRANCH   1  19
ATOM     19  O   UNL     1      34.004 -20.430 -20.720  0.00  0.00    -0.474 OA
BRANCH  19  20
ATOM     20  C   UNL     1      34.161 -19.030 -20.867  0.00  0.00    +0.225 C 
BRANCH  20  24
ATOM     21  O   UNL     1      33.066 -17.855 -24.953  0.00  0.00    -0.275 OA
ATOM     22  N   UNL     1      34.236 -19.048 -23.314  0.00  0.00    -0.302 N 
ATOM     23  C   UNL     1      34.163 -16.720 -23.087  0.00  0.00    +0.089 C 
ATOM     24  C   UNL     1      34.989 -18.761 -22.117  0.00  0.00    +0.116 C 
ATOM     25  C   UNL     1      35.343 -17.288 -22.290  0.00  0.00    +0.033 C 
ATOM     26  C   UNL     1      33.742 -17.904 -23.937  0.00  0.00    +0.223 C 
ATOM     27  H   UNL     1      34.087 -19.959 -23.656  0.00  0.00    +0.149 HD
BRANCH  23  28
ATOM     28  C   UNL     1      34.530 -15.502 -23.913  0.00  0.00    +0.118 C 
BRANCH  28  30
ATOM     29  O   UNL     1      32.749 -13.872 -23.585  0.00  0.00    -0.250 OA
ATOM     30  C   UNL     1      33.319 -14.688 -24.292  0.00  0.00    +0.314 C 
BRANCH  30  31
ATOM     31  O   UNL     1      32.934 -14.989 -25.559  0.00  0.00    -0.480 OA
ATOM     32  H   UNL     1      32.097 -15.382 -25.714  0.00  0.00    +0.295 HD
ENDBRANCH  30  31
ENDBRANCH  28  30
ENDBRANCH  23  28
ENDBRANCH  20  24
ENDBRANCH  19  20
ENDBRANCH   1  19
TORSDOF 8
ENDMDL
MODEL 7
REMARK VINA RESULT:     -11.7      4.724     11.097
REMARK  Name = 66000
REMARK  8 active torsions:
REMARK  status: ('A' for Active; 'I' for Inactive)
REMARK    1  A    between atoms: C_1  and  O_19
REMARK    2  A    between atoms: C_4  and  C_7
REMARK    3  A    between atoms: C_10  and  C_15
REMARK    4  A    between atoms: O_19  and  C_20
REMARK    5  A    between atoms: C_20  and  C_24
REMARK    6  A    between atoms: C_23  and  C_28
REMARK    7  A    between atoms: C_28  and  C_30
REMARK    8  A    between atoms: C_30  and  O_31
REMARK                            x       y       z     vdW  Elec       q    Type
REMARK                         _______ _______ _______ _____ _____    ______ ____
ROOT
ATOM      1  C   UNL     1      34.188 -20.205 -20.625  0.00  0.00    +0.139 C 
ATOM      2  C   UNL     1      32.842 -20.201 -20.279  0.00  0.00    +0.037 C 
ATOM      3  C   UNL     1      35.121 -20.877 -19.846  0.00  0.00    +0.037 C 
ATOM      4  C   UNL     1      33.353 -21.558 -18.347  0.00  0.00    +0.000 C 
ATOM      5  C   UNL     1      32.423 -20.880 -19.135  0.00  0.00    +0.003 C 
ATOM      6  C   UNL     1      34.702 -21.556 -18.702  0.00  0.00    +0.003 C 
ENDROOT
BRANCH   4   7
ATOM      7  C   UNL     1      32.920 -22.262 -17.160  0.00  0.00    +0.000 C 
ATOM      8  C   UNL     1      31.559 -22.451 -16.919  0.00  0.00    +0.000 C 
ATOM      9  C   UNL     1      33.862 -22.753 -16.256  0.00  0.00    +0.000 C 
ATOM     10  C   UNL     1      32.083 -23.622 -14.872  0.00  0.00    +0.031 C 
ATOM     11  C   UNL     1      31.140 -23.131 -15.775  0.00  0.00    +0.003 C 
ATOM     12  C   UNL     1      33.444 -23.433 -15.112  0.00  0.00    +0.003 C 
BRANCH  10  15
ATOM     13  N   UNL     1      30.330 -24.764 -13.533  0.00  0.00    -0.343 N 
ATOM     14  N   UNL     1      32.507 -24.570 -12.704  0.00  0.00    -0.285 NA
ATOM     15  C   UNL     1      31.647 -24.330 -13.679  0.00  0.00    +0.117 C 
ATOM     16  H   UNL     1      30.057 -25.241 -12.716  0.00  0.00    +0.144 HD
ATOM     17  H   UNL     1      29.674 -24.592 -14.246  0.00  0.00    +0.144 HD
ATOM     18  H   UNL     1      32.214 -25.049 -11.896  0.00  0.00    +0.188 HD
ENDBRANCH  10  15
ENDBRANCH   4   7
BRANCH   1  19
ATOM     19  O   UNL     1      34.599 -19.535 -21.751  0.00  0.00    -0.474 OA
BRANCH  19  20
ATOM     20  C   UNL     1      33.898 -18.351 -22.087  0.00  0.00    +0.225 C 
BRANCH  20  24
ATOM     21  O   UNL     1      33.470 -15.479 -25.379  0.00  0.00    -0.275 OA
ATOM     22  N   UNL     1      34.534 -17.138 -24.117  0.00  0.00    -0.302 N 
ATOM     23  C   UNL     1      33.724 -15.274 -22.957  0.00  0.00    +0.089 C 
ATOM     24  C   UNL     1      34.872 -17.375 -22.734  0.00  0.00    +0.116 C 
ATOM     25  C   UNL     1      34.804 -15.978 -22.129  0.00  0.00    +0.033 C 
ATOM     26  C   UNL     1      33.879 -15.925 -24.318  0.00  0.00    +0.223 C 
ATOM     27  H   UNL     1      34.744 -17.768 -24.843  0.00  0.00    +0.149 HD
BRANCH  23  28
ATOM     28  C   UNL     1      33.892 -13.767 -23.002  0.00  0.00    +0.118 C 
BRANCH  28  30
ATOM     29  O   UNL     1      31.950 -12.505 -22.244  0.00  0.00    -0.250 OA
ATOM     30  C   UNL     1      32.572 -13.053 -23.141  0.00  0.00    +0.314 C 
BRANCH  30  31
ATOM     31  O   UNL     1      32.151 -13.097 -24.432  0.00  0.00    -0.480 OA
ATOM     32  H   UNL     1      31.463 -13.681 -24.681  0.00  0.00    +0.295 HD
ENDBRANCH  30  31
ENDBRANCH  28  30
ENDBRANCH  23  28
ENDBRANCH  20  24
ENDBRANCH  19  20
ENDBRANCH   1  19
TORSDOF 8
ENDMDL
MODEL 8
REMARK VINA RESULT:     -11.6      3.186      4.492
REMARK  Name = 66000
REMARK  8 active torsions:
REMARK  status: ('A' for Active; 'I' for Inactive)
REMARK    1  A    between atoms: C_1  and  O_19
REMARK    2  A    between atoms: C_4  and  C_7
REMARK    3  A    between atoms: C_10  and  C_15
REMARK    4  A    between atoms: O_19  and  C_20
REMARK    5  A    between atoms: C_20  and  C_24
REMARK    6  A    between atoms: C_23  and  C_28
REMARK    7  A    between atoms: C_28  and  C_30
REMARK    8  A    between atoms: C_30  and  O_31
REMARK                            x       y       z     vdW  Elec       q    Type
REMARK                         _______ _______ _______ _____ _____    ______ ____
ROOT
ATOM      1  C   UNL     1      34.778 -21.544 -18.725  0.00  0.00    +0.139 C 
ATOM      2  C   UNL     1      35.910 -20.887 -19.192  0.00  0.00    +0.037 C 
ATOM      3  C   UNL     1      33.511 -21.174 -19.157  0.00  0.00    +0.037 C 
ATOM      4  C   UNL     1      34.504 -19.463 -20.544  0.00  0.00    +0.000 C 
ATOM      5  C   UNL     1      35.772 -19.842 -20.105  0.00  0.00    +0.003 C 
ATOM      6  C   UNL     1      33.373 -20.128 -20.070  0.00  0.00    +0.003 C 
ENDROOT
BRANCH   4   7
ATOM      7  C   UNL     1      34.360 -18.378 -21.491  0.00  0.00    +0.000 C 
ATOM      8  C   UNL     1      34.644 -17.070 -21.101  0.00  0.00    +0.000 C 
ATOM      9  C   UNL     1      33.938 -18.641 -22.795  0.00  0.00    +0.000 C 
ATOM     10  C   UNL     1      34.085 -16.287 -23.317  0.00  0.00    +0.031 C 
ATOM     11  C   UNL     1      34.506 -16.024 -22.014  0.00  0.00    +0.003 C 
ATOM     12  C   UNL     1      33.801 -17.595 -23.708  0.00  0.00    +0.003 C 
BRANCH  10  15
ATOM     13  N   UNL     1      34.102 -13.868 -23.880  0.00  0.00    -0.343 N 
ATOM     14  N   UNL     1      33.648 -15.459 -25.531  0.00  0.00    -0.285 NA
ATOM     15  C   UNL     1      33.941 -15.197 -24.269  0.00  0.00    +0.117 C 
ATOM     16  H   UNL     1      33.999 -13.146 -24.541  0.00  0.00    +0.144 HD
ATOM     17  H   UNL     1      34.317 -13.652 -22.945  0.00  0.00    +0.144 HD
ATOM     18  H   UNL     1      33.549 -14.723 -26.177  0.00  0.00    +0.188 HD
ENDBRANCH  10  15
ENDBRANCH   4   7
BRANCH   1  19
ATOM     19  O   UNL     1      34.915 -22.573 -17.826  0.00  0.00    -0.474 OA
BRANCH  19  20
ATOM     20  C   UNL     1      34.467 -22.333 -16.503  0.00  0.00    +0.225 C 
BRANCH  20  24
ATOM     21  O   UNL     1      33.003 -23.717 -12.602  0.00  0.00    -0.275 OA
ATOM     22  N   UNL     1      33.829 -23.951 -14.779  0.00  0.00    -0.302 N 
ATOM     23  C   UNL     1      31.986 -22.539 -14.487  0.00  0.00    +0.089 C 
ATOM     24  C   UNL     1      33.519 -23.455 -16.099  0.00  0.00    +0.116 C 
ATOM     25  C   UNL     1      32.075 -22.989 -15.949  0.00  0.00    +0.033 C 
ATOM     26  C   UNL     1      32.965 -23.471 -13.798  0.00  0.00    +0.223 C 
ATOM     27  H   UNL     1      34.574 -24.567 -14.592  0.00  0.00    +0.149 HD
BRANCH  23  28
ATOM     28  C   UNL     1      30.583 -22.631 -13.917  0.00  0.00    +0.118 C 
BRANCH  28  30
ATOM     29  O   UNL     1      30.106 -25.021 -13.971  0.00  0.00    -0.250 OA
ATOM     30  C   UNL     1      29.874 -23.887 -14.360  0.00  0.00    +0.314 C 
BRANCH  30  31
ATOM     31  O   UNL     1      28.915 -23.583 -15.272  0.00  0.00    -0.480 OA
ATOM     32  H   UNL     1      28.193 -23.037 -15.029  0.00  0.00    +0.295 HD
ENDBRANCH  30  31
ENDBRANCH  28  30
ENDBRANCH  23  28
ENDBRANCH  20  24
ENDBRANCH  19  20
ENDBRANCH   1  19
TORSDOF 8
ENDMDL
MODEL 9
REMARK VINA RESULT:     -11.3      5.490      9.043
REMARK  Name = 66000
REMARK  8 active torsions:
REMARK  status: ('A' for Active; 'I' for Inactive)
REMARK    1  A    between atoms: C_1  and  O_19
REMARK    2  A    between atoms: C_4  and  C_7
REMARK    3  A    between atoms: C_10  and  C_15
REMARK    4  A    between atoms: O_19  and  C_20
REMARK    5  A    between atoms: C_20  and  C_24
REMARK    6  A    between atoms: C_23  and  C_28
REMARK    7  A    between atoms: C_28  and  C_30
REMARK    8  A    between atoms: C_30  and  O_31
REMARK                            x       y       z     vdW  Elec       q    Type
REMARK                         _______ _______ _______ _____ _____    ______ ____
ROOT
ATOM      1  C   UNL     1      34.081 -14.991 -22.190  0.00  0.00    +0.139 C 
ATOM      2  C   UNL     1      33.847 -14.406 -23.429  0.00  0.00    +0.037 C 
ATOM      3  C   UNL     1      33.765 -14.320 -21.016  0.00  0.00    +0.037 C 
ATOM      4  C   UNL     1      32.971 -12.448 -22.320  0.00  0.00    +0.000 C 
ATOM      5  C   UNL     1      33.290 -13.130 -23.494  0.00  0.00    +0.003 C 
ATOM      6  C   UNL     1      33.209 -13.042 -21.081  0.00  0.00    +0.003 C 
ENDROOT
BRANCH   4   7
ATOM      7  C   UNL     1      32.393 -11.123 -22.387  0.00  0.00    +0.000 C 
ATOM      8  C   UNL     1      32.918 -10.177 -23.268  0.00  0.00    +0.000 C 
ATOM      9  C   UNL     1      31.311 -10.791 -21.572  0.00  0.00    +0.000 C 
ATOM     10  C   UNL     1      31.278  -8.569 -22.519  0.00  0.00    +0.031 C 
ATOM     11  C   UNL     1      32.360  -8.900 -23.334  0.00  0.00    +0.003 C 
ATOM     12  C   UNL     1      30.753  -9.514 -21.638  0.00  0.00    +0.003 C 
BRANCH  10  15
ATOM     13  N   UNL     1      30.784  -6.352 -21.514  0.00  0.00    -0.343 N 
ATOM     14  N   UNL     1      30.068  -6.849 -23.683  0.00  0.00    -0.285 NA
ATOM     15  C   UNL     1      30.697  -7.237 -22.587  0.00  0.00    +0.117 C 
ATOM     16  H   UNL     1      30.383  -5.456 -21.583  0.00  0.00    +0.144 HD
ATOM     17  H   UNL     1      31.245  -6.624 -20.689  0.00  0.00    +0.144 HD
ATOM     18  H   UNL     1      29.675  -5.948 -23.731  0.00  0.00    +0.188 HD
ENDBRANCH  10  15
ENDBRANCH   4   7
BRANCH   1  19
ATOM     19  O   UNL     1      34.630 -16.248 -22.127  0.00  0.00    -0.474 OA
BRANCH  19  20
ATOM     20  C   UNL     1      34.244 -17.170 -23.131  0.00  0.00    +0.225 C 
BRANCH  20  24
ATOM     21  O   UNL     1      36.708 -18.681 -19.827  0.00  0.00    -0.275 OA
ATOM     22  N   UNL     1      36.164 -18.249 -22.062  0.00  0.00    -0.302 N 
ATOM     23  C   UNL     1      34.532 -19.297 -20.753  0.00  0.00    +0.089 C 
ATOM     24  C   UNL     1      35.043 -18.453 -22.947  0.00  0.00    +0.116 C 
ATOM     25  C   UNL     1      34.254 -19.549 -22.239  0.00  0.00    +0.033 C 
ATOM     26  C   UNL     1      35.939 -18.732 -20.775  0.00  0.00    +0.223 C 
ATOM     27  H   UNL     1      37.002 -17.813 -22.339  0.00  0.00    +0.149 HD
BRANCH  23  28
ATOM     28  C   UNL     1      34.411 -20.547 -19.902  0.00  0.00    +0.118 C 
BRANCH  28  30
ATOM     29  O   UNL     1      32.023 -20.133 -19.652  0.00  0.00    -0.250 OA
ATOM     30  C   UNL     1      32.974 -20.898 -19.612  0.00  0.00    +0.314 C 
BRANCH  30  31
ATOM     31  O   UNL     1      32.871 -22.214 -19.292  0.00  0.00    -0.480 OA
ATOM     32  H   UNL     1      32.653 -22.841 -19.953  0.00  0.00    +0.295 HD
ENDBRANCH  30  31
ENDBRANCH  28  30
ENDBRANCH  23  28
ENDBRANCH  20  24
ENDBRANCH  19  20
ENDBRANCH   1  19
TORSDOF 8
ENDMDL
