MODEL 1
REMARK VINA RESULT:     -11.5      0.000      0.000
REMARK  Name = 446744
REMARK  2 active torsions:
REMARK  status: ('A' for Active; 'I' for Inactive)
REMARK    1  A    between atoms: C_1  and  C_8
REMARK    2  A    between atoms: C_1  and  N_18
REMARK                            x       y       z     vdW  Elec       q    Type
REMARK                         _______ _______ _______ _____ _____    ______ ____
ROOT
ATOM      1  C   UNL     1      33.777 -23.774 -13.732  0.00  0.00    +0.152 C 
ENDROOT
BRANCH   1   8
ATOM      2  N   UNL     1      36.124 -24.102 -13.221  0.00  0.00    -0.392 NA
ATOM      3  N   UNL     1      36.366 -26.031 -15.191  0.00  0.00    -0.200 NA
ATOM      4  N   UNL     1      38.604 -26.308 -14.665  0.00  0.00    -0.271 NA
ATOM      5  N   UNL     1      39.629 -25.024 -12.918  0.00  0.00    -0.310 NA
ATOM      6  N   UNL     1      38.339 -23.452 -11.713  0.00  0.00    -0.329 N 
ATOM      7  N   UNL     1      40.873 -26.591 -14.134  0.00  0.00    -0.283 N 
ATOM      8  C   UNL     1      35.082 -24.457 -13.982  0.00  0.00    +0.133 C 
ATOM      9  C   UNL     1      35.196 -25.408 -14.954  0.00  0.00    +0.193 C 
ATOM     10  C   UNL     1      37.294 -24.727 -13.458  0.00  0.00    +0.248 C 
ATOM     11  C   UNL     1      37.431 -25.701 -14.448  0.00  0.00    +0.131 C 
ATOM     12  C   UNL     1      38.432 -24.438 -12.731  0.00  0.00    +0.231 C 
ATOM     13  C   UNL     1      39.643 -25.941 -13.891  0.00  0.00    +0.207 C 
ATOM     14  H   UNL     1      39.132 -23.223 -11.177  0.00  0.00    +0.145 HD
ATOM     15  H   UNL     1      37.482 -22.999 -11.544  0.00  0.00    +0.145 HD
ATOM     16  H   UNL     1      40.938 -27.274 -14.839  0.00  0.00    +0.156 HD
ATOM     17  H   UNL     1      41.665 -26.360 -13.597  0.00  0.00    +0.156 HD
ENDBRANCH   1   8
BRANCH   1  18
ATOM     18  N   UNL     1      33.387 -23.020 -14.932  0.00  0.00    -0.280 N 
ATOM     19  C   UNL     1      34.435 -22.390 -15.649  0.00  0.00    +0.052 C 
ATOM     20  C   UNL     1      32.002 -22.763 -15.094  0.00  0.00    +0.052 C 
ATOM     21  C   UNL     1      34.402 -22.219 -17.048  0.00  0.00    +0.014 C 
ATOM     22  C   UNL     1      31.388 -22.683 -16.360  0.00  0.00    +0.014 C 
ATOM     23  C   UNL     1      33.362 -22.780 -17.917  0.00  0.00    +0.001 C 
ATOM     24  C   UNL     1      32.073 -22.978 -17.624  0.00  0.00    +0.001 C 
ATOM     25  C   UNL     1      35.559 -21.876 -14.958  0.00  0.00    +0.015 C 
ATOM     26  C   UNL     1      31.182 -22.548 -13.959  0.00  0.00    +0.015 C 
ATOM     27  C   UNL     1      35.470 -21.571 -17.702  0.00  0.00    +0.001 C 
ATOM     28  C   UNL     1      30.007 -22.410 -16.455  0.00  0.00    +0.001 C 
ATOM     29  C   UNL     1      36.604 -21.227 -15.618  0.00  0.00    +0.001 C 
ATOM     30  C   UNL     1      29.819 -22.269 -14.069  0.00  0.00    +0.001 C 
ATOM     31  C   UNL     1      36.559 -21.073 -16.993  0.00  0.00    +0.000 C 
ATOM     32  C   UNL     1      29.230 -22.199 -15.320  0.00  0.00    +0.000 C 
ENDBRANCH   1  18
TORSDOF 2
ENDMDL
MODEL 2
REMARK VINA RESULT:      -9.9     14.999     17.505
REMARK  Name = 446744
REMARK  2 active torsions:
REMARK  status: ('A' for Active; 'I' for Inactive)
REMARK    1  A    between atoms: C_1  and  C_8
REMARK    2  A    between atoms: C_1  and  N_18
REMARK                            x       y       z     vdW  Elec       q    Type
REMARK                         _______ _______ _______ _____ _____    ______ ____
ROOT
ATOM      1  C   UNL     1      30.522  -8.278 -23.226  0.00  0.00    +0.152 C 
ENDROOT
BRANCH   1   8
ATOM      2  N   UNL     1      31.948 -10.237 -23.138  0.00  0.00    -0.392 NA
ATOM      3  N   UNL     1      30.794 -11.071 -20.766  0.00  0.00    -0.200 NA
ATOM      4  N   UNL     1      32.178 -12.927 -20.727  0.00  0.00    -0.271 NA
ATOM      5  N   UNL     1      33.782 -13.305 -22.470  0.00  0.00    -0.310 NA
ATOM      6  N   UNL     1      33.954 -11.765 -24.253  0.00  0.00    -0.329 N 
ATOM      7  N   UNL     1      33.581 -14.808 -20.686  0.00  0.00    -0.283 N 
ATOM      8  C   UNL     1      30.971  -9.534 -22.553  0.00  0.00    +0.133 C 
ATOM      9  C   UNL     1      30.399  -9.942 -21.383  0.00  0.00    +0.193 C 
ATOM     10  C   UNL     1      32.342 -11.367 -22.520  0.00  0.00    +0.248 C 
ATOM     11  C   UNL     1      31.769 -11.800 -21.323  0.00  0.00    +0.131 C 
ATOM     12  C   UNL     1      33.343 -12.167 -23.037  0.00  0.00    +0.231 C 
ATOM     13  C   UNL     1      33.162 -13.623 -21.328  0.00  0.00    +0.207 C 
ATOM     14  H   UNL     1      34.671 -12.312 -24.648  0.00  0.00    +0.145 HD
ATOM     15  H   UNL     1      33.663 -10.938 -24.701  0.00  0.00    +0.145 HD
ATOM     16  H   UNL     1      33.157 -15.088 -19.843  0.00  0.00    +0.156 HD
ATOM     17  H   UNL     1      34.297 -15.356 -21.082  0.00  0.00    +0.156 HD
ENDBRANCH   1   8
BRANCH   1  18
ATOM     18  N   UNL     1      31.588  -7.271 -23.133  0.00  0.00    -0.280 N 
ATOM     19  C   UNL     1      31.791  -6.683 -21.860  0.00  0.00    +0.052 C 
ATOM     20  C   UNL     1      32.111  -6.789 -24.361  0.00  0.00    +0.052 C 
ATOM     21  C   UNL     1      33.060  -6.260 -21.412  0.00  0.00    +0.014 C 
ATOM     22  C   UNL     1      33.455  -6.393 -24.511  0.00  0.00    +0.014 C 
ATOM     23  C   UNL     1      34.308  -6.497 -22.145  0.00  0.00    +0.001 C 
ATOM     24  C   UNL     1      34.478  -6.553 -23.471  0.00  0.00    +0.001 C 
ATOM     25  C   UNL     1      30.693  -6.472 -20.992  0.00  0.00    +0.015 C 
ATOM     26  C   UNL     1      31.266  -6.665 -25.491  0.00  0.00    +0.015 C 
ATOM     27  C   UNL     1      33.194  -5.668 -20.139  0.00  0.00    +0.001 C 
ATOM     28  C   UNL     1      33.910  -5.909 -25.755  0.00  0.00    +0.001 C 
ATOM     29  C   UNL     1      30.839  -5.876 -19.738  0.00  0.00    +0.001 C 
ATOM     30  C   UNL     1      31.728  -6.175 -26.713  0.00  0.00    +0.001 C 
ATOM     31  C   UNL     1      32.093  -5.471 -19.312  0.00  0.00    +0.000 C 
ATOM     32  C   UNL     1      33.053  -5.794 -26.845  0.00  0.00    +0.000 C 
ENDBRANCH   1  18
TORSDOF 2
ENDMDL
MODEL 3
REMARK VINA RESULT:      -9.3     14.419     16.811
REMARK  Name = 446744
REMARK  2 active torsions:
REMARK  status: ('A' for Active; 'I' for Inactive)
REMARK    1  A    between atoms: C_1  and  C_8
REMARK    2  A    between atoms: C_1  and  N_18
REMARK                            x       y       z     vdW  Elec       q    Type
REMARK                         _______ _______ _______ _____ _____    ______ ____
ROOT
ATOM      1  C   UNL     1      30.813  -9.151 -22.620  0.00  0.00    +0.152 C 
ENDROOT
BRANCH   1   8
ATOM      2  N   UNL     1      31.641 -11.303 -21.868  0.00  0.00    -0.392 NA
ATOM      3  N   UNL     1      33.371 -11.480 -24.019  0.00  0.00    -0.200 NA
ATOM      4  N   UNL     1      34.130 -13.531 -23.260  0.00  0.00    -0.271 NA
ATOM      5  N   UNL     1      33.251 -14.504 -21.251  0.00  0.00    -0.310 NA
ATOM      6  N   UNL     1      31.588 -13.355 -20.028  0.00  0.00    -0.329 N 
ATOM      7  N   UNL     1      34.900 -15.611 -22.492  0.00  0.00    -0.283 N 
ATOM      8  C   UNL     1      31.708 -10.336 -22.791  0.00  0.00    +0.133 C 
ATOM      9  C   UNL     1      32.559 -10.419 -23.854  0.00  0.00    +0.193 C 
ATOM     10  C   UNL     1      32.454 -12.363 -22.035  0.00  0.00    +0.248 C 
ATOM     11  C   UNL     1      33.332 -12.467 -23.115  0.00  0.00    +0.131 C 
ATOM     12  C   UNL     1      32.465 -13.417 -21.142  0.00  0.00    +0.231 C 
ATOM     13  C   UNL     1      34.051 -14.496 -22.323  0.00  0.00    +0.207 C 
ATOM     14  H   UNL     1      31.571 -14.090 -19.373  0.00  0.00    +0.145 HD
ATOM     15  H   UNL     1      30.996 -12.578 -19.910  0.00  0.00    +0.145 HD
ATOM     16  H   UNL     1      35.508 -15.655 -23.264  0.00  0.00    +0.156 HD
ATOM     17  H   UNL     1      34.883 -16.345 -21.836  0.00  0.00    +0.156 HD
ENDBRANCH   1   8
BRANCH   1  18
ATOM     18  N   UNL     1      31.616  -7.923 -22.690  0.00  0.00    -0.280 N 
ATOM     19  C   UNL     1      31.910  -7.290 -21.457  0.00  0.00    +0.052 C 
ATOM     20  C   UNL     1      31.776  -7.346 -23.976  0.00  0.00    +0.052 C 
ATOM     21  C   UNL     1      33.108  -6.579 -21.235  0.00  0.00    +0.014 C 
ATOM     22  C   UNL     1      32.941  -6.649 -24.356  0.00  0.00    +0.014 C 
ATOM     23  C   UNL     1      34.218  -6.526 -22.191  0.00  0.00    +0.001 C 
ATOM     24  C   UNL     1      34.148  -6.555 -23.526  0.00  0.00    +0.001 C 
ATOM     25  C   UNL     1      30.973  -7.332 -20.396  0.00  0.00    +0.015 C 
ATOM     26  C   UNL     1      30.732  -7.433 -24.928  0.00  0.00    +0.015 C 
ATOM     27  C   UNL     1      33.335  -5.959 -19.989  0.00  0.00    +0.001 C 
ATOM     28  C   UNL     1      33.034  -6.086 -25.645  0.00  0.00    +0.001 C 
ATOM     29  C   UNL     1      31.208  -6.704 -19.172  0.00  0.00    +0.001 C 
ATOM     30  C   UNL     1      30.833  -6.862 -26.197  0.00  0.00    +0.001 C 
ATOM     31  C   UNL     1      32.391  -6.015 -18.968  0.00  0.00    +0.000 C 
ATOM     32  C   UNL     1      31.987  -6.185 -26.556  0.00  0.00    +0.000 C 
ENDBRANCH   1  18
TORSDOF 2
ENDMDL
MODEL 4
REMARK VINA RESULT:      -9.3      1.477      3.769
REMARK  Name = 446744
REMARK  2 active torsions:
REMARK  status: ('A' for Active; 'I' for Inactive)
REMARK    1  A    between atoms: C_1  and  C_8
REMARK    2  A    between atoms: C_1  and  N_18
REMARK                            x       y       z     vdW  Elec       q    Type
REMARK                         _______ _______ _______ _____ _____    ______ ____
ROOT
ATOM      1  C   UNL     1      34.858 -21.489 -14.775  0.00  0.00    +0.152 C 
ENDROOT
BRANCH   1   8
ATOM      2  N   UNL     1      36.137 -23.401 -14.009  0.00  0.00    -0.392 NA
ATOM      3  N   UNL     1      38.275 -22.722 -15.629  0.00  0.00    -0.200 NA
ATOM      4  N   UNL     1      39.456 -24.562 -14.866  0.00  0.00    -0.271 NA
ATOM      5  N   UNL     1      38.502 -26.057 -13.251  0.00  0.00    -0.310 NA
ATOM      6  N   UNL     1      36.326 -25.650 -12.425  0.00  0.00    -0.329 N 
ATOM      7  N   UNL     1      40.654 -26.427 -14.094  0.00  0.00    -0.283 N 
ATOM      8  C   UNL     1      36.099 -22.320 -14.798  0.00  0.00    +0.133 C 
ATOM      9  C   UNL     1      37.151 -21.982 -15.599  0.00  0.00    +0.193 C 
ATOM     10  C   UNL     1      37.262 -24.141 -14.040  0.00  0.00    +0.248 C 
ATOM     11  C   UNL     1      38.348 -23.811 -14.852  0.00  0.00    +0.131 C 
ATOM     12  C   UNL     1      37.406 -25.276 -13.267  0.00  0.00    +0.231 C 
ATOM     13  C   UNL     1      39.479 -25.646 -14.067  0.00  0.00    +0.207 C 
ATOM     14  H   UNL     1      36.396 -26.454 -11.862  0.00  0.00    +0.145 HD
ATOM     15  H   UNL     1      35.506 -25.106 -12.406  0.00  0.00    +0.145 HD
ATOM     16  H   UNL     1      41.404 -26.168 -14.677  0.00  0.00    +0.156 HD
ATOM     17  H   UNL     1      40.725 -27.230 -13.530  0.00  0.00    +0.156 HD
ENDBRANCH   1   8
BRANCH   1  18
ATOM     18  N   UNL     1      33.847 -22.104 -15.646  0.00  0.00    -0.280 N 
ATOM     19  C   UNL     1      32.954 -23.015 -15.030  0.00  0.00    +0.052 C 
ATOM     20  C   UNL     1      34.037 -21.947 -17.043  0.00  0.00    +0.052 C 
ATOM     21  C   UNL     1      31.619 -23.177 -15.457  0.00  0.00    +0.014 C 
ATOM     22  C   UNL     1      32.963 -21.853 -17.950  0.00  0.00    +0.014 C 
ATOM     23  C   UNL     1      30.980 -22.343 -16.480  0.00  0.00    +0.001 C 
ATOM     24  C   UNL     1      31.554 -21.777 -17.547  0.00  0.00    +0.001 C 
ATOM     25  C   UNL     1      33.396 -23.830 -13.960  0.00  0.00    +0.015 C 
ATOM     26  C   UNL     1      35.347 -21.908 -17.581  0.00  0.00    +0.015 C 
ATOM     27  C   UNL     1      30.783 -24.111 -14.811  0.00  0.00    +0.001 C 
ATOM     28  C   UNL     1      33.218 -21.712 -19.330  0.00  0.00    +0.001 C 
ATOM     29  C   UNL     1      32.561 -24.758 -13.337  0.00  0.00    +0.001 C 
ATOM     30  C   UNL     1      35.585 -21.779 -18.950  0.00  0.00    +0.001 C 
ATOM     31  C   UNL     1      31.252 -24.900 -13.764  0.00  0.00    +0.000 C 
ATOM     32  C   UNL     1      34.517 -21.682 -19.827  0.00  0.00    +0.000 C 
ENDBRANCH   1  18
TORSDOF 2
ENDMDL
MODEL 5
REMARK VINA RESULT:      -9.1      3.491      7.257
REMARK  Name = 446744
REMARK  2 active torsions:
REMARK  status: ('A' for Active; 'I' for Inactive)
REMARK    1  A    between atoms: C_1  and  C_8
REMARK    2  A    between atoms: C_1  and  N_18
REMARK                            x       y       z     vdW  Elec       q    Type
REMARK                         _______ _______ _______ _____ _____    ______ ____
ROOT
ATOM      1  C   UNL     1      33.048 -23.568 -17.606  0.00  0.00    +0.152 C 
ENDROOT
BRANCH   1   8
ATOM      2  N   UNL     1      34.328 -21.914 -18.832  0.00  0.00    -0.392 NA
ATOM      3  N   UNL     1      32.033 -20.531 -19.522  0.00  0.00    -0.200 NA
ATOM      4  N   UNL     1      33.300 -18.977 -20.681  0.00  0.00    -0.271 NA
ATOM      5  N   UNL     1      35.688 -19.169 -20.791  0.00  0.00    -0.310 NA
ATOM      6  N   UNL     1      36.767 -20.968 -19.704  0.00  0.00    -0.329 N 
ATOM      7  N   UNL     1      34.582 -17.401 -21.856  0.00  0.00    -0.283 N 
ATOM      8  C   UNL     1      33.118 -22.328 -18.437  0.00  0.00    +0.133 C 
ATOM      9  C   UNL     1      31.984 -21.649 -18.775  0.00  0.00    +0.193 C 
ATOM     10  C   UNL     1      34.376 -20.795 -19.580  0.00  0.00    +0.248 C 
ATOM     11  C   UNL     1      33.227 -20.087 -19.936  0.00  0.00    +0.131 C 
ATOM     12  C   UNL     1      35.572 -20.280 -20.042  0.00  0.00    +0.231 C 
ATOM     13  C   UNL     1      34.524 -18.573 -21.071  0.00  0.00    +0.207 C 
ATOM     14  H   UNL     1      37.636 -20.628 -20.018  0.00  0.00    +0.145 HD
ATOM     15  H   UNL     1      36.727 -21.785 -19.157  0.00  0.00    +0.145 HD
ATOM     16  H   UNL     1      33.754 -16.923 -22.090  0.00  0.00    +0.156 HD
ATOM     17  H   UNL     1      35.452 -17.061 -22.168  0.00  0.00    +0.156 HD
ENDBRANCH   1   8
BRANCH   1  18
ATOM     18  N   UNL     1      33.023 -23.197 -16.184  0.00  0.00    -0.280 N 
ATOM     19  C   UNL     1      31.747 -22.958 -15.617  0.00  0.00    +0.052 C 
ATOM     20  C   UNL     1      34.267 -22.845 -15.601  0.00  0.00    +0.052 C 
ATOM     21  C   UNL     1      31.450 -23.241 -14.268  0.00  0.00    +0.014 C 
ATOM     22  C   UNL     1      34.573 -23.102 -14.250  0.00  0.00    +0.014 C 
ATOM     23  C   UNL     1      32.370 -23.925 -13.353  0.00  0.00    +0.001 C 
ATOM     24  C   UNL     1      33.706 -23.865 -13.344  0.00  0.00    +0.001 C 
ATOM     25  C   UNL     1      30.716 -22.386 -16.402  0.00  0.00    +0.015 C 
ATOM     26  C   UNL     1      35.251 -22.184 -16.376  0.00  0.00    +0.015 C 
ATOM     27  C   UNL     1      30.163 -22.967 -13.759  0.00  0.00    +0.001 C 
ATOM     28  C   UNL     1      35.824 -22.715 -13.726  0.00  0.00    +0.001 C 
ATOM     29  C   UNL     1      29.451 -22.110 -15.882  0.00  0.00    +0.001 C 
ATOM     30  C   UNL     1      36.481 -21.796 -15.841  0.00  0.00    +0.001 C 
ATOM     31  C   UNL     1      29.174 -22.400 -14.557  0.00  0.00    +0.000 C 
ATOM     32  C   UNL     1      36.768 -22.061 -14.513  0.00  0.00    +0.000 C 
ENDBRANCH   1  18
TORSDOF 2
ENDMDL
MODEL 6
REMARK VINA RESULT:      -8.7      1.515      3.890
REMARK  Name = 446744
REMARK  2 active torsions:
REMARK  status: ('A' for Active; 'I' for Inactive)
REMARK    1  A    between atoms: C_1  and  C_8
REMARK    2  A    between atoms: C_1  and  N_18
REMARK                            x       y       z     vdW  Elec       q    Type
REMARK                         _______ _______ _______ _____ _____    ______ ____
ROOT
ATOM      1  C   UNL     1      33.028 -22.484 -13.886  0.00  0.00    +0.152 C 
ENDROOT
BRANCH   1   8
ATOM      2  N   UNL     1      35.323 -22.952 -13.256  0.00  0.00    -0.392 NA
ATOM      3  N   UNL     1      35.388 -25.209 -14.856  0.00  0.00    -0.200 NA
ATOM      4  N   UNL     1      37.578 -25.612 -14.224  0.00  0.00    -0.271 NA
ATOM      5  N   UNL     1      38.709 -24.152 -12.694  0.00  0.00    -0.310 NA
ATOM      6  N   UNL     1      37.575 -22.273 -11.818  0.00  0.00    -0.329 N 
ATOM      7  N   UNL     1      39.799 -26.023 -13.584  0.00  0.00    -0.283 N 
ATOM      8  C   UNL     1      34.259 -23.328 -13.976  0.00  0.00    +0.133 C 
ATOM      9  C   UNL     1      34.286 -24.440 -14.766  0.00  0.00    +0.193 C 
ATOM     10  C   UNL     1      36.424 -23.722 -13.347  0.00  0.00    +0.248 C 
ATOM     11  C   UNL     1      36.471 -24.863 -14.150  0.00  0.00    +0.131 C 
ATOM     12  C   UNL     1      37.577 -23.425 -12.647  0.00  0.00    +0.231 C 
ATOM     13  C   UNL     1      38.641 -25.221 -13.494  0.00  0.00    +0.207 C 
ATOM     14  H   UNL     1      38.380 -22.035 -11.305  0.00  0.00    +0.145 HD
ATOM     15  H   UNL     1      36.767 -21.714 -11.755  0.00  0.00    +0.145 HD
ATOM     16  H   UNL     1      39.801 -26.822 -14.159  0.00  0.00    +0.156 HD
ATOM     17  H   UNL     1      40.604 -25.783 -13.072  0.00  0.00    +0.156 HD
ENDBRANCH   1   8
BRANCH   1  18
ATOM     18  N   UNL     1      32.175 -22.748 -15.054  0.00  0.00    -0.280 N 
ATOM     19  C   UNL     1      31.035 -23.559 -14.832  0.00  0.00    +0.052 C 
ATOM     20  C   UNL     1      32.716 -22.408 -16.320  0.00  0.00    +0.052 C 
ATOM     21  C   UNL     1      29.832 -23.392 -15.550  0.00  0.00    +0.014 C 
ATOM     22  C   UNL     1      31.916 -21.966 -17.393  0.00  0.00    +0.014 C 
ATOM     23  C   UNL     1      29.588 -22.298 -16.495  0.00  0.00    +0.001 C 
ATOM     24  C   UNL     1      30.479 -21.689 -17.285  0.00  0.00    +0.001 C 
ATOM     25  C   UNL     1      31.081 -24.604 -13.877  0.00  0.00    +0.015 C 
ATOM     26  C   UNL     1      34.107 -22.533 -16.555  0.00  0.00    +0.015 C 
ATOM     27  C   UNL     1      28.737 -24.241 -15.291  0.00  0.00    +0.001 C 
ATOM     28  C   UNL     1      32.512 -21.657 -18.633  0.00  0.00    +0.001 C 
ATOM     29  C   UNL     1      29.992 -25.444 -13.640  0.00  0.00    +0.001 C 
ATOM     30  C   UNL     1      34.682 -22.234 -17.791  0.00  0.00    +0.001 C 
ATOM     31  C   UNL     1      28.817 -25.263 -14.350  0.00  0.00    +0.000 C 
ATOM     32  C   UNL     1      33.882 -21.796 -18.833  0.00  0.00    +0.000 C 
ENDBRANCH   1  18
TORSDOF 2
ENDMDL
MODEL 7
REMARK VINA RESULT:      -8.6     18.496     20.983
REMARK  Name = 446744
REMARK  2 active torsions:
REMARK  status: ('A' for Active; 'I' for Inactive)
REMARK    1  A    between atoms: C_1  and  C_8
REMARK    2  A    between atoms: C_1  and  N_18
REMARK                            x       y       z     vdW  Elec       q    Type
REMARK                         _______ _______ _______ _____ _____    ______ ____
ROOT
ATOM      1  C   UNL     1      31.882  -7.138 -24.420  0.00  0.00    +0.152 C 
ENDROOT
BRANCH   1   8
ATOM      2  N   UNL     1      32.979  -6.051 -26.289  0.00  0.00    -0.392 NA
ATOM      3  N   UNL     1      34.816  -4.840 -24.610  0.00  0.00    -0.200 NA
ATOM      4  N   UNL     1      35.830  -3.824 -26.428  0.00  0.00    -0.271 NA
ATOM      5  N   UNL     1      35.010  -4.178 -28.654  0.00  0.00    -0.310 NA
ATOM      6  N   UNL     1      33.141  -5.582 -29.001  0.00  0.00    -0.329 N 
ATOM      7  N   UNL     1      36.858  -2.793 -28.268  0.00  0.00    -0.283 N 
ATOM      8  C   UNL     1      32.948  -6.243 -24.964  0.00  0.00    +0.133 C 
ATOM      9  C   UNL     1      33.851  -5.648 -24.133  0.00  0.00    +0.193 C 
ATOM     10  C   UNL     1      33.945  -5.242 -26.765  0.00  0.00    +0.248 C 
ATOM     11  C   UNL     1      34.878  -4.624 -25.930  0.00  0.00    +0.131 C 
ATOM     12  C   UNL     1      34.069  -4.975 -28.114  0.00  0.00    +0.231 C 
ATOM     13  C   UNL     1      35.849  -3.640 -27.762  0.00  0.00    +0.207 C 
ATOM     14  H   UNL     1      33.202  -5.412 -29.968  0.00  0.00    +0.145 HD
ATOM     15  H   UNL     1      32.438  -6.173 -28.648  0.00  0.00    +0.145 HD
ATOM     16  H   UNL     1      37.501  -2.372 -27.655  0.00  0.00    +0.156 HD
ATOM     17  H   UNL     1      36.918  -2.624 -29.236  0.00  0.00    +0.156 HD
ENDBRANCH   1   8
BRANCH   1  18
ATOM     18  N   UNL     1      31.523  -6.695 -23.065  0.00  0.00    -0.280 N 
ATOM     19  C   UNL     1      31.314  -7.714 -22.103  0.00  0.00    +0.052 C 
ATOM     20  C   UNL     1      31.150  -5.334 -22.925  0.00  0.00    +0.052 C 
ATOM     21  C   UNL     1      31.615  -7.540 -20.736  0.00  0.00    +0.014 C 
ATOM     22  C   UNL     1      31.412  -4.592 -21.755  0.00  0.00    +0.014 C 
ATOM     23  C   UNL     1      32.286  -6.357 -20.189  0.00  0.00    +0.001 C 
ATOM     24  C   UNL     1      32.199  -5.096 -20.624  0.00  0.00    +0.001 C 
ATOM     25  C   UNL     1      30.757  -8.956 -22.492  0.00  0.00    +0.015 C 
ATOM     26  C   UNL     1      30.463  -4.675 -23.973  0.00  0.00    +0.015 C 
ATOM     27  C   UNL     1      31.371  -8.589 -19.825  0.00  0.00    +0.001 C 
ATOM     28  C   UNL     1      31.003  -3.245 -21.672  0.00  0.00    +0.001 C 
ATOM     29  C   UNL     1      30.512  -9.981 -21.577  0.00  0.00    +0.001 C 
ATOM     30  C   UNL     1      30.054  -3.344 -23.872  0.00  0.00    +0.001 C 
ATOM     31  C   UNL     1      30.818  -9.796 -20.240  0.00  0.00    +0.000 C 
ATOM     32  C   UNL     1      30.324  -2.627 -22.718  0.00  0.00    +0.000 C 
ENDBRANCH   1  18
TORSDOF 2
ENDMDL
MODEL 8
REMARK VINA RESULT:      -8.6      2.474      7.269
REMARK  Name = 446744
REMARK  2 active torsions:
REMARK  status: ('A' for Active; 'I' for Inactive)
REMARK    1  A    between atoms: C_1  and  C_8
REMARK    2  A    between atoms: C_1  and  N_18
REMARK                            x       y       z     vdW  Elec       q    Type
REMARK                         _______ _______ _______ _____ _____    ______ ____
ROOT
ATOM      1  C   UNL     1      33.828 -24.365 -13.848  0.00  0.00    +0.152 C 
ENDROOT
BRANCH   1   8
ATOM      2  N   UNL     1      31.463 -24.439 -14.380  0.00  0.00    -0.392 NA
ATOM      3  N   UNL     1      31.280 -21.679 -14.318  0.00  0.00    -0.200 NA
ATOM      4  N   UNL     1      29.025 -21.801 -14.827  0.00  0.00    -0.271 NA
ATOM      5  N   UNL     1      27.947 -23.920 -15.148  0.00  0.00    -0.310 NA
ATOM      6  N   UNL     1      29.201 -25.912 -14.942  0.00  0.00    -0.329 N 
ATOM      7  N   UNL     1      26.739 -21.924 -15.344  0.00  0.00    -0.283 N 
ATOM      8  C   UNL     1      32.529 -23.674 -14.113  0.00  0.00    +0.133 C 
ATOM      9  C   UNL     1      32.444 -22.313 -14.081  0.00  0.00    +0.193 C 
ATOM     10  C   UNL     1      30.300 -23.802 -14.617  0.00  0.00    +0.248 C 
ATOM     11  C   UNL     1      30.193 -22.411 -14.589  0.00  0.00    +0.131 C 
ATOM     12  C   UNL     1      29.139 -24.494 -14.903  0.00  0.00    +0.231 C 
ATOM     13  C   UNL     1      27.962 -22.583 -15.095  0.00  0.00    +0.207 C 
ATOM     14  H   UNL     1      28.392 -26.434 -15.142  0.00  0.00    +0.145 HD
ATOM     15  H   UNL     1      30.054 -26.372 -14.769  0.00  0.00    +0.145 HD
ATOM     16  H   UNL     1      26.695 -20.941 -15.317  0.00  0.00    +0.156 HD
ATOM     17  H   UNL     1      25.930 -22.447 -15.545  0.00  0.00    +0.156 HD
ENDBRANCH   1   8
BRANCH   1  18
ATOM     18  N   UNL     1      34.841 -23.868 -14.790  0.00  0.00    -0.280 N 
ATOM     19  C   UNL     1      34.357 -23.252 -15.970  0.00  0.00    +0.052 C 
ATOM     20  C   UNL     1      36.175 -24.297 -14.566  0.00  0.00    +0.052 C 
ATOM     21  C   UNL     1      35.040 -22.199 -16.612  0.00  0.00    +0.014 C 
ATOM     22  C   UNL     1      37.291 -23.493 -14.872  0.00  0.00    +0.014 C 
ATOM     23  C   UNL     1      36.237 -21.547 -16.069  0.00  0.00    +0.001 C 
ATOM     24  C   UNL     1      37.200 -22.101 -15.326  0.00  0.00    +0.001 C 
ATOM     25  C   UNL     1      33.157 -23.708 -16.569  0.00  0.00    +0.015 C 
ATOM     26  C   UNL     1      36.426 -25.588 -14.042  0.00  0.00    +0.015 C 
ATOM     27  C   UNL     1      34.513 -21.636 -17.793  0.00  0.00    +0.001 C 
ATOM     28  C   UNL     1      38.593 -23.983 -14.639  0.00  0.00    +0.001 C 
ATOM     29  C   UNL     1      32.653 -23.148 -17.744  0.00  0.00    +0.001 C 
ATOM     30  C   UNL     1      37.721 -26.063 -13.826  0.00  0.00    +0.001 C 
ATOM     31  C   UNL     1      33.333 -22.111 -18.359  0.00  0.00    +0.000 C 
ATOM     32  C   UNL     1      38.807 -25.259 -14.127  0.00  0.00    +0.000 C 
ENDBRANCH   1  18
TORSDOF 2
ENDMDL
