MODEL 1
REMARK VINA RESULT:     -12.4      0.000      0.000
REMARK  Name = 44462738
REMARK  5 active torsions:
REMARK  status: ('A' for Active; 'I' for Inactive)
REMARK    1  A    between atoms: N_1  and  C_17
REMARK    2  A    between atoms: C_8  and  C_30
REMARK    3  A    between atoms: C_12  and  N_19
REMARK    4  A    between atoms: N_18  and  C_26
REMARK    5  A    between atoms: C_33  and  C_36
REMARK                            x       y       z     vdW  Elec       q    Type
REMARK                         _______ _______ _______ _____ _____    ______ ____
ROOT
ATOM      1  N   UNL     1      33.472 -14.031 -24.145  0.00  0.00    -0.296 N 
ATOM      2  N   UNL     1      34.386 -15.017 -22.236  0.00  0.00    -0.225 NA
ATOM      3  N   UNL     1      33.832 -17.594 -23.153  0.00  0.00    -0.167 N 
ATOM      4  N   UNL     1      32.928 -16.809 -25.021  0.00  0.00    -0.203 NA
ATOM      5  N   UNL     1      33.439 -18.699 -23.832  0.00  0.00    -0.150 NA
ATOM      6  C   UNL     1      33.798 -15.145 -23.407  0.00  0.00    +0.166 C 
ATOM      7  C   UNL     1      33.506 -16.477 -23.894  0.00  0.00    +0.188 C 
ATOM      8  C   UNL     1      34.453 -17.427 -21.913  0.00  0.00    +0.098 C 
ATOM      9  C   UNL     1      34.702 -16.159 -21.517  0.00  0.00    +0.117 C 
ATOM     10  C   UNL     1      32.911 -18.170 -24.938  0.00  0.00    +0.219 C 
ATOM     11  H   UNL     1      33.474 -14.142 -25.124  0.00  0.00    +0.154 HD
ENDROOT
BRANCH   1  17
ATOM     12  C   UNL     1      32.470 -10.209 -22.719  0.00  0.00    +0.048 C 
ATOM     13  C   UNL     1      31.837 -11.338 -22.197  0.00  0.00    +0.016 C 
ATOM     14  C   UNL     1      33.436 -10.350 -23.715  0.00  0.00    +0.016 C 
ATOM     15  C   UNL     1      32.169 -12.606 -22.670  0.00  0.00    +0.016 C 
ATOM     16  C   UNL     1      33.769 -11.620 -24.189  0.00  0.00    +0.016 C 
ATOM     17  C   UNL     1      33.136 -12.747 -23.667  0.00  0.00    +0.050 C 
BRANCH  12  19
ATOM     18  N   UNL     1      30.922  -6.466 -22.884  0.00  0.00    +0.392 N 
ATOM     19  N   UNL     1      32.143  -8.962 -22.253  0.00  0.00    -0.313 N 
ATOM     20  C   UNL     1      32.020  -6.663 -21.909  0.00  0.00    -0.036 C 
ATOM     21  C   UNL     1      30.831  -8.519 -21.759  0.00  0.00    +0.050 C 
ATOM     22  C   UNL     1      31.236  -7.382 -20.815  0.00  0.00    -0.002 C 
ATOM     23  C   UNL     1      30.172  -7.744 -22.908  0.00  0.00    -0.057 C 
ATOM     24  C   UNL     1      33.011  -7.780 -22.326  0.00  0.00    +0.070 C 
ATOM     25  H   UNL     1      30.330  -5.691 -22.583  0.00  0.00    -0.079 HD
BRANCH  18  26
ATOM     26  C   UNL     1      31.340  -6.019 -24.200  0.00  0.00    -0.058 C 
ATOM     27  C   UNL     1      30.866  -4.590 -24.449  0.00  0.00    -0.023 C 
ATOM     28  C   UNL     1      30.791  -6.971 -25.258  0.00  0.00    -0.023 C 
ENDBRANCH  18  26
ENDBRANCH  12  19
ENDBRANCH   1  17
BRANCH   8  30
ATOM     29  O   UNL     1      36.130 -19.992 -19.898  0.00  0.00    -0.446 OA
ATOM     30  C   UNL     1      34.842 -18.571 -21.071  0.00  0.00    +0.058 C 
ATOM     31  C   UNL     1      34.010 -19.574 -20.518  0.00  0.00    +0.047 C 
ATOM     32  C   UNL     1      36.122 -18.870 -20.665  0.00  0.00    +0.181 C 
ATOM     33  C   UNL     1      34.842 -20.415 -19.815  0.00  0.00    +0.198 C 
BRANCH  33  36
ATOM     34  O   UNL     1      35.296 -21.957 -18.094  0.00  0.00    -0.267 OA
ATOM     35  N   UNL     1      33.443 -22.362 -19.383  0.00  0.00    -0.323 N 
ATOM     36  C   UNL     1      34.572 -21.589 -19.058  0.00  0.00    +0.277 C 
ATOM     37  H   UNL     1      33.241 -23.179 -18.870  0.00  0.00    +0.145 HD
ATOM     38  H   UNL     1      32.856 -22.089 -20.124  0.00  0.00    +0.145 HD
ENDBRANCH  33  36
ENDBRANCH   8  30
TORSDOF 5
ENDMDL
MODEL 2
REMARK VINA RESULT:     -10.9      3.186      5.596
REMARK  Name = 44462738
REMARK  5 active torsions:
REMARK  status: ('A' for Active; 'I' for Inactive)
REMARK    1  A    between atoms: N_1  and  C_17
REMARK    2  A    between atoms: C_8  and  C_30
REMARK    3  A    between atoms: C_12  and  N_19
REMARK    4  A    between atoms: N_18  and  C_26
REMARK    5  A    between atoms: C_33  and  C_36
REMARK                            x       y       z     vdW  Elec       q    Type
REMARK                         _______ _______ _______ _____ _____    ______ ____
ROOT
ATOM      1  N   UNL     1      31.608  -9.398 -22.703  0.00  0.00    -0.296 N 
ATOM      2  N   UNL     1      32.654 -11.071 -23.953  0.00  0.00    -0.225 NA
ATOM      3  N   UNL     1      32.521 -12.897 -21.847  0.00  0.00    -0.167 N 
ATOM      4  N   UNL     1      31.521 -11.415 -20.533  0.00  0.00    -0.203 NA
ATOM      5  N   UNL     1      32.334 -13.552 -20.676  0.00  0.00    -0.150 NA
ATOM      6  C   UNL     1      32.101 -10.676 -22.825  0.00  0.00    +0.166 C 
ATOM      7  C   UNL     1      32.026 -11.615 -21.725  0.00  0.00    +0.188 C 
ATOM      8  C   UNL     1      33.104 -13.286 -23.055  0.00  0.00    +0.098 C 
ATOM      9  C   UNL     1      33.141 -12.364 -24.043  0.00  0.00    +0.117 C 
ATOM     10  C   UNL     1      31.731 -12.621 -19.933  0.00  0.00    +0.219 C 
ATOM     11  H   UNL     1      30.846  -9.282 -22.089  0.00  0.00    +0.154 HD
ENDROOT
BRANCH   1  17
ATOM     12  C   UNL     1      32.965  -5.927 -24.640  0.00  0.00    +0.048 C 
ATOM     13  C   UNL     1      33.838  -6.669 -23.843  0.00  0.00    +0.016 C 
ATOM     14  C   UNL     1      31.642  -6.339 -24.794  0.00  0.00    +0.016 C 
ATOM     15  C   UNL     1      33.388  -7.821 -23.200  0.00  0.00    +0.016 C 
ATOM     16  C   UNL     1      31.191  -7.492 -24.150  0.00  0.00    +0.016 C 
ATOM     17  C   UNL     1      32.063  -8.232 -23.354  0.00  0.00    +0.050 C 
BRANCH  12  19
ATOM     18  N   UNL     1      33.939  -3.568 -27.789  0.00  0.00    +0.392 N 
ATOM     19  N   UNL     1      33.409  -4.794 -25.273  0.00  0.00    -0.313 N 
ATOM     20  C   UNL     1      34.646  -3.268 -26.522  0.00  0.00    -0.036 C 
ATOM     21  C   UNL     1      32.584  -3.745 -25.887  0.00  0.00    +0.050 C 
ATOM     22  C   UNL     1      33.521  -2.536 -25.795  0.00  0.00    -0.002 C 
ATOM     23  C   UNL     1      32.583  -4.018 -27.397  0.00  0.00    -0.057 C 
ATOM     24  C   UNL     1      34.810  -4.510 -25.609  0.00  0.00    +0.070 C 
ATOM     25  H   UNL     1      33.902  -2.729 -28.369  0.00  0.00    -0.079 HD
BRANCH  18  26
ATOM     26  C   UNL     1      34.623  -4.498 -28.670  0.00  0.00    -0.058 C 
ATOM     27  C   UNL     1      35.339  -3.741 -29.786  0.00  0.00    -0.023 C 
ATOM     28  C   UNL     1      33.615  -5.491 -29.240  0.00  0.00    -0.023 C 
ENDBRANCH  18  26
ENDBRANCH  12  19
ENDBRANCH   1  17
BRANCH   8  30
ATOM     29  O   UNL     1      34.241 -16.540 -24.307  0.00  0.00    -0.446 OA
ATOM     30  C   UNL     1      33.644 -14.640 -23.264  0.00  0.00    +0.058 C 
ATOM     31  C   UNL     1      34.225 -15.509 -22.310  0.00  0.00    +0.047 C 
ATOM     32  C   UNL     1      33.678 -15.313 -24.464  0.00  0.00    +0.181 C 
ATOM     33  C   UNL     1      34.571 -16.652 -22.994  0.00  0.00    +0.198 C 
BRANCH  33  36
ATOM     34  O   UNL     1      34.584 -18.968 -22.567  0.00  0.00    -0.267 OA
ATOM     35  N   UNL     1      36.521 -17.823 -22.124  0.00  0.00    -0.323 N 
ATOM     36  C   UNL     1      35.184 -17.860 -22.560  0.00  0.00    +0.277 C 
ATOM     37  H   UNL     1      36.962 -18.649 -21.820  0.00  0.00    +0.145 HD
ATOM     38  H   UNL     1      37.015 -16.972 -22.121  0.00  0.00    +0.145 HD
ENDBRANCH  33  36
ENDBRANCH   8  30
TORSDOF 5
ENDMDL
MODEL 3
REMARK VINA RESULT:     -10.6      1.081      2.081
REMARK  Name = 44462738
REMARK  5 active torsions:
REMARK  status: ('A' for Active; 'I' for Inactive)
REMARK    1  A    between atoms: N_1  and  C_17
REMARK    2  A    between atoms: C_8  and  C_30
REMARK    3  A    between atoms: C_12  and  N_19
REMARK    4  A    between atoms: N_18  and  C_26
REMARK    5  A    between atoms: C_33  and  C_36
REMARK                            x       y       z     vdW  Elec       q    Type
REMARK                         _______ _______ _______ _____ _____    ______ ____
ROOT
ATOM      1  N   UNL     1      33.628 -14.623 -24.211  0.00  0.00    -0.296 N 
ATOM      2  N   UNL     1      34.265 -15.446 -22.120  0.00  0.00    -0.225 NA
ATOM      3  N   UNL     1      34.137 -18.095 -22.989  0.00  0.00    -0.167 N 
ATOM      4  N   UNL     1      33.522 -17.470 -25.026  0.00  0.00    -0.203 NA
ATOM      5  N   UNL     1      33.983 -19.256 -23.669  0.00  0.00    -0.150 NA
ATOM      6  C   UNL     1      33.917 -15.672 -23.370  0.00  0.00    +0.166 C 
ATOM      7  C   UNL     1      33.848 -17.043 -23.832  0.00  0.00    +0.188 C 
ATOM      8  C   UNL     1      34.501 -17.824 -21.667  0.00  0.00    +0.098 C 
ATOM      9  C   UNL     1      34.550 -16.525 -21.299  0.00  0.00    +0.117 C 
ATOM     10  C   UNL     1      33.619 -18.821 -24.877  0.00  0.00    +0.219 C 
ATOM     11  H   UNL     1      33.820 -14.765 -25.166  0.00  0.00    +0.154 HD
ENDROOT
BRANCH   1  17
ATOM     12  C   UNL     1      32.021 -10.880 -23.185  0.00  0.00    +0.048 C 
ATOM     13  C   UNL     1      31.772 -11.991 -22.379  0.00  0.00    +0.016 C 
ATOM     14  C   UNL     1      32.804 -11.012 -24.331  0.00  0.00    +0.016 C 
ATOM     15  C   UNL     1      32.305 -13.234 -22.719  0.00  0.00    +0.016 C 
ATOM     16  C   UNL     1      33.338 -12.255 -24.673  0.00  0.00    +0.016 C 
ATOM     17  C   UNL     1      33.089 -13.366 -23.867  0.00  0.00    +0.050 C 
BRANCH  12  19
ATOM     18  N   UNL     1      31.918  -7.243 -21.398  0.00  0.00    +0.392 N 
ATOM     19  N   UNL     1      31.497  -9.658 -22.850  0.00  0.00    -0.313 N 
ATOM     20  C   UNL     1      30.599  -7.851 -21.689  0.00  0.00    -0.036 C 
ATOM     21  C   UNL     1      31.825  -8.360 -23.455  0.00  0.00    +0.050 C 
ATOM     22  C   UNL     1      30.539  -7.572 -23.188  0.00  0.00    -0.002 C 
ATOM     23  C   UNL     1      32.810  -7.670 -22.501  0.00  0.00    -0.057 C 
ATOM     24  C   UNL     1      30.631  -9.401 -21.692  0.00  0.00    +0.070 C 
ATOM     25  H   UNL     1      31.828  -6.227 -21.362  0.00  0.00    -0.079 HD
BRANCH  18  26
ATOM     26  C   UNL     1      32.452  -7.533 -20.080  0.00  0.00    -0.058 C 
ATOM     27  C   UNL     1      31.540  -8.511 -19.344  0.00  0.00    -0.023 C 
ATOM     28  C   UNL     1      32.607  -6.233 -19.297  0.00  0.00    -0.023 C 
ENDBRANCH  18  26
ENDBRANCH  12  19
ENDBRANCH   1  17
BRANCH   8  30
ATOM     29  O   UNL     1      36.028 -20.158 -19.285  0.00  0.00    -0.446 OA
ATOM     30  C   UNL     1      34.835 -18.894 -20.712  0.00  0.00    +0.058 C 
ATOM     31  C   UNL     1      33.998 -19.925 -20.222  0.00  0.00    +0.047 C 
ATOM     32  C   UNL     1      36.059 -19.079 -20.111  0.00  0.00    +0.181 C 
ATOM     33  C   UNL     1      34.770 -20.667 -19.359  0.00  0.00    +0.198 C 
BRANCH  33  36
ATOM     34  O   UNL     1      35.193 -22.196 -17.619  0.00  0.00    -0.267 OA
ATOM     35  N   UNL     1      33.308 -22.554 -18.875  0.00  0.00    -0.323 N 
ATOM     36  C   UNL     1      34.469 -21.818 -18.579  0.00  0.00    +0.277 C 
ATOM     37  H   UNL     1      33.084 -23.354 -18.346  0.00  0.00    +0.145 HD
ATOM     38  H   UNL     1      32.720 -22.272 -19.612  0.00  0.00    +0.145 HD
ENDBRANCH  33  36
ENDBRANCH   8  30
TORSDOF 5
ENDMDL
MODEL 4
REMARK VINA RESULT:     -10.3      3.135      5.952
REMARK  Name = 44462738
REMARK  5 active torsions:
REMARK  status: ('A' for Active; 'I' for Inactive)
REMARK    1  A    between atoms: N_1  and  C_17
REMARK    2  A    between atoms: C_8  and  C_30
REMARK    3  A    between atoms: C_12  and  N_19
REMARK    4  A    between atoms: N_18  and  C_26
REMARK    5  A    between atoms: C_33  and  C_36
REMARK                            x       y       z     vdW  Elec       q    Type
REMARK                         _______ _______ _______ _____ _____    ______ ____
ROOT
ATOM      1  N   UNL     1      31.516  -8.819 -22.982  0.00  0.00    -0.296 N 
ATOM      2  N   UNL     1      32.616 -10.619 -23.982  0.00  0.00    -0.225 NA
ATOM      3  N   UNL     1      32.383 -12.193 -21.690  0.00  0.00    -0.167 N 
ATOM      4  N   UNL     1      31.325 -10.575 -20.603  0.00  0.00    -0.203 NA
ATOM      5  N   UNL     1      32.140 -12.711 -20.462  0.00  0.00    -0.150 NA
ATOM      6  C   UNL     1      32.012 -10.101 -22.934  0.00  0.00    +0.166 C 
ATOM      7  C   UNL     1      31.885 -10.908 -21.739  0.00  0.00    +0.188 C 
ATOM      8  C   UNL     1      33.021 -12.716 -22.818  0.00  0.00    +0.098 C 
ATOM      9  C   UNL     1      33.105 -11.913 -23.902  0.00  0.00    +0.117 C 
ATOM     10  C   UNL     1      31.505 -11.703 -19.859  0.00  0.00    +0.219 C 
ATOM     11  H   UNL     1      30.727  -8.636 -22.421  0.00  0.00    +0.154 HD
ENDROOT
BRANCH   1  17
ATOM     12  C   UNL     1      32.967  -5.588 -25.241  0.00  0.00    +0.048 C 
ATOM     13  C   UNL     1      31.656  -6.032 -25.419  0.00  0.00    +0.016 C 
ATOM     14  C   UNL     1      33.796  -6.218 -24.313  0.00  0.00    +0.016 C 
ATOM     15  C   UNL     1      31.174  -7.104 -24.670  0.00  0.00    +0.016 C 
ATOM     16  C   UNL     1      33.314  -7.291 -23.562  0.00  0.00    +0.016 C 
ATOM     17  C   UNL     1      32.004  -7.734 -23.740  0.00  0.00    +0.050 C 
BRANCH  12  19
ATOM     18  N   UNL     1      32.733  -2.255 -27.536  0.00  0.00    +0.392 N 
ATOM     19  N   UNL     1      33.440  -4.533 -25.978  0.00  0.00    -0.313 N 
ATOM     20  C   UNL     1      33.959  -3.069 -27.712  0.00  0.00    -0.036 C 
ATOM     21  C   UNL     1      33.576  -3.138 -25.537  0.00  0.00    +0.050 C 
ATOM     22  C   UNL     1      34.704  -2.644 -26.449  0.00  0.00    -0.002 C 
ATOM     23  C   UNL     1      32.368  -2.381 -26.106  0.00  0.00    -0.057 C 
ATOM     24  C   UNL     1      33.737  -4.574 -27.415  0.00  0.00    +0.070 C 
ATOM     25  H   UNL     1      32.925  -1.285 -27.790  0.00  0.00    -0.079 HD
BRANCH  18  26
ATOM     26  C   UNL     1      31.645  -2.580 -28.440  0.00  0.00    -0.058 C 
ATOM     27  C   UNL     1      32.049  -2.287 -29.882  0.00  0.00    -0.023 C 
ATOM     28  C   UNL     1      30.403  -1.786 -28.046  0.00  0.00    -0.023 C 
ENDBRANCH  18  26
ENDBRANCH  12  19
ENDBRANCH   1  17
BRANCH   8  30
ATOM     29  O   UNL     1      34.220 -16.084 -23.637  0.00  0.00    -0.446 OA
ATOM     30  C   UNL     1      33.568 -14.083 -22.845  0.00  0.00    +0.058 C 
ATOM     31  C   UNL     1      34.087 -14.841 -21.769  0.00  0.00    +0.047 C 
ATOM     32  C   UNL     1      33.671 -14.883 -23.960  0.00  0.00    +0.181 C 
ATOM     33  C   UNL     1      34.469 -16.050 -22.302  0.00  0.00    +0.198 C 
BRANCH  33  36
ATOM     34  O   UNL     1      35.355 -17.253 -20.480  0.00  0.00    -0.267 OA
ATOM     35  N   UNL     1      35.279 -18.339 -22.499  0.00  0.00    -0.323 N 
ATOM     36  C   UNL     1      35.051 -17.202 -21.702  0.00  0.00    +0.277 C 
ATOM     37  H   UNL     1      35.681 -19.146 -22.101  0.00  0.00    +0.145 HD
ATOM     38  H   UNL     1      35.039 -18.329 -23.453  0.00  0.00    +0.145 HD
ENDBRANCH  33  36
ENDBRANCH   8  30
TORSDOF 5
ENDMDL
MODEL 5
REMARK VINA RESULT:     -10.1      5.142     10.164
REMARK  Name = 44462738
REMARK  5 active torsions:
REMARK  status: ('A' for Active; 'I' for Inactive)
REMARK    1  A    between atoms: N_1  and  C_17
REMARK    2  A    between atoms: C_8  and  C_30
REMARK    3  A    between atoms: C_12  and  N_19
REMARK    4  A    between atoms: N_18  and  C_26
REMARK    5  A    between atoms: C_33  and  C_36
REMARK                            x       y       z     vdW  Elec       q    Type
REMARK                         _______ _______ _______ _____ _____    ______ ____
ROOT
ATOM      1  N   UNL     1      32.236 -22.357 -18.171  0.00  0.00    -0.296 N 
ATOM      2  N   UNL     1      34.093 -22.752 -16.810  0.00  0.00    -0.225 NA
ATOM      3  N   UNL     1      32.499 -23.476 -14.637  0.00  0.00    -0.167 N 
ATOM      4  N   UNL     1      30.640 -23.142 -15.800  0.00  0.00    -0.203 NA
ATOM      5  N   UNL     1      31.499 -23.761 -13.769  0.00  0.00    -0.150 NA
ATOM      6  C   UNL     1      32.785 -22.729 -16.966  0.00  0.00    +0.166 C 
ATOM      7  C   UNL     1      31.948 -23.104 -15.845  0.00  0.00    +0.188 C 
ATOM      8  C   UNL     1      33.890 -23.488 -14.501  0.00  0.00    +0.098 C 
ATOM      9  C   UNL     1      34.615 -23.131 -15.585  0.00  0.00    +0.117 C 
ATOM     10  C   UNL     1      30.415 -23.548 -14.518  0.00  0.00    +0.219 C 
ATOM     11  H   UNL     1      31.369 -22.766 -18.398  0.00  0.00    +0.154 HD
ENDROOT
BRANCH   1  17
ATOM     12  C   UNL     1      33.819 -19.682 -20.996  0.00  0.00    +0.048 C 
ATOM     13  C   UNL     1      34.669 -20.526 -20.280  0.00  0.00    +0.016 C 
ATOM     14  C   UNL     1      32.443 -19.728 -20.774  0.00  0.00    +0.016 C 
ATOM     15  C   UNL     1      34.144 -21.414 -19.342  0.00  0.00    +0.016 C 
ATOM     16  C   UNL     1      31.917 -20.616 -19.835  0.00  0.00    +0.016 C 
ATOM     17  C   UNL     1      32.767 -21.459 -19.120  0.00  0.00    +0.050 C 
BRANCH  12  19
ATOM     18  N   UNL     1      34.838 -16.074 -22.538  0.00  0.00    +0.392 N 
ATOM     19  N   UNL     1      34.336 -18.810 -21.919  0.00  0.00    -0.313 N 
ATOM     20  C   UNL     1      34.592 -17.148 -23.529  0.00  0.00    -0.036 C 
ATOM     21  C   UNL     1      35.658 -18.169 -21.885  0.00  0.00    +0.050 C 
ATOM     22  C   UNL     1      35.904 -17.913 -23.375  0.00  0.00    -0.002 C 
ATOM     23  C   UNL     1      35.439 -16.743 -21.361  0.00  0.00    -0.057 C 
ATOM     24  C   UNL     1      33.584 -18.216 -23.031  0.00  0.00    +0.070 C 
ATOM     25  H   UNL     1      35.469 -15.378 -22.936  0.00  0.00    -0.079 HD
BRANCH  18  26
ATOM     26  C   UNL     1      33.680 -15.263 -22.211  0.00  0.00    -0.058 C 
ATOM     27  C   UNL     1      33.465 -14.193 -23.278  0.00  0.00    -0.023 C 
ATOM     28  C   UNL     1      33.873 -14.633 -20.835  0.00  0.00    -0.023 C 
ENDBRANCH  18  26
ENDBRANCH  12  19
ENDBRANCH   1  17
BRANCH   8  30
ATOM     29  O   UNL     1      35.878 -25.006 -11.819  0.00  0.00    -0.446 OA
ATOM     30  C   UNL     1      34.551 -23.885 -13.247  0.00  0.00    +0.058 C 
ATOM     31  C   UNL     1      34.397 -23.320 -11.958  0.00  0.00    +0.047 C 
ATOM     32  C   UNL     1      35.462 -24.907 -13.109  0.00  0.00    +0.181 C 
ATOM     33  C   UNL     1      35.224 -24.037 -11.125  0.00  0.00    +0.198 C 
BRANCH  33  36
ATOM     34  O   UNL     1      34.937 -24.673  -8.875  0.00  0.00    -0.267 OA
ATOM     35  N   UNL     1      36.399 -22.955  -9.286  0.00  0.00    -0.323 N 
ATOM     36  C   UNL     1      35.483 -23.925  -9.730  0.00  0.00    +0.277 C 
ATOM     37  H   UNL     1      36.591 -22.863  -8.325  0.00  0.00    +0.145 HD
ATOM     38  H   UNL     1      36.847 -22.367  -9.936  0.00  0.00    +0.145 HD
ENDBRANCH  33  36
ENDBRANCH   8  30
TORSDOF 5
ENDMDL
MODEL 6
REMARK VINA RESULT:     -10.0      3.865      6.657
REMARK  Name = 44462738
REMARK  5 active torsions:
REMARK  status: ('A' for Active; 'I' for Inactive)
REMARK    1  A    between atoms: N_1  and  C_17
REMARK    2  A    between atoms: C_8  and  C_30
REMARK    3  A    between atoms: C_12  and  N_19
REMARK    4  A    between atoms: N_18  and  C_26
REMARK    5  A    between atoms: C_33  and  C_36
REMARK                            x       y       z     vdW  Elec       q    Type
REMARK                         _______ _______ _______ _____ _____    ______ ____
ROOT
ATOM      1  N   UNL     1      31.459  -8.302 -23.137  0.00  0.00    -0.296 N 
ATOM      2  N   UNL     1      32.641 -10.214 -23.770  0.00  0.00    -0.225 NA
ATOM      3  N   UNL     1      32.206 -11.448 -21.306  0.00  0.00    -0.167 N 
ATOM      4  N   UNL     1      31.058  -9.704 -20.557  0.00  0.00    -0.203 NA
ATOM      5  N   UNL     1      31.855 -11.788 -20.042  0.00  0.00    -0.150 NA
ATOM      6  C   UNL     1      31.948  -9.558 -22.863  0.00  0.00    +0.166 C 
ATOM      7  C   UNL     1      31.715 -10.189 -21.581  0.00  0.00    +0.188 C 
ATOM      8  C   UNL     1      32.940 -12.118 -22.287  0.00  0.00    +0.098 C 
ATOM      9  C   UNL     1      33.120 -11.477 -23.464  0.00  0.00    +0.117 C 
ATOM     10  C   UNL     1      31.170 -10.713 -19.647  0.00  0.00    +0.219 C 
ATOM     11  H   UNL     1      30.624  -8.051 -22.679  0.00  0.00    +0.154 HD
ENDROOT
BRANCH   1  17
ATOM     12  C   UNL     1      33.105  -5.410 -25.699  0.00  0.00    +0.048 C 
ATOM     13  C   UNL     1      31.806  -5.873 -25.913  0.00  0.00    +0.016 C 
ATOM     14  C   UNL     1      33.856  -5.906 -24.635  0.00  0.00    +0.016 C 
ATOM     15  C   UNL     1      31.260  -6.833 -25.063  0.00  0.00    +0.016 C 
ATOM     16  C   UNL     1      33.310  -6.868 -23.784  0.00  0.00    +0.016 C 
ATOM     17  C   UNL     1      32.012  -7.331 -23.997  0.00  0.00    +0.050 C 
BRANCH  12  19
ATOM     18  N   UNL     1      35.324  -4.009 -28.789  0.00  0.00    +0.392 N 
ATOM     19  N   UNL     1      33.642  -4.464 -26.536  0.00  0.00    -0.313 N 
ATOM     20  C   UNL     1      35.105  -3.057 -27.676  0.00  0.00    -0.036 C 
ATOM     21  C   UNL     1      33.168  -4.101 -27.879  0.00  0.00    +0.050 C 
ATOM     22  C   UNL     1      33.666  -2.657 -27.991  0.00  0.00    -0.002 C 
ATOM     23  C   UNL     1      34.088  -4.821 -28.875  0.00  0.00    -0.057 C 
ATOM     24  C   UNL     1      34.908  -3.758 -26.306  0.00  0.00    +0.070 C 
ATOM     25  H   UNL     1      35.494  -3.494 -29.653  0.00  0.00    -0.079 HD
BRANCH  18  26
ATOM     26  C   UNL     1      36.532  -4.808 -28.686  0.00  0.00    -0.058 C 
ATOM     27  C   UNL     1      37.762  -3.905 -28.644  0.00  0.00    -0.023 C 
ATOM     28  C   UNL     1      36.603  -5.775 -29.864  0.00  0.00    -0.023 C 
ENDBRANCH  18  26
ENDBRANCH  12  19
ENDBRANCH   1  17
BRANCH   8  30
ATOM     29  O   UNL     1      34.312 -15.271 -21.011  0.00  0.00    -0.446 OA
ATOM     30  C   UNL     1      33.486 -13.469 -22.072  0.00  0.00    +0.058 C 
ATOM     31  C   UNL     1      33.750 -14.472 -23.035  0.00  0.00    +0.047 C 
ATOM     32  C   UNL     1      33.845 -14.004 -20.856  0.00  0.00    +0.181 C 
ATOM     33  C   UNL     1      34.252 -15.547 -22.340  0.00  0.00    +0.198 C 
BRANCH  33  36
ATOM     34  O   UNL     1      34.175 -17.426 -23.758  0.00  0.00    -0.267 OA
ATOM     35  N   UNL     1      35.756 -17.448 -22.096  0.00  0.00    -0.323 N 
ATOM     36  C   UNL     1      34.691 -16.829 -22.775  0.00  0.00    +0.277 C 
ATOM     37  H   UNL     1      36.073 -18.335 -22.384  0.00  0.00    +0.145 HD
ATOM     38  H   UNL     1      36.183 -16.996 -21.334  0.00  0.00    +0.145 HD
ENDBRANCH  33  36
ENDBRANCH   8  30
TORSDOF 5
ENDMDL
