MODEL 1
REMARK VINA RESULT:     -11.1      0.000      0.000
REMARK  Name = 15118984
REMARK  11 active torsions:
REMARK  status: ('A' for Active; 'I' for Inactive)
REMARK    1  A    between atoms: C_1  and  C_4
REMARK    2  A    between atoms: C_1  and  N_13
REMARK    3  A    between atoms: C_1  and  C_24
REMARK    4  A    between atoms: N_3  and  C_6
REMARK    5  A    between atoms: C_6  and  C_9
REMARK    6  A    between atoms: C_9  and  C_11
REMARK    7  A    between atoms: C_14  and  O_16
REMARK    8  A    between atoms: O_16  and  C_17
REMARK    9  A    between atoms: C_17  and  C_18
REMARK   10  A    between atoms: C_24  and  C_25
REMARK   11  A    between atoms: C_30  and  O_31
REMARK                            x       y       z     vdW  Elec       q    Type
REMARK                         _______ _______ _______ _____ _____    ______ ____
ROOT
ATOM      1  C   UNL     1      33.022 -23.514 -13.515  0.00  0.00    +0.155 C 
ENDROOT
BRANCH   1   4
ATOM      2  O   UNL     1      34.440 -23.763 -11.565  0.00  0.00    -0.273 OA
ATOM      3  N   UNL     1      35.159 -24.657 -13.581  0.00  0.00    -0.298 N 
ATOM      4  C   UNL     1      34.263 -23.985 -12.763  0.00  0.00    +0.241 C 
ATOM      5  H   UNL     1      34.932 -24.788 -14.529  0.00  0.00    +0.150 HD
BRANCH   3   6
ATOM      6  C   UNL     1      36.414 -25.170 -13.086  0.00  0.00    +0.132 C 
ATOM      7  C   UNL     1      36.812 -26.459 -13.784  0.00  0.00    +0.029 C 
BRANCH   6   9
ATOM      8  O   UNL     1      38.034 -23.527 -12.375  0.00  0.00    -0.291 OA
ATOM      9  C   UNL     1      37.463 -24.093 -13.307  0.00  0.00    +0.204 C 
BRANCH   9  11
ATOM     10  F   UNL     1      39.033 -23.972 -15.075  0.00  0.00    -0.226 F 
ATOM     11  C   UNL     1      37.741 -23.709 -14.738  0.00  0.00    +0.259 C 
ENDBRANCH   9  11
ENDBRANCH   6   9
ENDBRANCH   3   6
ENDBRANCH   1   4
BRANCH   1  13
ATOM     12  O   UNL     1      34.792 -21.800 -15.055  0.00  0.00    -0.226 OA
ATOM     13  N   UNL     1      33.336 -23.600 -14.942  0.00  0.00    -0.264 N 
ATOM     14  C   UNL     1      34.189 -22.736 -15.573  0.00  0.00    +0.402 C 
ATOM     15  H   UNL     1      32.913 -24.313 -15.474  0.00  0.00    +0.153 HD
BRANCH  14  16
ATOM     16  O   UNL     1      34.273 -23.076 -16.893  0.00  0.00    -0.430 OA
BRANCH  16  17
ATOM     17  C   UNL     1      33.182 -22.652 -17.718  0.00  0.00    +0.237 C 
BRANCH  17  18
ATOM     18  C   UNL     1      33.681 -21.644 -18.710  0.00  0.00    +0.021 C 
ATOM     19  C   UNL     1      32.770 -20.907 -19.461  0.00  0.00    -0.001 C 
ATOM     20  C   UNL     1      35.049 -21.453 -18.872  0.00  0.00    -0.001 C 
ATOM     21  C   UNL     1      33.233 -19.969 -20.382  0.00  0.00    -0.000 C 
ATOM     22  C   UNL     1      35.512 -20.515 -19.795  0.00  0.00    -0.000 C 
ATOM     23  C   UNL     1      34.604 -19.773 -20.550  0.00  0.00    -0.000 C 
ENDBRANCH  17  18
ENDBRANCH  16  17
ENDBRANCH  14  16
ENDBRANCH   1  13
BRANCH   1  24
ATOM     24  C   UNL     1      31.817 -24.409 -13.190  0.00  0.00    +0.055 C 
BRANCH  24  25
ATOM     25  C   UNL     1      30.572 -24.013 -13.948  0.00  0.00    -0.020 C 
ATOM     26  C   UNL     1      29.724 -25.001 -14.420  0.00  0.00    -0.001 C 
ATOM     27  C   UNL     1      30.303 -22.671 -14.156  0.00  0.00    -0.001 C 
ATOM     28  C   UNL     1      28.574 -24.636 -15.119  0.00  0.00    +0.036 C 
ATOM     29  C   UNL     1      29.154 -22.305 -14.856  0.00  0.00    +0.036 C 
ATOM     30  C   UNL     1      28.288 -23.288 -15.337  0.00  0.00    +0.134 C 
BRANCH  30  31
ATOM     31  O   UNL     1      27.166 -22.932 -16.020  0.00  0.00    -0.506 OA
ATOM     32  H   UNL     1      27.234 -22.405 -16.792  0.00  0.00    +0.292 HD
ENDBRANCH  30  31
ENDBRANCH  24  25
ENDBRANCH   1  24
TORSDOF 11
ENDMDL
MODEL 2
REMARK VINA RESULT:     -11.0      2.247      3.183
REMARK  Name = 15118984
REMARK  11 active torsions:
REMARK  status: ('A' for Active; 'I' for Inactive)
REMARK    1  A    between atoms: C_1  and  C_4
REMARK    2  A    between atoms: C_1  and  N_13
REMARK    3  A    between atoms: C_1  and  C_24
REMARK    4  A    between atoms: N_3  and  C_6
REMARK    5  A    between atoms: C_6  and  C_9
REMARK    6  A    between atoms: C_9  and  C_11
REMARK    7  A    between atoms: C_14  and  O_16
REMARK    8  A    between atoms: O_16  and  C_17
REMARK    9  A    between atoms: C_17  and  C_18
REMARK   10  A    between atoms: C_24  and  C_25
REMARK   11  A    between atoms: C_30  and  O_31
REMARK                            x       y       z     vdW  Elec       q    Type
REMARK                         _______ _______ _______ _____ _____    ______ ____
ROOT
ATOM      1  C   UNL     1      35.624 -22.414 -15.362  0.00  0.00    +0.155 C 
ENDROOT
BRANCH   1   4
ATOM      2  O   UNL     1      38.047 -22.468 -15.400  0.00  0.00    -0.273 OA
ATOM      3  N   UNL     1      36.931 -23.831 -13.892  0.00  0.00    -0.298 N 
ATOM      4  C   UNL     1      37.001 -22.883 -14.902  0.00  0.00    +0.241 C 
ATOM      5  H   UNL     1      36.048 -24.103 -13.554  0.00  0.00    +0.150 HD
BRANCH   3   6
ATOM      6  C   UNL     1      38.112 -24.433 -13.321  0.00  0.00    +0.132 C 
ATOM      7  C   UNL     1      37.864 -24.933 -11.908  0.00  0.00    +0.029 C 
BRANCH   6   9
ATOM      8  O   UNL     1      37.841 -26.593 -14.365  0.00  0.00    -0.291 OA
ATOM      9  C   UNL     1      38.524 -25.577 -14.231  0.00  0.00    +0.204 C 
BRANCH   9  11
ATOM     10  F   UNL     1      40.476 -24.282 -14.572  0.00  0.00    -0.226 F 
ATOM     11  C   UNL     1      39.847 -25.432 -14.937  0.00  0.00    +0.259 C 
ENDBRANCH   9  11
ENDBRANCH   6   9
ENDBRANCH   3   6
ENDBRANCH   1   4
BRANCH   1  13
ATOM     12  O   UNL     1      36.713 -20.165 -16.844  0.00  0.00    -0.226 OA
ATOM     13  N   UNL     1      35.699 -22.248 -16.814  0.00  0.00    -0.264 N 
ATOM     14  C   UNL     1      36.235 -21.141 -17.413  0.00  0.00    +0.402 C 
ATOM     15  H   UNL     1      35.346 -22.967 -17.387  0.00  0.00    +0.153 HD
BRANCH  14  16
ATOM     16  O   UNL     1      36.158 -21.286 -18.769  0.00  0.00    -0.430 OA
BRANCH  16  17
ATOM     17  C   UNL     1      34.888 -20.986 -19.359  0.00  0.00    +0.237 C 
BRANCH  17  18
ATOM     18  C   UNL     1      35.067 -19.910 -20.388  0.00  0.00    +0.021 C 
ATOM     19  C   UNL     1      36.283 -19.240 -20.481  0.00  0.00    -0.001 C 
ATOM     20  C   UNL     1      34.016 -19.591 -21.242  0.00  0.00    -0.001 C 
ATOM     21  C   UNL     1      36.449 -18.240 -21.437  0.00  0.00    -0.000 C 
ATOM     22  C   UNL     1      34.182 -18.590 -22.198  0.00  0.00    -0.000 C 
ATOM     23  C   UNL     1      35.399 -17.914 -22.297  0.00  0.00    -0.000 C 
ENDBRANCH  17  18
ENDBRANCH  16  17
ENDBRANCH  14  16
ENDBRANCH   1  13
BRANCH   1  24
ATOM     24  C   UNL     1      34.550 -23.453 -15.008  0.00  0.00    +0.055 C 
BRANCH  24  25
ATOM     25  C   UNL     1      33.169 -23.046 -15.466  0.00  0.00    -0.020 C 
ATOM     26  C   UNL     1      32.162 -22.891 -14.526  0.00  0.00    -0.001 C 
ATOM     27  C   UNL     1      32.937 -22.834 -16.814  0.00  0.00    -0.001 C 
ATOM     28  C   UNL     1      30.887 -22.515 -14.949  0.00  0.00    +0.036 C 
ATOM     29  C   UNL     1      31.662 -22.458 -17.237  0.00  0.00    +0.036 C 
ATOM     30  C   UNL     1      30.637 -22.298 -16.304  0.00  0.00    +0.134 C 
BRANCH  30  31
ATOM     31  O   UNL     1      29.393 -21.931 -16.715  0.00  0.00    -0.506 OA
ATOM     32  H   UNL     1      28.684 -22.540 -16.666  0.00  0.00    +0.292 HD
ENDBRANCH  30  31
ENDBRANCH  24  25
ENDBRANCH   1  24
TORSDOF 11
ENDMDL
MODEL 3
REMARK VINA RESULT:     -10.8      1.864      2.489
REMARK  Name = 15118984
REMARK  11 active torsions:
REMARK  status: ('A' for Active; 'I' for Inactive)
REMARK    1  A    between atoms: C_1  and  C_4
REMARK    2  A    between atoms: C_1  and  N_13
REMARK    3  A    between atoms: C_1  and  C_24
REMARK    4  A    between atoms: N_3  and  C_6
REMARK    5  A    between atoms: C_6  and  C_9
REMARK    6  A    between atoms: C_9  and  C_11
REMARK    7  A    between atoms: C_14  and  O_16
REMARK    8  A    between atoms: O_16  and  C_17
REMARK    9  A    between atoms: C_17  and  C_18
REMARK   10  A    between atoms: C_24  and  C_25
REMARK   11  A    between atoms: C_30  and  O_31
REMARK                            x       y       z     vdW  Elec       q    Type
REMARK                         _______ _______ _______ _____ _____    ______ ____
ROOT
ATOM      1  C   UNL     1      35.116 -22.453 -14.706  0.00  0.00    +0.155 C 
ENDROOT
BRANCH   1   4
ATOM      2  O   UNL     1      37.297 -22.067 -13.721  0.00  0.00    -0.273 OA
ATOM      3  N   UNL     1      36.486 -24.239 -13.806  0.00  0.00    -0.298 N 
ATOM      4  C   UNL     1      36.414 -22.870 -14.021  0.00  0.00    +0.241 C 
ATOM      5  H   UNL     1      35.729 -24.805 -14.079  0.00  0.00    +0.150 HD
BRANCH   3   6
ATOM      6  C   UNL     1      37.636 -24.860 -13.193  0.00  0.00    +0.132 C 
ATOM      7  C   UNL     1      37.248 -25.714 -11.999  0.00  0.00    +0.029 C 
BRANCH   6   9
ATOM      8  O   UNL     1      37.873 -26.790 -14.624  0.00  0.00    -0.291 OA
ATOM      9  C   UNL     1      38.318 -25.702 -14.258  0.00  0.00    +0.204 C 
BRANCH   9  11
ATOM     10  F   UNL     1      40.235 -24.354 -13.921  0.00  0.00    -0.226 F 
ATOM     11  C   UNL     1      39.608 -25.161 -14.819  0.00  0.00    +0.259 C 
ENDBRANCH   9  11
ENDBRANCH   6   9
ENDBRANCH   3   6
ENDBRANCH   1   4
BRANCH   1  13
ATOM     12  O   UNL     1      36.677 -20.529 -16.223  0.00  0.00    -0.226 OA
ATOM     13  N   UNL     1      35.381 -22.448 -16.145  0.00  0.00    -0.264 N 
ATOM     14  C   UNL     1      36.135 -21.488 -16.763  0.00  0.00    +0.402 C 
ATOM     15  H   UNL     1      34.998 -23.170 -16.695  0.00  0.00    +0.153 HD
BRANCH  14  16
ATOM     16  O   UNL     1      36.195 -21.760 -18.100  0.00  0.00    -0.430 OA
BRANCH  16  17
ATOM     17  C   UNL     1      34.957 -21.668 -18.814  0.00  0.00    +0.237 C 
BRANCH  17  18
ATOM     18  C   UNL     1      35.020 -20.502 -19.756  0.00  0.00    +0.021 C 
ATOM     19  C   UNL     1      33.866 -20.082 -20.410  0.00  0.00    -0.001 C 
ATOM     20  C   UNL     1      36.231 -19.852 -19.969  0.00  0.00    -0.001 C 
ATOM     21  C   UNL     1      33.924 -18.999 -21.286  0.00  0.00    -0.000 C 
ATOM     22  C   UNL     1      36.289 -18.769 -20.845  0.00  0.00    -0.000 C 
ATOM     23  C   UNL     1      35.136 -18.342 -21.504  0.00  0.00    -0.000 C 
ENDBRANCH  17  18
ENDBRANCH  16  17
ENDBRANCH  14  16
ENDBRANCH   1  13
BRANCH   1  24
ATOM     24  C   UNL     1      33.988 -23.444 -14.384  0.00  0.00    +0.055 C 
BRANCH  24  25
ATOM     25  C   UNL     1      32.665 -23.045 -14.994  0.00  0.00    -0.020 C 
ATOM     26  C   UNL     1      32.575 -22.879 -16.367  0.00  0.00    -0.001 C 
ATOM     27  C   UNL     1      31.569 -22.852 -14.170  0.00  0.00    -0.001 C 
ATOM     28  C   UNL     1      31.354 -22.511 -16.930  0.00  0.00    +0.036 C 
ATOM     29  C   UNL     1      30.348 -22.484 -14.734  0.00  0.00    +0.036 C 
ATOM     30  C   UNL     1      30.240 -22.313 -16.114  0.00  0.00    +0.134 C 
BRANCH  30  31
ATOM     31  O   UNL     1      29.049 -21.954 -16.664  0.00  0.00    -0.506 OA
ATOM     32  H   UNL     1      28.993 -21.191 -17.206  0.00  0.00    +0.292 HD
ENDBRANCH  30  31
ENDBRANCH  24  25
ENDBRANCH   1  24
TORSDOF 11
ENDMDL
MODEL 4
REMARK VINA RESULT:     -10.7      2.681      6.121
REMARK  Name = 15118984
REMARK  11 active torsions:
REMARK  status: ('A' for Active; 'I' for Inactive)
REMARK    1  A    between atoms: C_1  and  C_4
REMARK    2  A    between atoms: C_1  and  N_13
REMARK    3  A    between atoms: C_1  and  C_24
REMARK    4  A    between atoms: N_3  and  C_6
REMARK    5  A    between atoms: C_6  and  C_9
REMARK    6  A    between atoms: C_9  and  C_11
REMARK    7  A    between atoms: C_14  and  O_16
REMARK    8  A    between atoms: O_16  and  C_17
REMARK    9  A    between atoms: C_17  and  C_18
REMARK   10  A    between atoms: C_24  and  C_25
REMARK   11  A    between atoms: C_30  and  O_31
REMARK                            x       y       z     vdW  Elec       q    Type
REMARK                         _______ _______ _______ _____ _____    ______ ____
ROOT
ATOM      1  C   UNL     1      33.756 -23.077 -16.267  0.00  0.00    +0.155 C 
ENDROOT
BRANCH   1   4
ATOM      2  O   UNL     1      31.353 -23.224 -16.544  0.00  0.00    -0.273 OA
ATOM      3  N   UNL     1      32.205 -22.884 -14.413  0.00  0.00    -0.298 N 
ATOM      4  C   UNL     1      32.309 -23.081 -15.783  0.00  0.00    +0.241 C 
ATOM      5  H   UNL     1      33.027 -22.780 -13.884  0.00  0.00    +0.150 HD
BRANCH   3   6
ATOM      6  C   UNL     1      30.929 -22.827 -13.741  0.00  0.00    +0.132 C 
ATOM      7  C   UNL     1      29.862 -22.181 -14.608  0.00  0.00    +0.029 C 
BRANCH   6   9
ATOM      8  O   UNL     1      31.213 -24.948 -12.622  0.00  0.00    -0.291 OA
ATOM      9  C   UNL     1      30.541 -24.252 -13.384  0.00  0.00    +0.204 C 
BRANCH   9  11
ATOM     10  F   UNL     1      29.629 -25.559 -15.135  0.00  0.00    -0.226 F 
ATOM     11  C   UNL     1      29.307 -24.801 -14.052  0.00  0.00    +0.259 C 
ENDBRANCH   9  11
ENDBRANCH   6   9
ENDBRANCH   3   6
ENDBRANCH   1   4
BRANCH   1  13
ATOM     12  O   UNL     1      33.400 -23.520 -19.115  0.00  0.00    -0.226 OA
ATOM     13  N   UNL     1      33.837 -22.090 -17.345  0.00  0.00    -0.264 N 
ATOM     14  C   UNL     1      33.652 -22.408 -18.663  0.00  0.00    +0.402 C 
ATOM     15  H   UNL     1      34.036 -21.155 -17.111  0.00  0.00    +0.153 HD
BRANCH  14  16
ATOM     16  O   UNL     1      33.792 -21.278 -19.418  0.00  0.00    -0.430 OA
BRANCH  16  17
ATOM     17  C   UNL     1      35.112 -20.728 -19.482  0.00  0.00    +0.237 C 
BRANCH  17  18
ATOM     18  C   UNL     1      35.162 -19.697 -20.570  0.00  0.00    +0.021 C 
ATOM     19  C   UNL     1      34.053 -19.505 -21.389  0.00  0.00    -0.001 C 
ATOM     20  C   UNL     1      36.316 -18.943 -20.753  0.00  0.00    -0.001 C 
ATOM     21  C   UNL     1      34.099 -18.547 -22.400  0.00  0.00    -0.000 C 
ATOM     22  C   UNL     1      36.362 -17.985 -21.766  0.00  0.00    -0.000 C 
ATOM     23  C   UNL     1      35.254 -17.787 -22.590  0.00  0.00    -0.000 C 
ENDBRANCH  17  18
ENDBRANCH  16  17
ENDBRANCH  14  16
ENDBRANCH   1  13
BRANCH   1  24
ATOM     24  C   UNL     1      34.710 -22.687 -15.127  0.00  0.00    +0.055 C 
BRANCH  24  25
ATOM     25  C   UNL     1      35.796 -23.711 -14.897  0.00  0.00    -0.020 C 
ATOM     26  C   UNL     1      37.106 -23.286 -14.747  0.00  0.00    -0.001 C 
ATOM     27  C   UNL     1      35.461 -25.053 -14.839  0.00  0.00    -0.001 C 
ATOM     28  C   UNL     1      38.109 -24.231 -14.533  0.00  0.00    +0.036 C 
ATOM     29  C   UNL     1      36.464 -25.998 -14.625  0.00  0.00    +0.036 C 
ATOM     30  C   UNL     1      37.788 -25.587 -14.472  0.00  0.00    +0.134 C 
BRANCH  30  31
ATOM     31  O   UNL     1      38.767 -26.509 -14.263  0.00  0.00    -0.506 OA
ATOM     32  H   UNL     1      38.775 -27.305 -14.756  0.00  0.00    +0.292 HD
ENDBRANCH  30  31
ENDBRANCH  24  25
ENDBRANCH   1  24
TORSDOF 11
ENDMDL
MODEL 5
REMARK VINA RESULT:     -10.5      3.217      6.576
REMARK  Name = 15118984
REMARK  11 active torsions:
REMARK  status: ('A' for Active; 'I' for Inactive)
REMARK    1  A    between atoms: C_1  and  C_4
REMARK    2  A    between atoms: C_1  and  N_13
REMARK    3  A    between atoms: C_1  and  C_24
REMARK    4  A    between atoms: N_3  and  C_6
REMARK    5  A    between atoms: C_6  and  C_9
REMARK    6  A    between atoms: C_9  and  C_11
REMARK    7  A    between atoms: C_14  and  O_16
REMARK    8  A    between atoms: O_16  and  C_17
REMARK    9  A    between atoms: C_17  and  C_18
REMARK   10  A    between atoms: C_24  and  C_25
REMARK   11  A    between atoms: C_30  and  O_31
REMARK                            x       y       z     vdW  Elec       q    Type
REMARK                         _______ _______ _______ _____ _____    ______ ____
ROOT
ATOM      1  C   UNL     1      32.663 -22.994 -16.642  0.00  0.00    +0.155 C 
ENDROOT
BRANCH   1   4
ATOM      2  O   UNL     1      30.428 -22.244 -17.200  0.00  0.00    -0.273 OA
ATOM      3  N   UNL     1      30.674 -23.900 -15.594  0.00  0.00    -0.298 N 
ATOM      4  C   UNL     1      31.142 -22.992 -16.533  0.00  0.00    +0.241 C 
ATOM      5  H   UNL     1      31.321 -24.458 -15.108  0.00  0.00    +0.150 HD
BRANCH   3   6
ATOM      6  C   UNL     1      29.267 -24.050 -15.307  0.00  0.00    +0.132 C 
ATOM      7  C   UNL     1      29.021 -25.060 -14.200  0.00  0.00    +0.029 C 
BRANCH   6   9
ATOM      8  O   UNL     1      29.296 -21.969 -14.083  0.00  0.00    -0.291 OA
ATOM      9  C   UNL     1      28.735 -22.682 -14.915  0.00  0.00    +0.204 C 
BRANCH   9  11
ATOM     10  F   UNL     1      27.244 -22.904 -16.741  0.00  0.00    -0.226 F 
ATOM     11  C   UNL     1      27.445 -22.250 -15.565  0.00  0.00    +0.259 C 
ENDBRANCH   9  11
ENDBRANCH   6   9
ENDBRANCH   3   6
ENDBRANCH   1   4
BRANCH   1  13
ATOM     12  O   UNL     1      33.499 -23.552 -19.367  0.00  0.00    -0.226 OA
ATOM     13  N   UNL     1      33.013 -22.032 -17.687  0.00  0.00    -0.264 N 
ATOM     14  C   UNL     1      33.396 -22.404 -18.947  0.00  0.00    +0.402 C 
ATOM     15  H   UNL     1      32.971 -21.071 -17.474  0.00  0.00    +0.153 HD
BRANCH  14  16
ATOM     16  O   UNL     1      33.654 -21.284 -19.685  0.00  0.00    -0.430 OA
BRANCH  16  17
ATOM     17  C   UNL     1      34.994 -20.782 -19.613  0.00  0.00    +0.237 C 
BRANCH  17  18
ATOM     18  C   UNL     1      35.163 -19.689 -20.626  0.00  0.00    +0.021 C 
ATOM     19  C   UNL     1      36.371 -19.004 -20.705  0.00  0.00    -0.001 C 
ATOM     20  C   UNL     1      34.111 -19.370 -21.477  0.00  0.00    -0.001 C 
ATOM     21  C   UNL     1      36.529 -17.988 -21.646  0.00  0.00    -0.000 C 
ATOM     22  C   UNL     1      34.268 -18.353 -22.419  0.00  0.00    -0.000 C 
ATOM     23  C   UNL     1      35.477 -17.662 -22.504  0.00  0.00    -0.000 C 
ENDBRANCH  17  18
ENDBRANCH  16  17
ENDBRANCH  14  16
ENDBRANCH   1  13
BRANCH   1  24
ATOM     24  C   UNL     1      33.304 -22.576 -15.310  0.00  0.00    +0.055 C 
BRANCH  24  25
ATOM     25  C   UNL     1      34.785 -22.871 -15.254  0.00  0.00    -0.020 C 
ATOM     26  C   UNL     1      35.684 -21.913 -15.693  0.00  0.00    -0.001 C 
ATOM     27  C   UNL     1      35.214 -24.094 -14.766  0.00  0.00    -0.001 C 
ATOM     28  C   UNL     1      37.050 -22.185 -15.641  0.00  0.00    +0.036 C 
ATOM     29  C   UNL     1      36.581 -24.367 -14.715  0.00  0.00    +0.036 C 
ATOM     30  C   UNL     1      37.500 -23.412 -15.152  0.00  0.00    +0.134 C 
BRANCH  30  31
ATOM     31  O   UNL     1      38.833 -23.677 -15.101  0.00  0.00    -0.506 OA
ATOM     32  H   UNL     1      39.234 -24.195 -15.771  0.00  0.00    +0.292 HD
ENDBRANCH  30  31
ENDBRANCH  24  25
ENDBRANCH   1  24
TORSDOF 11
ENDMDL
MODEL 6
REMARK VINA RESULT:     -10.5      3.108      7.685
REMARK  Name = 15118984
REMARK  11 active torsions:
REMARK  status: ('A' for Active; 'I' for Inactive)
REMARK    1  A    between atoms: C_1  and  C_4
REMARK    2  A    between atoms: C_1  and  N_13
REMARK    3  A    between atoms: C_1  and  C_24
REMARK    4  A    between atoms: N_3  and  C_6
REMARK    5  A    between atoms: C_6  and  C_9
REMARK    6  A    between atoms: C_9  and  C_11
REMARK    7  A    between atoms: C_14  and  O_16
REMARK    8  A    between atoms: O_16  and  C_17
REMARK    9  A    between atoms: C_17  and  C_18
REMARK   10  A    between atoms: C_24  and  C_25
REMARK   11  A    between atoms: C_30  and  O_31
REMARK                            x       y       z     vdW  Elec       q    Type
REMARK                         _______ _______ _______ _____ _____    ______ ____
ROOT
ATOM      1  C   UNL     1      34.652 -21.612 -17.699  0.00  0.00    +0.155 C 
ENDROOT
BRANCH   1   4
ATOM      2  O   UNL     1      33.074 -23.297 -18.439  0.00  0.00    -0.273 OA
ATOM      3  N   UNL     1      32.927 -22.521 -16.258  0.00  0.00    -0.298 N 
ATOM      4  C   UNL     1      33.481 -22.575 -17.529  0.00  0.00    +0.241 C 
ATOM      5  H   UNL     1      33.321 -21.912 -15.593  0.00  0.00    +0.150 HD
BRANCH   3   6
ATOM      6  C   UNL     1      31.793 -23.329 -15.880  0.00  0.00    +0.132 C 
ATOM      7  C   UNL     1      31.914 -23.843 -14.456  0.00  0.00    +0.029 C 
BRANCH   6   9
ATOM      8  O   UNL     1      30.280 -21.885 -17.087  0.00  0.00    -0.291 OA
ATOM      9  C   UNL     1      30.551 -22.468 -16.037  0.00  0.00    +0.204 C 
BRANCH   9  11
ATOM     10  F   UNL     1      28.359 -22.367 -15.148  0.00  0.00    -0.226 F 
ATOM     11  C   UNL     1      29.678 -22.318 -14.818  0.00  0.00    +0.259 C 
ENDBRANCH   9  11
ENDBRANCH   6   9
ENDBRANCH   3   6
ENDBRANCH   1   4
BRANCH   1  13
ATOM     12  O   UNL     1      36.981 -20.094 -16.856  0.00  0.00    -0.226 OA
ATOM     13  N   UNL     1      35.656 -21.989 -16.703  0.00  0.00    -0.264 N 
ATOM     14  C   UNL     1      36.722 -21.194 -16.379  0.00  0.00    +0.402 C 
ATOM     15  H   UNL     1      35.560 -22.856 -16.245  0.00  0.00    +0.153 HD
BRANCH  14  16
ATOM     16  O   UNL     1      37.471 -21.821 -15.424  0.00  0.00    -0.430 OA
BRANCH  16  17
ATOM     17  C   UNL     1      37.148 -23.194 -15.177  0.00  0.00    +0.237 C 
BRANCH  17  18
ATOM     18  C   UNL     1      36.852 -23.372 -13.717  0.00  0.00    +0.021 C 
ATOM     19  C   UNL     1      35.616 -22.981 -13.211  0.00  0.00    -0.001 C 
ATOM     20  C   UNL     1      37.815 -23.927 -12.881  0.00  0.00    -0.001 C 
ATOM     21  C   UNL     1      35.341 -23.147 -11.855  0.00  0.00    -0.000 C 
ATOM     22  C   UNL     1      37.540 -24.093 -11.524  0.00  0.00    -0.000 C 
ATOM     23  C   UNL     1      36.303 -23.703 -11.010  0.00  0.00    -0.000 C 
ENDBRANCH  17  18
ENDBRANCH  16  17
ENDBRANCH  14  16
ENDBRANCH   1  13
BRANCH   1  24
ATOM     24  C   UNL     1      35.247 -21.724 -19.110  0.00  0.00    +0.055 C 
BRANCH  24  25
ATOM     25  C   UNL     1      35.099 -20.452 -19.911  0.00  0.00    -0.020 C 
ATOM     26  C   UNL     1      36.222 -19.686 -20.178  0.00  0.00    -0.001 C 
ATOM     27  C   UNL     1      33.845 -20.076 -20.361  0.00  0.00    -0.001 C 
ATOM     28  C   UNL     1      36.086 -18.511 -20.918  0.00  0.00    +0.036 C 
ATOM     29  C   UNL     1      33.709 -18.902 -21.101  0.00  0.00    +0.036 C 
ATOM     30  C   UNL     1      34.830 -18.119 -21.380  0.00  0.00    +0.134 C 
BRANCH  30  31
ATOM     31  O   UNL     1      34.697 -16.973 -22.101  0.00  0.00    -0.506 OA
ATOM     32  H   UNL     1      35.262 -16.245 -21.933  0.00  0.00    +0.292 HD
ENDBRANCH  30  31
ENDBRANCH  24  25
ENDBRANCH   1  24
TORSDOF 11
ENDMDL
MODEL 7
REMARK VINA RESULT:     -10.3      1.890      2.862
REMARK  Name = 15118984
REMARK  11 active torsions:
REMARK  status: ('A' for Active; 'I' for Inactive)
REMARK    1  A    between atoms: C_1  and  C_4
REMARK    2  A    between atoms: C_1  and  N_13
REMARK    3  A    between atoms: C_1  and  C_24
REMARK    4  A    between atoms: N_3  and  C_6
REMARK    5  A    between atoms: C_6  and  C_9
REMARK    6  A    between atoms: C_9  and  C_11
REMARK    7  A    between atoms: C_14  and  O_16
REMARK    8  A    between atoms: O_16  and  C_17
REMARK    9  A    between atoms: C_17  and  C_18
REMARK   10  A    between atoms: C_24  and  C_25
REMARK   11  A    between atoms: C_30  and  O_31
REMARK                            x       y       z     vdW  Elec       q    Type
REMARK                         _______ _______ _______ _____ _____    ______ ____
ROOT
ATOM      1  C   UNL     1      34.368 -22.704 -15.581  0.00  0.00    +0.155 C 
ENDROOT
BRANCH   1   4
ATOM      2  O   UNL     1      36.245 -24.222 -15.372  0.00  0.00    -0.273 OA
ATOM      3  N   UNL     1      35.699 -22.878 -13.562  0.00  0.00    -0.298 N 
ATOM      4  C   UNL     1      35.541 -23.356 -14.855  0.00  0.00    +0.241 C 
ATOM      5  H   UNL     1      35.087 -22.181 -13.234  0.00  0.00    +0.150 HD
BRANCH   3   6
ATOM      6  C   UNL     1      36.731 -23.372 -12.683  0.00  0.00    +0.132 C 
ATOM      7  C   UNL     1      37.121 -22.343 -11.636  0.00  0.00    +0.029 C 
BRANCH   6   9
ATOM      8  O   UNL     1      35.193 -24.638 -11.319  0.00  0.00    -0.291 OA
ATOM      9  C   UNL     1      36.201 -24.635 -12.025  0.00  0.00    +0.204 C 
BRANCH   9  11
ATOM     10  F   UNL     1      38.296 -25.603 -12.555  0.00  0.00    -0.226 F 
ATOM     11  C   UNL     1      37.004 -25.892 -12.238  0.00  0.00    +0.259 C 
ENDBRANCH   9  11
ENDBRANCH   6   9
ENDBRANCH   3   6
ENDBRANCH   1   4
BRANCH   1  13
ATOM     12  O   UNL     1      36.615 -20.926 -16.056  0.00  0.00    -0.226 OA
ATOM     13  N   UNL     1      34.879 -22.229 -16.867  0.00  0.00    -0.264 N 
ATOM     14  C   UNL     1      35.952 -21.386 -16.979  0.00  0.00    +0.402 C 
ATOM     15  H   UNL     1      34.430 -22.528 -17.691  0.00  0.00    +0.153 HD
BRANCH  14  16
ATOM     16  O   UNL     1      36.181 -21.128 -18.301  0.00  0.00    -0.430 OA
BRANCH  16  17
ATOM     17  C   UNL     1      35.030 -21.163 -19.153  0.00  0.00    +0.237 C 
BRANCH  17  18
ATOM     18  C   UNL     1      35.140 -20.066 -20.170  0.00  0.00    +0.021 C 
ATOM     19  C   UNL     1      36.317 -19.331 -20.266  0.00  0.00    -0.001 C 
ATOM     20  C   UNL     1      34.064 -19.793 -21.008  0.00  0.00    -0.001 C 
ATOM     21  C   UNL     1      36.419 -18.311 -21.211  0.00  0.00    -0.000 C 
ATOM     22  C   UNL     1      34.166 -18.772 -21.953  0.00  0.00    -0.000 C 
ATOM     23  C   UNL     1      35.344 -18.031 -22.055  0.00  0.00    -0.000 C 
ENDBRANCH  17  18
ENDBRANCH  16  17
ENDBRANCH  14  16
ENDBRANCH   1  13
BRANCH   1  24
ATOM     24  C   UNL     1      33.238 -23.719 -15.810  0.00  0.00    +0.055 C 
BRANCH  24  25
ATOM     25  C   UNL     1      31.870 -23.146 -15.525  0.00  0.00    -0.020 C 
ATOM     26  C   UNL     1      31.106 -22.663 -16.575  0.00  0.00    -0.001 C 
ATOM     27  C   UNL     1      31.406 -23.116 -14.221  0.00  0.00    -0.001 C 
ATOM     28  C   UNL     1      29.842 -22.134 -16.313  0.00  0.00    +0.036 C 
ATOM     29  C   UNL     1      30.142 -22.587 -13.958  0.00  0.00    +0.036 C 
ATOM     30  C   UNL     1      29.360 -22.097 -15.004  0.00  0.00    +0.134 C 
BRANCH  30  31
ATOM     31  O   UNL     1      28.127 -21.581 -14.748  0.00  0.00    -0.506 OA
ATOM     32  H   UNL     1      28.043 -20.718 -14.393  0.00  0.00    +0.292 HD
ENDBRANCH  30  31
ENDBRANCH  24  25
ENDBRANCH   1  24
TORSDOF 11
ENDMDL
MODEL 8
REMARK VINA RESULT:     -10.2      2.856      5.935
REMARK  Name = 15118984
REMARK  11 active torsions:
REMARK  status: ('A' for Active; 'I' for Inactive)
REMARK    1  A    between atoms: C_1  and  C_4
REMARK    2  A    between atoms: C_1  and  N_13
REMARK    3  A    between atoms: C_1  and  C_24
REMARK    4  A    between atoms: N_3  and  C_6
REMARK    5  A    between atoms: C_6  and  C_9
REMARK    6  A    between atoms: C_9  and  C_11
REMARK    7  A    between atoms: C_14  and  O_16
REMARK    8  A    between atoms: O_16  and  C_17
REMARK    9  A    between atoms: C_17  and  C_18
REMARK   10  A    between atoms: C_24  and  C_25
REMARK   11  A    between atoms: C_30  and  O_31
REMARK                            x       y       z     vdW  Elec       q    Type
REMARK                         _______ _______ _______ _____ _____    ______ ____
ROOT
ATOM      1  C   UNL     1      34.285 -22.847 -16.215  0.00  0.00    +0.155 C 
ENDROOT
BRANCH   1   4
ATOM      2  O   UNL     1      32.188 -22.894 -17.429  0.00  0.00    -0.273 OA
ATOM      3  N   UNL     1      32.203 -23.580 -15.213  0.00  0.00    -0.298 N 
ATOM      4  C   UNL     1      32.791 -23.107 -16.377  0.00  0.00    +0.241 C 
ATOM      5  H   UNL     1      32.766 -23.720 -14.418  0.00  0.00    +0.150 HD
BRANCH   3   6
ATOM      6  C   UNL     1      30.792 -23.871 -15.129  0.00  0.00    +0.132 C 
ATOM      7  C   UNL     1      30.479 -24.828 -13.992  0.00  0.00    +0.029 C 
BRANCH   6   9
ATOM      8  O   UNL     1      30.412 -21.726 -14.087  0.00  0.00    -0.291 OA
ATOM      9  C   UNL     1      30.067 -22.550 -14.935  0.00  0.00    +0.204 C 
BRANCH   9  11
ATOM     10  F   UNL     1      27.709 -22.588 -15.135  0.00  0.00    -0.226 F 
ATOM     11  C   UNL     1      28.860 -22.310 -15.805  0.00  0.00    +0.259 C 
ENDBRANCH   9  11
ENDBRANCH   6   9
ENDBRANCH   3   6
ENDBRANCH   1   4
BRANCH   1  13
ATOM     12  O   UNL     1      36.937 -21.825 -16.817  0.00  0.00    -0.226 OA
ATOM     13  N   UNL     1      34.665 -21.900 -17.265  0.00  0.00    -0.264 N 
ATOM     14  C   UNL     1      35.953 -21.481 -17.463  0.00  0.00    +0.402 C 
ATOM     15  H   UNL     1      33.960 -21.546 -17.855  0.00  0.00    +0.153 HD
BRANCH  14  16
ATOM     16  O   UNL     1      35.980 -20.604 -18.510  0.00  0.00    -0.430 OA
BRANCH  16  17
ATOM     17  C   UNL     1      34.960 -20.779 -19.500  0.00  0.00    +0.237 C 
BRANCH  17  18
ATOM     18  C   UNL     1      35.105 -19.714 -20.546  0.00  0.00    +0.021 C 
ATOM     19  C   UNL     1      34.034 -19.424 -21.386  0.00  0.00    -0.001 C 
ATOM     20  C   UNL     1      36.307 -19.027 -20.669  0.00  0.00    -0.001 C 
ATOM     21  C   UNL     1      34.168 -18.434 -22.358  0.00  0.00    -0.000 C 
ATOM     22  C   UNL     1      36.442 -18.037 -21.642  0.00  0.00    -0.000 C 
ATOM     23  C   UNL     1      35.372 -17.740 -22.487  0.00  0.00    -0.000 C 
ENDBRANCH  17  18
ENDBRANCH  16  17
ENDBRANCH  14  16
ENDBRANCH   1  13
BRANCH   1  24
ATOM     24  C   UNL     1      34.586 -22.246 -14.834  0.00  0.00    +0.055 C 
BRANCH  24  25
ATOM     25  C   UNL     1      35.189 -23.249 -13.878  0.00  0.00    -0.020 C 
ATOM     26  C   UNL     1      36.165 -24.120 -14.336  0.00  0.00    -0.001 C 
ATOM     27  C   UNL     1      34.754 -23.278 -12.564  0.00  0.00    -0.001 C 
ATOM     28  C   UNL     1      36.721 -25.045 -13.454  0.00  0.00    +0.036 C 
ATOM     29  C   UNL     1      35.311 -24.204 -11.682  0.00  0.00    +0.036 C 
ATOM     30  C   UNL     1      36.295 -25.087 -12.126  0.00  0.00    +0.134 C 
BRANCH  30  31
ATOM     31  O   UNL     1      36.838 -25.990 -11.266  0.00  0.00    -0.506 OA
ATOM     32  H   UNL     1      36.400 -26.800 -11.097  0.00  0.00    +0.292 HD
ENDBRANCH  30  31
ENDBRANCH  24  25
ENDBRANCH   1  24
TORSDOF 11
ENDMDL
MODEL 9
REMARK VINA RESULT:     -10.2      2.449      3.749
REMARK  Name = 15118984
REMARK  11 active torsions:
REMARK  status: ('A' for Active; 'I' for Inactive)
REMARK    1  A    between atoms: C_1  and  C_4
REMARK    2  A    between atoms: C_1  and  N_13
REMARK    3  A    between atoms: C_1  and  C_24
REMARK    4  A    between atoms: N_3  and  C_6
REMARK    5  A    between atoms: C_6  and  C_9
REMARK    6  A    between atoms: C_9  and  C_11
REMARK    7  A    between atoms: C_14  and  O_16
REMARK    8  A    between atoms: O_16  and  C_17
REMARK    9  A    between atoms: C_17  and  C_18
REMARK   10  A    between atoms: C_24  and  C_25
REMARK   11  A    between atoms: C_30  and  O_31
REMARK                            x       y       z     vdW  Elec       q    Type
REMARK                         _______ _______ _______ _____ _____    ______ ____
ROOT
ATOM      1  C   UNL     1      34.710 -21.846 -16.913  0.00  0.00    +0.155 C 
ENDROOT
BRANCH   1   4
ATOM      2  O   UNL     1      37.016 -21.457 -16.276  0.00  0.00    -0.273 OA
ATOM      3  N   UNL     1      35.863 -23.197 -15.264  0.00  0.00    -0.298 N 
ATOM      4  C   UNL     1      35.989 -22.119 -16.128  0.00  0.00    +0.241 C 
ATOM      5  H   UNL     1      35.001 -23.668 -15.212  0.00  0.00    +0.150 HD
BRANCH   3   6
ATOM      6  C   UNL     1      36.957 -23.651 -14.438  0.00  0.00    +0.132 C 
ATOM      7  C   UNL     1      36.932 -23.007 -13.063  0.00  0.00    +0.029 C 
BRANCH   6   9
ATOM      8  O   UNL     1      36.372 -25.857 -15.226  0.00  0.00    -0.291 OA
ATOM      9  C   UNL     1      36.844 -25.162 -14.326  0.00  0.00    +0.204 C 
BRANCH   9  11
ATOM     10  F   UNL     1      38.652 -25.736 -12.910  0.00  0.00    -0.226 F 
ATOM     11  C   UNL     1      37.297 -25.776 -13.027  0.00  0.00    +0.259 C 
ENDBRANCH   9  11
ENDBRANCH   6   9
ENDBRANCH   3   6
ENDBRANCH   1   4
BRANCH   1  13
ATOM     12  O   UNL     1      33.067 -20.757 -19.047  0.00  0.00    -0.226 OA
ATOM     13  N   UNL     1      35.116 -21.522 -18.281  0.00  0.00    -0.264 N 
ATOM     14  C   UNL     1      34.256 -21.010 -19.214  0.00  0.00    +0.402 C 
ATOM     15  H   UNL     1      36.052 -21.681 -18.543  0.00  0.00    +0.153 HD
BRANCH  14  16
ATOM     16  O   UNL     1      34.931 -20.817 -20.386  0.00  0.00    -0.430 OA
BRANCH  16  17
ATOM     17  C   UNL     1      35.735 -19.634 -20.457  0.00  0.00    +0.237 C 
BRANCH  17  18
ATOM     18  C   UNL     1      35.158 -18.711 -21.489  0.00  0.00    +0.021 C 
ATOM     19  C   UNL     1      34.472 -19.238 -22.579  0.00  0.00    -0.001 C 
ATOM     20  C   UNL     1      35.312 -17.336 -21.348  0.00  0.00    -0.001 C 
ATOM     21  C   UNL     1      33.935 -18.380 -23.538  0.00  0.00    -0.000 C 
ATOM     22  C   UNL     1      34.776 -16.478 -22.307  0.00  0.00    -0.000 C 
ATOM     23  C   UNL     1      34.087 -17.000 -23.403  0.00  0.00    -0.000 C 
ENDBRANCH  17  18
ENDBRANCH  16  17
ENDBRANCH  14  16
ENDBRANCH   1  13
BRANCH   1  24
ATOM     24  C   UNL     1      33.799 -23.082 -16.917  0.00  0.00    +0.055 C 
BRANCH  24  25
ATOM     25  C   UNL     1      32.498 -22.853 -16.185  0.00  0.00    -0.020 C 
ATOM     26  C   UNL     1      32.482 -22.902 -14.800  0.00  0.00    -0.001 C 
ATOM     27  C   UNL     1      31.347 -22.598 -16.911  0.00  0.00    -0.001 C 
ATOM     28  C   UNL     1      31.281 -22.689 -14.124  0.00  0.00    +0.036 C 
ATOM     29  C   UNL     1      30.146 -22.386 -16.235  0.00  0.00    +0.036 C 
ATOM     30  C   UNL     1      30.112 -22.431 -14.841  0.00  0.00    +0.134 C 
BRANCH  30  31
ATOM     31  O   UNL     1      28.941 -22.224 -14.181  0.00  0.00    -0.506 OA
ATOM     32  H   UNL     1      28.910 -22.290 -13.248  0.00  0.00    +0.292 HD
ENDBRANCH  30  31
ENDBRANCH  24  25
ENDBRANCH   1  24
TORSDOF 11
ENDMDL
