MODEL 1
REMARK VINA RESULT:     -12.9      0.000      0.000
REMARK  Name = 6918151
REMARK  4 active torsions:
REMARK  status: ('A' for Active; 'I' for Inactive)
REMARK    1  A    between atoms: C_2  and  C_11
REMARK    2  A    between atoms: C_7  and  C_18
REMARK    3  A    between atoms: C_11  and  C_12
REMARK    4  A    between atoms: C_18  and  C_23
REMARK                            x       y       z     vdW  Elec       q    Type
REMARK                         _______ _______ _______ _____ _____    ______ ____
ROOT
ATOM      1  O   UNL     1      35.358 -19.610 -20.312  0.00  0.00    -0.479 OA
ATOM      2  C   UNL     1      34.523 -18.659 -20.990  0.00  0.00    +0.171 C 
ATOM      3  C   UNL     1      33.313 -19.339 -21.629  0.00  0.00    +0.049 C 
ATOM      4  C   UNL     1      32.454 -19.960 -20.534  0.00  0.00    +0.033 C 
ATOM      5  C   UNL     1      33.311 -20.706 -19.553  0.00  0.00    +0.012 C 
ATOM      6  C   UNL     1      34.693 -20.483 -19.489  0.00  0.00    +0.134 C 
ATOM      7  C   UNL     1      33.513 -22.320 -17.751  0.00  0.00    -0.021 C 
ATOM      8  C   UNL     1      32.726 -21.620 -18.667  0.00  0.00    -0.006 C 
ATOM      9  C   UNL     1      35.481 -21.194 -18.581  0.00  0.00    +0.036 C 
ATOM     10  C   UNL     1      34.890 -22.110 -17.711  0.00  0.00    -0.001 C 
ENDROOT
BRANCH   2  11
ATOM     11  C   UNL     1      35.382 -17.978 -22.048  0.00  0.00    +0.070 C 
BRANCH  11  12
ATOM     12  C   UNL     1      34.710 -16.753 -22.607  0.00  0.00    -0.019 C 
ATOM     13  C   UNL     1      34.299 -16.744 -23.934  0.00  0.00    -0.004 C 
ATOM     14  C   UNL     1      34.509 -15.649 -21.790  0.00  0.00    -0.004 C 
ATOM     15  C   UNL     1      33.676 -15.609 -24.453  0.00  0.00    -0.000 C 
ATOM     16  C   UNL     1      33.885 -14.515 -22.309  0.00  0.00    -0.000 C 
ATOM     17  C   UNL     1      33.470 -14.494 -23.640  0.00  0.00    -0.000 C 
ENDBRANCH  11  12
ENDBRANCH   2  11
BRANCH   7  18
ATOM     18  C   UNL     1      32.880 -23.294 -16.817  0.00  0.00    +0.047 C 
BRANCH  18  23
ATOM     19  S   UNL     1      32.640 -23.401 -14.069  0.00  0.00    -0.048 S 
ATOM     20  O   UNL     1      30.038 -22.320 -16.707  0.00  0.00    -0.274 OA
ATOM     21  O   UNL     1      30.666 -24.284 -12.575  0.00  0.00    -0.263 OA
ATOM     22  N   UNL     1      30.147 -23.312 -14.620  0.00  0.00    -0.246 N 
ATOM     23  C   UNL     1      32.189 -22.607 -15.642  0.00  0.00    +0.137 C 
ATOM     24  C   UNL     1      30.684 -22.717 -15.743  0.00  0.00    +0.239 C 
ATOM     25  C   UNL     1      30.982 -23.742 -13.622  0.00  0.00    +0.279 C 
ATOM     26  H   UNL     1      29.173 -23.428 -14.538  0.00  0.00    +0.158 HD
ENDBRANCH  18  23
ENDBRANCH   7  18
TORSDOF 4
ENDMDL
MODEL 2
REMARK VINA RESULT:     -12.6      1.432      1.478
REMARK  Name = 6918151
REMARK  4 active torsions:
REMARK  status: ('A' for Active; 'I' for Inactive)
REMARK    1  A    between atoms: C_2  and  C_11
REMARK    2  A    between atoms: C_7  and  C_18
REMARK    3  A    between atoms: C_11  and  C_12
REMARK    4  A    between atoms: C_18  and  C_23
REMARK                            x       y       z     vdW  Elec       q    Type
REMARK                         _______ _______ _______ _____ _____    ______ ____
ROOT
ATOM      1  O   UNL     1      35.543 -19.506 -20.460  0.00  0.00    -0.479 OA
ATOM      2  C   UNL     1      34.561 -18.689 -21.114  0.00  0.00    +0.171 C 
ATOM      3  C   UNL     1      33.369 -19.522 -21.585  0.00  0.00    +0.049 C 
ATOM      4  C   UNL     1      32.679 -20.134 -20.371  0.00  0.00    +0.033 C 
ATOM      5  C   UNL     1      33.691 -20.723 -19.432  0.00  0.00    +0.012 C 
ATOM      6  C   UNL     1      35.044 -20.372 -19.520  0.00  0.00    +0.134 C 
ATOM      7  C   UNL     1      34.213 -22.172 -17.556  0.00  0.00    -0.021 C 
ATOM      8  C   UNL     1      33.281 -21.617 -18.434  0.00  0.00    -0.006 C 
ATOM      9  C   UNL     1      35.978 -20.938 -18.648  0.00  0.00    +0.036 C 
ATOM     10  C   UNL     1      35.561 -21.835 -17.665  0.00  0.00    -0.001 C 
ENDROOT
BRANCH   2  11
ATOM     11  C   UNL     1      35.249 -18.014 -22.295  0.00  0.00    +0.070 C 
BRANCH  11  12
ATOM     12  C   UNL     1      34.652 -16.665 -22.591  0.00  0.00    -0.019 C 
ATOM     13  C   UNL     1      34.295 -16.346 -23.895  0.00  0.00    -0.004 C 
ATOM     14  C   UNL     1      34.465 -15.757 -21.557  0.00  0.00    -0.004 C 
ATOM     15  C   UNL     1      33.741 -15.096 -24.169  0.00  0.00    -0.000 C 
ATOM     16  C   UNL     1      33.911 -14.507 -21.832  0.00  0.00    -0.000 C 
ATOM     17  C   UNL     1      33.550 -14.176 -23.138  0.00  0.00    -0.000 C 
ENDBRANCH  11  12
ENDBRANCH   2  11
BRANCH   7  18
ATOM     18  C   UNL     1      33.766 -23.126 -16.501  0.00  0.00    +0.047 C 
BRANCH  18  23
ATOM     19  S   UNL     1      35.051 -23.219 -14.060  0.00  0.00    -0.048 S 
ATOM     20  O   UNL     1      31.355 -22.432 -14.845  0.00  0.00    -0.274 OA
ATOM     21  O   UNL     1      34.278 -24.270 -11.778  0.00  0.00    -0.263 OA
ATOM     22  N   UNL     1      32.657 -23.381 -13.185  0.00  0.00    -0.246 N 
ATOM     23  C   UNL     1      33.757 -22.494 -15.112  0.00  0.00    +0.137 C 
ATOM     24  C   UNL     1      32.451 -22.751 -14.395  0.00  0.00    +0.239 C 
ATOM     25  C   UNL     1      33.932 -23.713 -12.809  0.00  0.00    +0.279 C 
ATOM     26  H   UNL     1      31.895 -23.590 -12.598  0.00  0.00    +0.158 HD
ENDBRANCH  18  23
ENDBRANCH   7  18
TORSDOF 4
ENDMDL
MODEL 3
REMARK VINA RESULT:     -12.4      4.557      9.649
REMARK  Name = 6918151
REMARK  4 active torsions:
REMARK  status: ('A' for Active; 'I' for Inactive)
REMARK    1  A    between atoms: C_2  and  C_11
REMARK    2  A    between atoms: C_7  and  C_18
REMARK    3  A    between atoms: C_11  and  C_12
REMARK    4  A    between atoms: C_18  and  C_23
REMARK                            x       y       z     vdW  Elec       q    Type
REMARK                         _______ _______ _______ _____ _____    ______ ____
ROOT
ATOM      1  O   UNL     1      34.088 -22.602 -16.686  0.00  0.00    -0.479 OA
ATOM      2  C   UNL     1      34.922 -22.477 -15.525  0.00  0.00    +0.171 C 
ATOM      3  C   UNL     1      36.402 -22.586 -15.889  0.00  0.00    +0.049 C 
ATOM      4  C   UNL     1      36.775 -21.430 -16.811  0.00  0.00    +0.033 C 
ATOM      5  C   UNL     1      35.741 -21.261 -17.886  0.00  0.00    +0.012 C 
ATOM      6  C   UNL     1      34.470 -21.837 -17.760  0.00  0.00    +0.134 C 
ATOM      7  C   UNL     1      35.080 -20.332 -20.029  0.00  0.00    -0.021 C 
ATOM      8  C   UNL     1      36.033 -20.495 -19.022  0.00  0.00    -0.006 C 
ATOM      9  C   UNL     1      33.521 -21.683 -18.774  0.00  0.00    +0.036 C 
ATOM     10  C   UNL     1      33.826 -20.928 -19.906  0.00  0.00    -0.001 C 
ENDROOT
BRANCH   2  11
ATOM     11  C   UNL     1      34.520 -23.585 -14.559  0.00  0.00    +0.070 C 
BRANCH  11  12
ATOM     12  C   UNL     1      35.558 -23.796 -13.490  0.00  0.00    -0.019 C 
ATOM     13  C   UNL     1      35.796 -22.792 -12.560  0.00  0.00    -0.004 C 
ATOM     14  C   UNL     1      36.264 -24.991 -13.448  0.00  0.00    -0.004 C 
ATOM     15  C   UNL     1      36.758 -22.987 -11.570  0.00  0.00    -0.000 C 
ATOM     16  C   UNL     1      37.226 -25.186 -12.456  0.00  0.00    -0.000 C 
ATOM     17  C   UNL     1      37.473 -24.184 -11.518  0.00  0.00    -0.000 C 
ENDBRANCH  11  12
ENDBRANCH   2  11
BRANCH   7  18
ATOM     18  C   UNL     1      35.404 -19.520 -21.237  0.00  0.00    +0.047 C 
BRANCH  18  23
ATOM     19  S   UNL     1      33.886 -18.734 -23.404  0.00  0.00    -0.048 S 
ATOM     20  O   UNL     1      34.987 -16.686 -20.324  0.00  0.00    -0.274 OA
ATOM     21  O   UNL     1      33.984 -16.526 -24.829  0.00  0.00    -0.263 OA
ATOM     22  N   UNL     1      34.512 -16.402 -22.569  0.00  0.00    -0.246 N 
ATOM     23  C   UNL     1      34.263 -18.586 -21.631  0.00  0.00    +0.137 C 
ATOM     24  C   UNL     1      34.632 -17.137 -21.407  0.00  0.00    +0.239 C 
ATOM     25  C   UNL     1      34.132 -17.031 -23.726  0.00  0.00    +0.279 C 
ATOM     26  H   UNL     1      34.697 -15.435 -22.567  0.00  0.00    +0.158 HD
ENDBRANCH  18  23
ENDBRANCH   7  18
TORSDOF 4
ENDMDL
MODEL 4
REMARK VINA RESULT:     -12.4      2.572      3.366
REMARK  Name = 6918151
REMARK  4 active torsions:
REMARK  status: ('A' for Active; 'I' for Inactive)
REMARK    1  A    between atoms: C_2  and  C_11
REMARK    2  A    between atoms: C_7  and  C_18
REMARK    3  A    between atoms: C_11  and  C_12
REMARK    4  A    between atoms: C_18  and  C_23
REMARK                            x       y       z     vdW  Elec       q    Type
REMARK                         _______ _______ _______ _____ _____    ______ ____
ROOT
ATOM      1  O   UNL     1      33.788 -18.696 -21.773  0.00  0.00    -0.479 OA
ATOM      2  C   UNL     1      34.939 -18.278 -22.522  0.00  0.00    +0.171 C 
ATOM      3  C   UNL     1      36.089 -17.881 -21.599  0.00  0.00    +0.049 C 
ATOM      4  C   UNL     1      36.523 -19.098 -20.791  0.00  0.00    +0.033 C 
ATOM      5  C   UNL     1      35.326 -19.818 -20.242  0.00  0.00    +0.012 C 
ATOM      6  C   UNL     1      34.046 -19.590 -20.764  0.00  0.00    +0.134 C 
ATOM      7  C   UNL     1      34.379 -21.429 -18.692  0.00  0.00    -0.021 C 
ATOM      8  C   UNL     1      35.485 -20.754 -19.211  0.00  0.00    -0.006 C 
ATOM      9  C   UNL     1      32.939 -20.257 -20.235  0.00  0.00    +0.036 C 
ATOM     10  C   UNL     1      33.107 -21.178 -19.202  0.00  0.00    -0.001 C 
ENDROOT
BRANCH   2  11
ATOM     11  C   UNL     1      34.509 -17.100 -23.389  0.00  0.00    +0.070 C 
BRANCH  11  12
ATOM     12  C   UNL     1      34.255 -15.867 -22.565  0.00  0.00    -0.019 C 
ATOM     13  C   UNL     1      34.062 -14.647 -23.202  0.00  0.00    -0.004 C 
ATOM     14  C   UNL     1      34.217 -15.964 -21.181  0.00  0.00    -0.004 C 
ATOM     15  C   UNL     1      33.826 -13.504 -22.439  0.00  0.00    -0.000 C 
ATOM     16  C   UNL     1      33.981 -14.820 -20.419  0.00  0.00    -0.000 C 
ATOM     17  C   UNL     1      33.786 -13.590 -21.047  0.00  0.00    -0.000 C 
ENDBRANCH  11  12
ENDBRANCH   2  11
BRANCH   7  18
ATOM     18  C   UNL     1      34.560 -22.418 -17.591  0.00  0.00    +0.047 C 
BRANCH  18  23
ATOM     19  S   UNL     1      36.856 -21.955 -16.131  0.00  0.00    -0.048 S 
ATOM     20  O   UNL     1      33.247 -22.526 -14.888  0.00  0.00    -0.274 OA
ATOM     21  O   UNL     1      37.728 -23.107 -13.935  0.00  0.00    -0.263 OA
ATOM     22  N   UNL     1      35.433 -22.894 -14.229  0.00  0.00    -0.246 N 
ATOM     23  C   UNL     1      35.055 -21.767 -16.302  0.00  0.00    +0.137 C 
ATOM     24  C   UNL     1      34.454 -22.428 -15.082  0.00  0.00    +0.239 C 
ATOM     25  C   UNL     1      36.751 -22.749 -14.575  0.00  0.00    +0.279 C 
ATOM     26  H   UNL     1      35.186 -23.327 -13.380  0.00  0.00    +0.158 HD
ENDBRANCH  18  23
ENDBRANCH   7  18
TORSDOF 4
ENDMDL
MODEL 5
REMARK VINA RESULT:     -12.2      3.659      9.153
REMARK  Name = 6918151
REMARK  4 active torsions:
REMARK  status: ('A' for Active; 'I' for Inactive)
REMARK    1  A    between atoms: C_2  and  C_11
REMARK    2  A    between atoms: C_7  and  C_18
REMARK    3  A    between atoms: C_11  and  C_12
REMARK    4  A    between atoms: C_18  and  C_23
REMARK                            x       y       z     vdW  Elec       q    Type
REMARK                         _______ _______ _______ _____ _____    ______ ____
ROOT
ATOM      1  O   UNL     1      33.895 -22.703 -16.734  0.00  0.00    -0.479 OA
ATOM      2  C   UNL     1      34.689 -22.591 -15.544  0.00  0.00    +0.171 C 
ATOM      3  C   UNL     1      36.181 -22.696 -15.859  0.00  0.00    +0.049 C 
ATOM      4  C   UNL     1      36.584 -21.531 -16.754  0.00  0.00    +0.033 C 
ATOM      5  C   UNL     1      35.587 -21.348 -17.861  0.00  0.00    +0.012 C 
ATOM      6  C   UNL     1      34.313 -21.926 -17.785  0.00  0.00    +0.134 C 
ATOM      7  C   UNL     1      34.999 -20.394 -20.014  0.00  0.00    -0.021 C 
ATOM      8  C   UNL     1      35.918 -20.570 -18.978  0.00  0.00    -0.006 C 
ATOM      9  C   UNL     1      33.399 -21.759 -18.828  0.00  0.00    +0.036 C 
ATOM     10  C   UNL     1      33.742 -20.991 -19.941  0.00  0.00    -0.001 C 
ENDROOT
BRANCH   2  11
ATOM     11  C   UNL     1      34.255 -23.711 -14.605  0.00  0.00    +0.070 C 
BRANCH  11  12
ATOM     12  C   UNL     1      32.799 -23.598 -14.240  0.00  0.00    -0.019 C 
ATOM     13  C   UNL     1      32.185 -24.635 -13.550  0.00  0.00    -0.004 C 
ATOM     14  C   UNL     1      32.090 -22.460 -14.598  0.00  0.00    -0.004 C 
ATOM     15  C   UNL     1      30.836 -24.531 -13.211  0.00  0.00    -0.000 C 
ATOM     16  C   UNL     1      30.741 -22.356 -14.259  0.00  0.00    -0.000 C 
ATOM     17  C   UNL     1      30.114 -23.391 -13.567  0.00  0.00    -0.000 C 
ENDBRANCH  11  12
ENDBRANCH   2  11
BRANCH   7  18
ATOM     18  C   UNL     1      35.364 -19.568 -21.201  0.00  0.00    +0.047 C 
BRANCH  18  23
ATOM     19  S   UNL     1      33.868 -18.785 -23.384  0.00  0.00    -0.048 S 
ATOM     20  O   UNL     1      35.002 -16.713 -20.332  0.00  0.00    -0.274 OA
ATOM     21  O   UNL     1      34.013 -16.601 -24.841  0.00  0.00    -0.263 OA
ATOM     22  N   UNL     1      34.538 -16.453 -22.583  0.00  0.00    -0.246 N 
ATOM     23  C   UNL     1      34.243 -18.617 -21.613  0.00  0.00    +0.137 C 
ATOM     24  C   UNL     1      34.640 -17.173 -21.410  0.00  0.00    +0.239 C 
ATOM     25  C   UNL     1      34.149 -17.092 -23.731  0.00  0.00    +0.279 C 
ATOM     26  H   UNL     1      34.743 -15.491 -22.595  0.00  0.00    +0.158 HD
ENDBRANCH  18  23
ENDBRANCH   7  18
TORSDOF 4
ENDMDL
MODEL 6
REMARK VINA RESULT:     -12.2      7.346     11.495
REMARK  Name = 6918151
REMARK  4 active torsions:
REMARK  status: ('A' for Active; 'I' for Inactive)
REMARK    1  A    between atoms: C_2  and  C_11
REMARK    2  A    between atoms: C_7  and  C_18
REMARK    3  A    between atoms: C_11  and  C_12
REMARK    4  A    between atoms: C_18  and  C_23
REMARK                            x       y       z     vdW  Elec       q    Type
REMARK                         _______ _______ _______ _____ _____    ______ ____
ROOT
ATOM      1  O   UNL     1      34.193 -14.285 -23.103  0.00  0.00    -0.479 OA
ATOM      2  C   UNL     1      34.043 -15.465 -22.300  0.00  0.00    +0.171 C 
ATOM      3  C   UNL     1      34.089 -15.133 -20.809  0.00  0.00    +0.049 C 
ATOM      4  C   UNL     1      32.913 -14.227 -20.464  0.00  0.00    +0.033 C 
ATOM      5  C   UNL     1      32.778 -13.131 -21.481  0.00  0.00    +0.012 C 
ATOM      6  C   UNL     1      33.406 -13.226 -22.729  0.00  0.00    +0.134 C 
ATOM      7  C   UNL     1      31.860 -10.980 -22.132  0.00  0.00    -0.021 C 
ATOM      8  C   UNL     1      31.992 -12.006 -21.195  0.00  0.00    -0.006 C 
ATOM      9  C   UNL     1      33.283 -12.192 -23.661  0.00  0.00    +0.036 C 
ATOM     10  C   UNL     1      32.508 -11.072 -23.363  0.00  0.00    -0.001 C 
ENDROOT
BRANCH   2  11
ATOM     11  C   UNL     1      35.174 -16.415 -22.677  0.00  0.00    +0.070 C 
BRANCH  11  12
ATOM     12  C   UNL     1      35.137 -17.678 -21.860  0.00  0.00    -0.019 C 
ATOM     13  C   UNL     1      33.955 -18.402 -21.774  0.00  0.00    -0.004 C 
ATOM     14  C   UNL     1      36.284 -18.103 -21.203  0.00  0.00    -0.004 C 
ATOM     15  C   UNL     1      33.920 -19.573 -21.017  0.00  0.00    -0.000 C 
ATOM     16  C   UNL     1      36.248 -19.274 -20.447  0.00  0.00    -0.000 C 
ATOM     17  C   UNL     1      35.067 -20.009 -20.353  0.00  0.00    -0.000 C 
ENDBRANCH  11  12
ENDBRANCH   2  11
BRANCH   7  18
ATOM     18  C   UNL     1      31.027  -9.785 -21.815  0.00  0.00    +0.047 C 
BRANCH  18  23
ATOM     19  S   UNL     1      31.711  -7.588 -20.291  0.00  0.00    -0.048 S 
ATOM     20  O   UNL     1      31.183  -7.844 -24.106  0.00  0.00    -0.274 OA
ATOM     21  O   UNL     1      30.833  -5.112 -20.399  0.00  0.00    -0.263 OA
ATOM     22  N   UNL     1      30.950  -6.325 -22.378  0.00  0.00    -0.246 N 
ATOM     23  C   UNL     1      31.830  -8.488 -21.867  0.00  0.00    +0.137 C 
ATOM     24  C   UNL     1      31.292  -7.546 -22.921  0.00  0.00    +0.239 C 
ATOM     25  C   UNL     1      31.091  -6.127 -21.029  0.00  0.00    +0.279 C 
ATOM     26  H   UNL     1      30.607  -5.604 -22.953  0.00  0.00    +0.158 HD
ENDBRANCH  18  23
ENDBRANCH   7  18
TORSDOF 4
ENDMDL
MODEL 7
REMARK VINA RESULT:     -12.1      2.474      2.891
REMARK  Name = 6918151
REMARK  4 active torsions:
REMARK  status: ('A' for Active; 'I' for Inactive)
REMARK    1  A    between atoms: C_2  and  C_11
REMARK    2  A    between atoms: C_7  and  C_18
REMARK    3  A    between atoms: C_11  and  C_12
REMARK    4  A    between atoms: C_18  and  C_23
REMARK                            x       y       z     vdW  Elec       q    Type
REMARK                         _______ _______ _______ _____ _____    ______ ____
ROOT
ATOM      1  O   UNL     1      35.571 -19.953 -19.914  0.00  0.00    -0.479 OA
ATOM      2  C   UNL     1      34.550 -19.223 -20.609  0.00  0.00    +0.171 C 
ATOM      3  C   UNL     1      33.388 -20.133 -21.006  0.00  0.00    +0.049 C 
ATOM      4  C   UNL     1      32.736 -20.687 -19.746  0.00  0.00    +0.033 C 
ATOM      5  C   UNL     1      33.780 -21.169 -18.782  0.00  0.00    +0.012 C 
ATOM      6  C   UNL     1      35.118 -20.771 -18.910  0.00  0.00    +0.134 C 
ATOM      7  C   UNL     1      34.380 -22.463 -16.818  0.00  0.00    -0.021 C 
ATOM      8  C   UNL     1      33.417 -22.008 -17.719  0.00  0.00    -0.006 C 
ATOM      9  C   UNL     1      36.082 -21.238 -18.014  0.00  0.00    +0.036 C 
ATOM     10  C   UNL     1      35.712 -22.082 -16.967  0.00  0.00    -0.001 C 
ENDROOT
BRANCH   2  11
ATOM     11  C   UNL     1      35.198 -18.604 -21.842  0.00  0.00    +0.070 C 
BRANCH  11  12
ATOM     12  C   UNL     1      34.737 -17.188 -22.062  0.00  0.00    -0.019 C 
ATOM     13  C   UNL     1      34.501 -16.368 -20.966  0.00  0.00    -0.004 C 
ATOM     14  C   UNL     1      34.555 -16.721 -23.356  0.00  0.00    -0.004 C 
ATOM     15  C   UNL     1      34.075 -15.056 -21.169  0.00  0.00    -0.000 C 
ATOM     16  C   UNL     1      34.129 -15.408 -23.559  0.00  0.00    -0.000 C 
ATOM     17  C   UNL     1      33.888 -14.576 -22.466  0.00  0.00    -0.000 C 
ENDBRANCH  11  12
ENDBRANCH   2  11
BRANCH   7  18
ATOM     18  C   UNL     1      33.983 -23.361 -15.695  0.00  0.00    +0.047 C 
BRANCH  18  23
ATOM     19  S   UNL     1      36.407 -24.104 -14.604  0.00  0.00    -0.048 S 
ATOM     20  O   UNL     1      33.077 -23.296 -12.828  0.00  0.00    -0.274 OA
ATOM     21  O   UNL     1      36.946 -25.814 -12.680  0.00  0.00    -0.263 OA
ATOM     22  N   UNL     1      34.950 -24.628 -12.571  0.00  0.00    -0.246 N 
ATOM     23  C   UNL     1      34.857 -23.164 -14.458  0.00  0.00    +0.137 C 
ATOM     24  C   UNL     1      34.176 -23.681 -13.211  0.00  0.00    +0.239 C 
ATOM     25  C   UNL     1      36.152 -24.996 -13.119  0.00  0.00    +0.279 C 
ATOM     26  H   UNL     1      34.642 -25.035 -11.730  0.00  0.00    +0.158 HD
ENDBRANCH  18  23
ENDBRANCH   7  18
TORSDOF 4
ENDMDL
MODEL 8
REMARK VINA RESULT:     -12.1      4.056      9.009
REMARK  Name = 6918151
REMARK  4 active torsions:
REMARK  status: ('A' for Active; 'I' for Inactive)
REMARK    1  A    between atoms: C_2  and  C_11
REMARK    2  A    between atoms: C_7  and  C_18
REMARK    3  A    between atoms: C_11  and  C_12
REMARK    4  A    between atoms: C_18  and  C_23
REMARK                            x       y       z     vdW  Elec       q    Type
REMARK                         _______ _______ _______ _____ _____    ______ ____
ROOT
ATOM      1  O   UNL     1      34.641 -21.846 -18.194  0.00  0.00    -0.479 OA
ATOM      2  C   UNL     1      33.366 -22.500 -18.114  0.00  0.00    +0.171 C 
ATOM      3  C   UNL     1      32.220 -21.490 -18.161  0.00  0.00    +0.049 C 
ATOM      4  C   UNL     1      32.247 -20.768 -19.503  0.00  0.00    +0.033 C 
ATOM      5  C   UNL     1      33.646 -20.342 -19.842  0.00  0.00    +0.012 C 
ATOM      6  C   UNL     1      34.749 -20.906 -19.187  0.00  0.00    +0.134 C 
ATOM      7  C   UNL     1      35.159 -18.983 -21.167  0.00  0.00    -0.021 C 
ATOM      8  C   UNL     1      33.863 -19.387 -20.844  0.00  0.00    -0.006 C 
ATOM      9  C   UNL     1      36.045 -20.490 -19.503  0.00  0.00    +0.036 C 
ATOM     10  C   UNL     1      36.249 -19.532 -20.495  0.00  0.00    -0.001 C 
ENDROOT
BRANCH   2  11
ATOM     11  C   UNL     1      33.342 -23.284 -16.807  0.00  0.00    +0.070 C 
BRANCH  11  12
ATOM     12  C   UNL     1      32.120 -22.966 -15.989  0.00  0.00    -0.019 C 
ATOM     13  C   UNL     1      32.269 -22.493 -14.691  0.00  0.00    -0.004 C 
ATOM     14  C   UNL     1      30.860 -23.149 -16.541  0.00  0.00    -0.004 C 
ATOM     15  C   UNL     1      31.137 -22.198 -13.933  0.00  0.00    -0.000 C 
ATOM     16  C   UNL     1      29.727 -22.853 -15.782  0.00  0.00    -0.000 C 
ATOM     17  C   UNL     1      29.866 -22.378 -14.479  0.00  0.00    -0.000 C 
ENDBRANCH  11  12
ENDBRANCH   2  11
BRANCH   7  18
ATOM     18  C   UNL     1      35.377 -17.962 -22.232  0.00  0.00    +0.047 C 
BRANCH  18  23
ATOM     19  S   UNL     1      33.747 -17.298 -24.359  0.00  0.00    -0.048 S 
ATOM     20  O   UNL     1      34.511 -15.294 -21.150  0.00  0.00    -0.274 OA
ATOM     21  O   UNL     1      33.484 -15.020 -25.644  0.00  0.00    -0.263 OA
ATOM     22  N   UNL     1      33.990 -14.952 -23.377  0.00  0.00    -0.246 N 
ATOM     23  C   UNL     1      34.099 -17.201 -22.577  0.00  0.00    +0.137 C 
ATOM     24  C   UNL     1      34.230 -15.728 -22.262  0.00  0.00    +0.239 C 
ATOM     25  C   UNL     1      33.715 -15.562 -24.574  0.00  0.00    +0.279 C 
ATOM     26  H   UNL     1      34.017 -13.970 -23.314  0.00  0.00    +0.158 HD
ENDBRANCH  18  23
ENDBRANCH   7  18
TORSDOF 4
ENDMDL
MODEL 9
REMARK VINA RESULT:     -11.9      4.188      9.096
REMARK  Name = 6918151
REMARK  4 active torsions:
REMARK  status: ('A' for Active; 'I' for Inactive)
REMARK    1  A    between atoms: C_2  and  C_11
REMARK    2  A    between atoms: C_7  and  C_18
REMARK    3  A    between atoms: C_11  and  C_12
REMARK    4  A    between atoms: C_18  and  C_23
REMARK                            x       y       z     vdW  Elec       q    Type
REMARK                         _______ _______ _______ _____ _____    ______ ____
ROOT
ATOM      1  O   UNL     1      34.568 -22.233 -16.843  0.00  0.00    -0.479 OA
ATOM      2  C   UNL     1      33.349 -22.965 -16.651  0.00  0.00    +0.171 C 
ATOM      3  C   UNL     1      32.130 -22.123 -17.025  0.00  0.00    +0.049 C 
ATOM      4  C   UNL     1      32.196 -21.782 -18.509  0.00  0.00    +0.033 C 
ATOM      5  C   UNL     1      33.576 -21.325 -18.883  0.00  0.00    +0.012 C 
ATOM      6  C   UNL     1      34.671 -21.583 -18.047  0.00  0.00    +0.134 C 
ATOM      7  C   UNL     1      35.064 -20.223 -20.452  0.00  0.00    -0.021 C 
ATOM      8  C   UNL     1      33.786 -20.654 -20.094  0.00  0.00    -0.006 C 
ATOM      9  C   UNL     1      35.948 -21.140 -18.400  0.00  0.00    +0.036 C 
ATOM     10  C   UNL     1      36.144 -20.463 -19.604  0.00  0.00    -0.001 C 
ENDROOT
BRANCH   2  11
ATOM     11  C   UNL     1      33.294 -23.373 -15.183  0.00  0.00    +0.070 C 
BRANCH  11  12
ATOM     12  C   UNL     1      34.659 -23.715 -14.649  0.00  0.00    -0.019 C 
ATOM     13  C   UNL     1      35.202 -24.966 -14.912  0.00  0.00    -0.004 C 
ATOM     14  C   UNL     1      35.357 -22.777 -13.902  0.00  0.00    -0.004 C 
ATOM     15  C   UNL     1      36.467 -25.284 -14.418  0.00  0.00    -0.000 C 
ATOM     16  C   UNL     1      36.622 -23.095 -13.408  0.00  0.00    -0.000 C 
ATOM     17  C   UNL     1      37.177 -24.348 -13.665  0.00  0.00    -0.000 C 
ENDBRANCH  11  12
ENDBRANCH   2  11
BRANCH   7  18
ATOM     18  C   UNL     1      35.275 -19.504 -21.741  0.00  0.00    +0.047 C 
BRANCH  18  23
ATOM     19  S   UNL     1      33.799 -18.357 -23.772  0.00  0.00    -0.048 S 
ATOM     20  O   UNL     1      35.069 -16.780 -20.486  0.00  0.00    -0.274 OA
ATOM     21  O   UNL     1      34.042 -16.005 -24.922  0.00  0.00    -0.263 OA
ATOM     22  N   UNL     1      34.596 -16.193 -22.673  0.00  0.00    -0.246 N 
ATOM     23  C   UNL     1      34.200 -18.452 -22.001  0.00  0.00    +0.137 C 
ATOM     24  C   UNL     1      34.673 -17.070 -21.611  0.00  0.00    +0.239 C 
ATOM     25  C   UNL     1      34.163 -16.649 -23.891  0.00  0.00    +0.279 C 
ATOM     26  H   UNL     1      34.850 -15.249 -22.558  0.00  0.00    +0.158 HD
ENDBRANCH  18  23
ENDBRANCH   7  18
TORSDOF 4
ENDMDL
