MODEL 1
REMARK VINA RESULT:     -12.6      0.000      0.000
REMARK  Name = 46866319
REMARK  3 active torsions:
REMARK  status: ('A' for Active; 'I' for Inactive)
REMARK    1  A    between atoms: C_6  and  C_17
REMARK    2  A    between atoms: N_21  and  C_23
REMARK    3  A    between atoms: C_23  and  C_26
REMARK                            x       y       z     vdW  Elec       q    Type
REMARK                         _______ _______ _______ _____ _____    ______ ____
ROOT
ATOM      1  N   UNL     1      34.553 -22.206 -17.264  0.00  0.00    -0.376 NA
ATOM      2  N   UNL     1      36.899 -22.087 -16.867  0.00  0.00    -0.279 N 
ATOM      3  N   UNL     1      35.981 -23.481 -15.170  0.00  0.00    -0.252 NA
ATOM      4  N   UNL     1      38.560 -23.805 -14.119  0.00  0.00    -0.264 NA
ATOM      5  C   UNL     1      33.502 -21.835 -18.029  0.00  0.00    +0.181 C 
ATOM      6  C   UNL     1      34.862 -20.534 -19.482  0.00  0.00    -0.007 C 
ATOM      7  C   UNL     1      33.602 -21.010 -19.137  0.00  0.00    +0.044 C 
ATOM      8  C   UNL     1      35.967 -20.895 -18.720  0.00  0.00    +0.101 C 
ATOM      9  C   UNL     1      35.762 -21.725 -17.630  0.00  0.00    +0.167 C 
ATOM     10  C   UNL     1      37.057 -22.891 -15.727  0.00  0.00    +0.131 C 
ATOM     11  C   UNL     1      38.325 -23.051 -15.211  0.00  0.00    +0.186 C 
ATOM     12  C   UNL     1      36.217 -24.236 -14.079  0.00  0.00    +0.173 C 
ATOM     13  C   UNL     1      37.484 -24.395 -13.563  0.00  0.00    +0.094 C 
ATOM     14  H   UNL     1      37.740 -21.700 -17.200  0.00  0.00    +0.155 HD
ATOM     15  N   UNL     1      32.245 -22.297 -17.695  0.00  0.00    -0.306 N 
ATOM     16  H   UNL     1      31.483 -22.022 -18.254  0.00  0.00    +0.149 HD
ENDROOT
BRANCH   6  19
ATOM     17  N   UNL     1      34.591 -18.595 -22.471  0.00  0.00    -0.208 N 
ATOM     18  N   UNL     1      35.850 -18.226 -22.180  0.00  0.00    -0.176 NA
ATOM     19  C   UNL     1      35.020 -19.675 -20.622  0.00  0.00    +0.034 C 
ATOM     20  C   UNL     1      34.049 -19.462 -21.569  0.00  0.00    +0.085 C 
ATOM     21  C   UNL     1      36.107 -18.889 -21.049  0.00  0.00    +0.119 C 
ATOM     22  C   UNL     1      33.947 -18.075 -23.653  0.00  0.00    +0.140 C 
ENDBRANCH   6  19
BRANCH  15  23
ATOM     23  C   UNL     1      31.990 -23.170 -16.558  0.00  0.00    +0.094 C 
ATOM     24  C   UNL     1      32.960 -22.796 -15.427  0.00  0.00    +0.026 C 
BRANCH  23  26
ATOM     25  F   UNL     1      26.578 -22.992 -15.053  0.00  0.00    -0.204 F 
ATOM     26  C   UNL     1      30.554 -23.122 -16.158  0.00  0.00    -0.004 C 
ATOM     27  C   UNL     1      29.749 -22.063 -16.575  0.00  0.00    -0.000 C 
ATOM     28  C   UNL     1      30.017 -24.138 -15.368  0.00  0.00    -0.000 C 
ATOM     29  C   UNL     1      28.406 -22.018 -16.203  0.00  0.00    +0.029 C 
ATOM     30  C   UNL     1      28.673 -24.093 -14.994  0.00  0.00    +0.029 C 
ATOM     31  C   UNL     1      27.869 -23.033 -15.412  0.00  0.00    +0.140 C 
ENDBRANCH  23  26
ENDBRANCH  15  23
TORSDOF 3
ENDMDL
MODEL 2
REMARK VINA RESULT:     -12.4      3.045      6.420
REMARK  Name = 46866319
REMARK  3 active torsions:
REMARK  status: ('A' for Active; 'I' for Inactive)
REMARK    1  A    between atoms: C_6  and  C_17
REMARK    2  A    between atoms: N_21  and  C_23
REMARK    3  A    between atoms: C_23  and  C_26
REMARK                            x       y       z     vdW  Elec       q    Type
REMARK                         _______ _______ _______ _____ _____    ______ ____
ROOT
ATOM      1  N   UNL     1      33.737 -22.453 -16.678  0.00  0.00    -0.376 NA
ATOM      2  N   UNL     1      31.418 -22.297 -17.198  0.00  0.00    -0.279 N 
ATOM      3  N   UNL     1      31.592 -23.560 -15.188  0.00  0.00    -0.252 NA
ATOM      4  N   UNL     1      28.797 -23.784 -15.153  0.00  0.00    -0.264 NA
ATOM      5  C   UNL     1      35.009 -22.141 -17.014  0.00  0.00    +0.181 C 
ATOM      6  C   UNL     1      34.333 -20.960 -18.964  0.00  0.00    -0.007 C 
ATOM      7  C   UNL     1      35.356 -21.405 -18.135  0.00  0.00    +0.044 C 
ATOM      8  C   UNL     1      33.012 -21.260 -18.651  0.00  0.00    +0.101 C 
ATOM      9  C   UNL     1      32.769 -22.004 -17.507  0.00  0.00    +0.167 C 
ATOM     10  C   UNL     1      30.821 -23.008 -16.146  0.00  0.00    +0.131 C 
ATOM     11  C   UNL     1      29.447 -23.118 -16.128  0.00  0.00    +0.186 C 
ATOM     12  C   UNL     1      30.942 -24.225 -14.213  0.00  0.00    +0.173 C 
ATOM     13  C   UNL     1      29.569 -24.336 -14.196  0.00  0.00    +0.094 C 
ATOM     14  H   UNL     1      30.774 -21.932 -17.846  0.00  0.00    +0.155 HD
ATOM     15  N   UNL     1      36.035 -22.579 -16.203  0.00  0.00    -0.306 N 
ATOM     16  H   UNL     1      36.960 -22.351 -16.454  0.00  0.00    +0.149 HD
ENDROOT
BRANCH   6  19
ATOM     17  N   UNL     1      34.403 -19.137 -22.037  0.00  0.00    -0.208 N 
ATOM     18  N   UNL     1      35.708 -18.983 -21.754  0.00  0.00    -0.176 NA
ATOM     19  C   UNL     1      34.638 -20.194 -20.139  0.00  0.00    +0.034 C 
ATOM     20  C   UNL     1      33.718 -19.855 -21.101  0.00  0.00    +0.085 C 
ATOM     21  C   UNL     1      35.846 -19.631 -20.594  0.00  0.00    +0.119 C 
ATOM     22  C   UNL     1      33.859 -18.563 -23.244  0.00  0.00    +0.140 C 
ENDBRANCH   6  19
BRANCH  15  23
ATOM     23  C   UNL     1      35.819 -23.361 -14.994  0.00  0.00    +0.094 C 
ATOM     24  C   UNL     1      34.664 -24.341 -15.245  0.00  0.00    +0.026 C 
BRANCH  23  26
ATOM     25  F   UNL     1      40.575 -25.850 -13.326  0.00  0.00    -0.204 F 
ATOM     26  C   UNL     1      37.082 -24.021 -14.551  0.00  0.00    -0.004 C 
ATOM     27  C   UNL     1      37.068 -24.890 -13.460  0.00  0.00    -0.000 C 
ATOM     28  C   UNL     1      38.275 -23.769 -15.228  0.00  0.00    -0.000 C 
ATOM     29  C   UNL     1      38.248 -25.509 -13.046  0.00  0.00    +0.029 C 
ATOM     30  C   UNL     1      39.455 -24.387 -14.814  0.00  0.00    +0.029 C 
ATOM     31  C   UNL     1      39.441 -25.257 -13.723  0.00  0.00    +0.140 C 
ENDBRANCH  23  26
ENDBRANCH  15  23
TORSDOF 3
ENDMDL
MODEL 3
REMARK VINA RESULT:     -12.3      2.960      7.050
REMARK  Name = 46866319
REMARK  3 active torsions:
REMARK  status: ('A' for Active; 'I' for Inactive)
REMARK    1  A    between atoms: C_6  and  C_17
REMARK    2  A    between atoms: N_21  and  C_23
REMARK    3  A    between atoms: C_23  and  C_26
REMARK                            x       y       z     vdW  Elec       q    Type
REMARK                         _______ _______ _______ _____ _____    ______ ____
ROOT
ATOM      1  N   UNL     1      33.971 -22.367 -16.871  0.00  0.00    -0.376 NA
ATOM      2  N   UNL     1      34.551 -23.474 -14.843  0.00  0.00    -0.279 N 
ATOM      3  N   UNL     1      36.591 -22.860 -15.902  0.00  0.00    -0.252 NA
ATOM      4  N   UNL     1      37.986 -24.011 -13.759  0.00  0.00    -0.264 NA
ATOM      5  C   UNL     1      32.994 -21.926 -17.695  0.00  0.00    +0.181 C 
ATOM      6  C   UNL     1      31.265 -22.738 -16.279  0.00  0.00    -0.007 C 
ATOM      7  C   UNL     1      31.640 -22.085 -17.447  0.00  0.00    +0.044 C 
ATOM      8  C   UNL     1      32.241 -23.205 -15.406  0.00  0.00    +0.101 C 
ATOM      9  C   UNL     1      33.568 -22.997 -15.745  0.00  0.00    +0.167 C 
ATOM     10  C   UNL     1      35.953 -23.438 -14.865  0.00  0.00    +0.131 C 
ATOM     11  C   UNL     1      36.639 -24.003 -13.812  0.00  0.00    +0.186 C 
ATOM     12  C   UNL     1      37.938 -22.867 -15.849  0.00  0.00    +0.173 C 
ATOM     13  C   UNL     1      38.622 -23.432 -14.797  0.00  0.00    +0.094 C 
ATOM     14  H   UNL     1      34.177 -23.916 -14.047  0.00  0.00    +0.155 HD
ATOM     15  N   UNL     1      33.352 -21.280 -18.860  0.00  0.00    -0.306 N 
ATOM     16  H   UNL     1      32.637 -20.963 -19.458  0.00  0.00    +0.149 HD
ENDROOT
BRANCH   6  19
ATOM     17  N   UNL     1      27.735 -22.545 -15.758  0.00  0.00    -0.208 N 
ATOM     18  N   UNL     1      27.873 -23.804 -15.308  0.00  0.00    -0.176 NA
ATOM     19  C   UNL     1      29.875 -22.928 -15.975  0.00  0.00    +0.034 C 
ATOM     20  C   UNL     1      28.904 -21.976 -16.169  0.00  0.00    +0.085 C 
ATOM     21  C   UNL     1      29.182 -24.032 -15.443  0.00  0.00    +0.119 C 
ATOM     22  C   UNL     1      26.431 -21.926 -15.769  0.00  0.00    +0.140 C 
ENDBRANCH   6  19
BRANCH  15  23
ATOM     23  C   UNL     1      34.735 -21.043 -19.250  0.00  0.00    +0.094 C 
ATOM     24  C   UNL     1      35.346 -22.373 -19.716  0.00  0.00    +0.026 C 
BRANCH  23  26
ATOM     25  F   UNL     1      35.081 -16.931 -23.065  0.00  0.00    -0.204 F 
ATOM     26  C   UNL     1      34.827 -19.952 -20.262  0.00  0.00    -0.004 C 
ATOM     27  C   UNL     1      36.001 -19.209 -20.382  0.00  0.00    -0.000 C 
ATOM     28  C   UNL     1      33.738 -19.674 -21.089  0.00  0.00    -0.000 C 
ATOM     29  C   UNL     1      36.087 -18.189 -21.329  0.00  0.00    +0.029 C 
ATOM     30  C   UNL     1      33.824 -18.653 -22.036  0.00  0.00    +0.029 C 
ATOM     31  C   UNL     1      34.999 -17.911 -22.155  0.00  0.00    +0.140 C 
ENDBRANCH  23  26
ENDBRANCH  15  23
TORSDOF 3
ENDMDL
MODEL 4
REMARK VINA RESULT:     -12.0      2.853      5.955
REMARK  Name = 46866319
REMARK  3 active torsions:
REMARK  status: ('A' for Active; 'I' for Inactive)
REMARK    1  A    between atoms: C_6  and  C_17
REMARK    2  A    between atoms: N_21  and  C_23
REMARK    3  A    between atoms: C_23  and  C_26
REMARK                            x       y       z     vdW  Elec       q    Type
REMARK                         _______ _______ _______ _____ _____    ______ ____
ROOT
ATOM      1  N   UNL     1      33.043 -23.059 -16.390  0.00  0.00    -0.376 NA
ATOM      2  N   UNL     1      30.796 -22.547 -16.993  0.00  0.00    -0.279 N 
ATOM      3  N   UNL     1      30.691 -24.048 -15.150  0.00  0.00    -0.252 NA
ATOM      4  N   UNL     1      27.893 -23.915 -15.272  0.00  0.00    -0.264 NA
ATOM      5  C   UNL     1      34.361 -22.875 -16.626  0.00  0.00    +0.181 C 
ATOM      6  C   UNL     1      33.954 -21.397 -18.443  0.00  0.00    -0.007 C 
ATOM      7  C   UNL     1      34.863 -22.063 -17.630  0.00  0.00    +0.044 C 
ATOM      8  C   UNL     1      32.590 -21.559 -18.230  0.00  0.00    +0.101 C 
ATOM      9  C   UNL     1      32.189 -22.394 -17.201  0.00  0.00    +0.167 C 
ATOM     10  C   UNL     1      30.053 -23.293 -16.066  0.00  0.00    +0.131 C 
ATOM     11  C   UNL     1      28.678 -23.228 -16.125  0.00  0.00    +0.186 C 
ATOM     12  C   UNL     1      29.906 -24.735 -14.296  0.00  0.00    +0.173 C 
ATOM     13  C   UNL     1      28.532 -24.670 -14.356  0.00  0.00    +0.094 C 
ATOM     14  H   UNL     1      30.242 -22.028 -17.620  0.00  0.00    +0.155 HD
ATOM     15  N   UNL     1      35.275 -23.533 -15.829  0.00  0.00    -0.306 N 
ATOM     16  H   UNL     1      36.234 -23.397 -16.007  0.00  0.00    +0.149 HD
ENDROOT
BRANCH   6  19
ATOM     17  N   UNL     1      34.441 -19.284 -21.284  0.00  0.00    -0.208 N 
ATOM     18  N   UNL     1      35.722 -19.267 -20.877  0.00  0.00    -0.176 NA
ATOM     19  C   UNL     1      34.422 -20.543 -19.498  0.00  0.00    +0.034 C 
ATOM     20  C   UNL     1      33.622 -20.034 -20.492  0.00  0.00    +0.085 C 
ATOM     21  C   UNL     1      35.704 -20.038 -19.786  0.00  0.00    +0.119 C 
ATOM     22  C   UNL     1      34.054 -18.549 -22.464  0.00  0.00    +0.140 C 
ENDBRANCH   6  19
BRANCH  15  23
ATOM     23  C   UNL     1      34.891 -24.418 -14.737  0.00  0.00    +0.094 C 
ATOM     24  C   UNL     1      35.459 -25.817 -15.019  0.00  0.00    +0.026 C 
BRANCH  23  26
ATOM     25  F   UNL     1      36.460 -22.297  -9.775  0.00  0.00    -0.204 F 
ATOM     26  C   UNL     1      35.308 -23.855 -13.420  0.00  0.00    -0.004 C 
ATOM     27  C   UNL     1      34.569 -24.144 -12.274  0.00  0.00    -0.000 C 
ATOM     28  C   UNL     1      36.435 -23.038 -13.336  0.00  0.00    -0.000 C 
ATOM     29  C   UNL     1      34.958 -23.619 -11.042  0.00  0.00    +0.029 C 
ATOM     30  C   UNL     1      36.824 -22.512 -12.104  0.00  0.00    +0.029 C 
ATOM     31  C   UNL     1      36.086 -22.803 -10.957  0.00  0.00    +0.140 C 
ENDBRANCH  23  26
ENDBRANCH  15  23
TORSDOF 3
ENDMDL
MODEL 5
REMARK VINA RESULT:     -11.6      3.208      8.255
REMARK  Name = 46866319
REMARK  3 active torsions:
REMARK  status: ('A' for Active; 'I' for Inactive)
REMARK    1  A    between atoms: C_6  and  C_17
REMARK    2  A    between atoms: N_21  and  C_23
REMARK    3  A    between atoms: C_23  and  C_26
REMARK                            x       y       z     vdW  Elec       q    Type
REMARK                         _______ _______ _______ _____ _____    ______ ____
ROOT
ATOM      1  N   UNL     1      34.033 -22.212 -17.013  0.00  0.00    -0.376 NA
ATOM      2  N   UNL     1      32.945 -21.138 -18.841  0.00  0.00    -0.279 N 
ATOM      3  N   UNL     1      35.277 -20.728 -19.087  0.00  0.00    -0.252 NA
ATOM      4  N   UNL     1      34.718 -19.276 -21.420  0.00  0.00    -0.264 NA
ATOM      5  C   UNL     1      33.919 -22.957 -15.891  0.00  0.00    +0.181 C 
ATOM      6  C   UNL     1      31.552 -23.087 -16.072  0.00  0.00    -0.007 C 
ATOM      7  C   UNL     1      32.714 -23.415 -15.384  0.00  0.00    +0.044 C 
ATOM      8  C   UNL     1      31.629 -22.322 -17.231  0.00  0.00    +0.101 C 
ATOM      9  C   UNL     1      32.882 -21.913 -17.656  0.00  0.00    +0.167 C 
ATOM     10  C   UNL     1      34.018 -20.568 -19.543  0.00  0.00    +0.131 C 
ATOM     11  C   UNL     1      33.744 -19.855 -20.690  0.00  0.00    +0.186 C 
ATOM     12  C   UNL     1      36.250 -20.150 -19.818  0.00  0.00    +0.173 C 
ATOM     13  C   UNL     1      35.976 -19.437 -20.963  0.00  0.00    +0.094 C 
ATOM     14  H   UNL     1      32.067 -20.968 -19.250  0.00  0.00    +0.155 HD
ATOM     15  N   UNL     1      35.064 -23.287 -15.196  0.00  0.00    -0.306 N 
ATOM     16  H   UNL     1      34.975 -23.829 -14.378  0.00  0.00    +0.149 HD
ENDROOT
BRANCH   6  19
ATOM     17  N   UNL     1      28.754 -24.735 -14.580  0.00  0.00    -0.208 N 
ATOM     18  N   UNL     1      28.047 -23.735 -15.134  0.00  0.00    -0.176 NA
ATOM     19  C   UNL     1      30.277 -23.536 -15.589  0.00  0.00    +0.034 C 
ATOM     20  C   UNL     1      30.094 -24.661 -14.823  0.00  0.00    +0.085 C 
ATOM     21  C   UNL     1      28.982 -23.007 -15.750  0.00  0.00    +0.119 C 
ATOM     22  C   UNL     1      28.077 -25.753 -13.813  0.00  0.00    +0.140 C 
ENDBRANCH   6  19
BRANCH  15  23
ATOM     23  C   UNL     1      36.397 -22.875 -15.611  0.00  0.00    +0.094 C 
ATOM     24  C   UNL     1      36.565 -21.379 -15.304  0.00  0.00    +0.026 C 
BRANCH  23  26
ATOM     25  F   UNL     1      40.334 -26.126 -13.261  0.00  0.00    -0.204 F 
ATOM     26  C   UNL     1      37.442 -23.738 -14.987  0.00  0.00    -0.004 C 
ATOM     27  C   UNL     1      37.095 -24.633 -13.976  0.00  0.00    -0.000 C 
ATOM     28  C   UNL     1      38.767 -23.648 -15.415  0.00  0.00    -0.000 C 
ATOM     29  C   UNL     1      38.071 -25.440 -13.393  0.00  0.00    +0.029 C 
ATOM     30  C   UNL     1      39.744 -24.456 -14.831  0.00  0.00    +0.029 C 
ATOM     31  C   UNL     1      39.395 -25.351 -13.821  0.00  0.00    +0.140 C 
ENDBRANCH  23  26
ENDBRANCH  15  23
TORSDOF 3
ENDMDL
MODEL 6
REMARK VINA RESULT:     -11.2      3.303      8.497
REMARK  Name = 46866319
REMARK  3 active torsions:
REMARK  status: ('A' for Active; 'I' for Inactive)
REMARK    1  A    between atoms: C_6  and  C_17
REMARK    2  A    between atoms: N_21  and  C_23
REMARK    3  A    between atoms: C_23  and  C_26
REMARK                            x       y       z     vdW  Elec       q    Type
REMARK                         _______ _______ _______ _____ _____    ______ ____
ROOT
ATOM      1  N   UNL     1      32.191 -22.908 -16.000  0.00  0.00    -0.376 NA
ATOM      2  N   UNL     1      30.405 -23.371 -14.493  0.00  0.00    -0.279 N 
ATOM      3  N   UNL     1      29.422 -22.554 -16.500  0.00  0.00    -0.252 NA
ATOM      4  N   UNL     1      26.896 -22.858 -15.319  0.00  0.00    -0.264 NA
ATOM      5  C   UNL     1      33.524 -22.902 -16.228  0.00  0.00    +0.181 C 
ATOM      6  C   UNL     1      34.022 -23.746 -14.061  0.00  0.00    -0.007 C 
ATOM      7  C   UNL     1      34.471 -23.308 -15.301  0.00  0.00    +0.044 C 
ATOM      8  C   UNL     1      32.658 -23.766 -13.789  0.00  0.00    +0.101 C 
ATOM      9  C   UNL     1      31.792 -23.340 -14.783  0.00  0.00    +0.167 C 
ATOM     10  C   UNL     1      29.273 -23.022 -15.244  0.00  0.00    +0.131 C 
ATOM     11  C   UNL     1      28.032 -23.171 -14.665  0.00  0.00    +0.186 C 
ATOM     12  C   UNL     1      28.286 -22.242 -17.154  0.00  0.00    +0.173 C 
ATOM     13  C   UNL     1      27.046 -22.390 -16.574  0.00  0.00    +0.094 C 
ATOM     14  H   UNL     1      30.196 -23.702 -13.590  0.00  0.00    +0.155 HD
ATOM     15  N   UNL     1      33.984 -22.467 -17.453  0.00  0.00    -0.306 N 
ATOM     16  H   UNL     1      34.956 -22.463 -17.613  0.00  0.00    +0.149 HD
ENDROOT
BRANCH   6  19
ATOM     17  N   UNL     1      36.781 -24.955 -12.139  0.00  0.00    -0.208 N 
ATOM     18  N   UNL     1      35.982 -24.697 -11.089  0.00  0.00    -0.176 NA
ATOM     19  C   UNL     1      34.962 -24.177 -13.065  0.00  0.00    +0.034 C 
ATOM     20  C   UNL     1      36.216 -24.661 -13.345  0.00  0.00    +0.085 C 
ATOM     21  C   UNL     1      34.873 -24.222 -11.661  0.00  0.00    +0.119 C 
ATOM     22  C   UNL     1      38.101 -25.496 -11.920  0.00  0.00    +0.140 C 
ENDBRANCH   6  19
BRANCH  15  23
ATOM     23  C   UNL     1      33.105 -22.012 -18.521  0.00  0.00    +0.094 C 
ATOM     24  C   UNL     1      31.811 -21.473 -17.894  0.00  0.00    +0.026 C 
BRANCH  23  26
ATOM     25  F   UNL     1      35.720 -18.312 -21.846  0.00  0.00    -0.204 F 
ATOM     26  C   UNL     1      33.799 -21.030 -19.404  0.00  0.00    -0.004 C 
ATOM     27  C   UNL     1      33.058 -20.216 -20.259  0.00  0.00    -0.000 C 
ATOM     28  C   UNL     1      35.190 -20.928 -19.375  0.00  0.00    -0.000 C 
ATOM     29  C   UNL     1      33.706 -19.297 -21.084  0.00  0.00    +0.029 C 
ATOM     30  C   UNL     1      35.839 -20.009 -20.200  0.00  0.00    +0.029 C 
ATOM     31  C   UNL     1      35.096 -19.194 -21.054  0.00  0.00    +0.140 C 
ENDBRANCH  23  26
ENDBRANCH  15  23
TORSDOF 3
ENDMDL
