MODEL 1
REMARK VINA RESULT:     -10.0      0.000      0.000
REMARK  Name = 37632
REMARK  3 active torsions:
REMARK  status: ('A' for Active; 'I' for Inactive)
REMARK    1  A    between atoms: C_7  and  C_22
REMARK    2  A    between atoms: C_11  and  C_16
REMARK    3  A    between atoms: C_22  and  N_23
REMARK                            x       y       z     vdW  Elec       q    Type
REMARK                         _______ _______ _______ _____ _____    ______ ____
ROOT
ATOM      1 CL   UNL     1      36.503 -20.405 -17.374  0.00  0.00    -0.082 Cl
ATOM      2  N   UNL     1      36.484 -24.491 -13.075  0.00  0.00    -0.281 N 
ATOM      3  N   UNL     1      33.825 -23.165 -12.375  0.00  0.00    -0.262 NA
ATOM      4  N   UNL     1      37.048 -26.202 -11.807  0.00  0.00    -0.135 NA
ATOM      5  N   UNL     1      36.130 -25.445 -11.120  0.00  0.00    -0.131 NA
ATOM      6  C   UNL     1      36.419 -23.564 -14.139  0.00  0.00    +0.068 C 
ATOM      7  C   UNL     1      37.270 -25.608 -12.958  0.00  0.00    +0.126 A 
ATOM      8  C   UNL     1      35.819 -24.411 -11.872  0.00  0.00    +0.172 A 
ATOM      9  C   UNL     1      35.294 -22.740 -14.339  0.00  0.00    +0.034 C 
ATOM     10  C   UNL     1      34.978 -23.252 -11.501  0.00  0.00    +0.191 C 
ATOM     11  C   UNL     1      33.982 -22.934 -13.635  0.00  0.00    +0.078 C 
ATOM     12  C   UNL     1      37.530 -23.446 -14.991  0.00  0.00    +0.019 C 
ATOM     13  C   UNL     1      35.345 -21.751 -15.336  0.00  0.00    +0.014 C 
ATOM     14  C   UNL     1      37.549 -22.474 -15.991  0.00  0.00    +0.013 C 
ATOM     15  C   UNL     1      36.466 -21.618 -16.154  0.00  0.00    +0.058 C 
ENDROOT
BRANCH  11  16
ATOM     16  C   UNL     1      32.733 -22.888 -14.453  0.00  0.00    +0.017 C 
ATOM     17  C   UNL     1      32.816 -22.988 -15.835  0.00  0.00    +0.001 C 
ATOM     18  C   UNL     1      31.505 -22.748 -13.818  0.00  0.00    +0.001 C 
ATOM     19  C   UNL     1      31.649 -22.946 -16.598  0.00  0.00    +0.000 C 
ATOM     20  C   UNL     1      30.339 -22.706 -14.582  0.00  0.00    +0.000 C 
ATOM     21  C   UNL     1      30.411 -22.805 -15.972  0.00  0.00    +0.000 C 
ENDBRANCH  11  16
BRANCH   7  22
ATOM     22  C   UNL     1      38.115 -26.202 -14.014  0.00  0.00    -0.010 C 
BRANCH  22  23
ATOM     23  N   UNL     1      39.521 -25.903 -13.801  0.00  0.00    +0.389 N 
ATOM     24  C   UNL     1      39.680 -24.662 -13.035  0.00  0.00    -0.100 C 
ATOM     25  C   UNL     1      40.231 -25.798 -15.079  0.00  0.00    -0.100 C 
ATOM     26  H   UNL     1      39.924 -26.671 -13.266  0.00  0.00    -0.079 HD
ENDBRANCH  22  23
ENDBRANCH   7  22
TORSDOF 3
ENDMDL
MODEL 2
REMARK VINA RESULT:      -9.2      3.608      7.066
REMARK  Name = 37632
REMARK  3 active torsions:
REMARK  status: ('A' for Active; 'I' for Inactive)
REMARK    1  A    between atoms: C_7  and  C_22
REMARK    2  A    between atoms: C_11  and  C_16
REMARK    3  A    between atoms: C_22  and  N_23
REMARK                            x       y       z     vdW  Elec       q    Type
REMARK                         _______ _______ _______ _____ _____    ______ ____
ROOT
ATOM      1 CL   UNL     1      32.701 -24.263 -12.715  0.00  0.00    -0.082 Cl
ATOM      2  N   UNL     1      35.066 -21.766 -17.549  0.00  0.00    -0.281 N 
ATOM      3  N   UNL     1      37.600 -21.820 -15.848  0.00  0.00    -0.262 NA
ATOM      4  N   UNL     1      35.310 -20.955 -19.582  0.00  0.00    -0.135 NA
ATOM      5  N   UNL     1      36.351 -20.498 -18.812  0.00  0.00    -0.131 NA
ATOM      6  C   UNL     1      34.551 -22.437 -16.417  0.00  0.00    +0.068 C 
ATOM      7  C   UNL     1      34.537 -21.686 -18.811  0.00  0.00    +0.126 A 
ATOM      8  C   UNL     1      36.183 -20.963 -17.592  0.00  0.00    +0.172 A 
ATOM      9  C   UNL     1      35.375 -22.811 -15.337  0.00  0.00    +0.034 C 
ATOM     10  C   UNL     1      36.973 -20.629 -16.387  0.00  0.00    +0.191 C 
ATOM     11  C   UNL     1      36.876 -22.781 -15.383  0.00  0.00    +0.078 C 
ATOM     12  C   UNL     1      33.172 -22.698 -16.364  0.00  0.00    +0.019 C 
ATOM     13  C   UNL     1      34.781 -23.359 -14.187  0.00  0.00    +0.014 C 
ATOM     14  C   UNL     1      32.607 -23.267 -15.223  0.00  0.00    +0.013 C 
ATOM     15  C   UNL     1      33.406 -23.582 -14.130  0.00  0.00    +0.058 C 
ENDROOT
BRANCH  11  16
ATOM     16  C   UNL     1      37.618 -23.973 -14.874  0.00  0.00    +0.017 C 
ATOM     17  C   UNL     1      36.920 -25.131 -14.562  0.00  0.00    +0.001 C 
ATOM     18  C   UNL     1      38.997 -23.907 -14.723  0.00  0.00    +0.001 C 
ATOM     19  C   UNL     1      37.613 -26.245 -14.088  0.00  0.00    +0.000 C 
ATOM     20  C   UNL     1      39.690 -25.021 -14.249  0.00  0.00    +0.000 C 
ATOM     21  C   UNL     1      38.998 -26.190 -13.931  0.00  0.00    +0.000 C 
ENDBRANCH  11  16
BRANCH   7  22
ATOM     22  C   UNL     1      33.379 -22.444 -19.328  0.00  0.00    -0.010 C 
BRANCH  22  23
ATOM     23  N   UNL     1      32.235 -21.578 -19.552  0.00  0.00    +0.389 N 
ATOM     24  C   UNL     1      32.639 -20.345 -20.236  0.00  0.00    -0.100 C 
ATOM     25  C   UNL     1      31.569 -21.255 -18.286  0.00  0.00    -0.100 C 
ATOM     26  H   UNL     1      31.576 -22.080 -20.147  0.00  0.00    -0.079 HD
ENDBRANCH  22  23
ENDBRANCH   7  22
TORSDOF 3
ENDMDL
MODEL 3
REMARK VINA RESULT:      -9.1      2.811      6.839
REMARK  Name = 37632
REMARK  3 active torsions:
REMARK  status: ('A' for Active; 'I' for Inactive)
REMARK    1  A    between atoms: C_7  and  C_22
REMARK    2  A    between atoms: C_11  and  C_16
REMARK    3  A    between atoms: C_22  and  N_23
REMARK                            x       y       z     vdW  Elec       q    Type
REMARK                         _______ _______ _______ _____ _____    ______ ____
ROOT
ATOM      1 CL   UNL     1      35.387 -23.751 -10.050  0.00  0.00    -0.082 Cl
ATOM      2  N   UNL     1      34.373 -22.725 -15.803  0.00  0.00    -0.281 N 
ATOM      3  N   UNL     1      37.408 -22.405 -15.871  0.00  0.00    -0.262 NA
ATOM      4  N   UNL     1      33.357 -22.499 -17.745  0.00  0.00    -0.135 NA
ATOM      5  N   UNL     1      34.583 -21.886 -17.830  0.00  0.00    -0.131 NA
ATOM      6  C   UNL     1      34.653 -23.050 -14.458  0.00  0.00    +0.068 C 
ATOM      7  C   UNL     1      33.233 -22.970 -16.524  0.00  0.00    +0.126 A 
ATOM      8  C   UNL     1      35.172 -22.001 -16.659  0.00  0.00    +0.172 A 
ATOM      9  C   UNL     1      35.974 -23.147 -13.977  0.00  0.00    +0.034 C 
ATOM     10  C   UNL     1      36.445 -21.382 -16.231  0.00  0.00    +0.191 C 
ATOM     11  C   UNL     1      37.185 -23.180 -14.864  0.00  0.00    +0.078 C 
ATOM     12  C   UNL     1      33.576 -23.241 -13.577  0.00  0.00    +0.019 C 
ATOM     13  C   UNL     1      36.184 -23.346 -12.601  0.00  0.00    +0.014 C 
ATOM     14  C   UNL     1      33.807 -23.463 -12.220  0.00  0.00    +0.013 C 
ATOM     15  C   UNL     1      35.107 -23.500 -11.729  0.00  0.00    +0.058 C 
ENDROOT
BRANCH  11  16
ATOM     16  C   UNL     1      38.226 -24.217 -14.593  0.00  0.00    +0.017 C 
ATOM     17  C   UNL     1      39.564 -23.848 -14.554  0.00  0.00    +0.001 C 
ATOM     18  C   UNL     1      37.841 -25.534 -14.383  0.00  0.00    +0.001 C 
ATOM     19  C   UNL     1      40.536 -24.815 -14.300  0.00  0.00    +0.000 C 
ATOM     20  C   UNL     1      38.814 -26.501 -14.128  0.00  0.00    +0.000 C 
ATOM     21  C   UNL     1      40.161 -26.142 -14.088  0.00  0.00    +0.000 C 
ENDBRANCH  11  16
BRANCH   7  22
ATOM     22  C   UNL     1      32.087 -23.800 -16.100  0.00  0.00    -0.010 C 
BRANCH  22  23
ATOM     23  N   UNL     1      31.055 -22.996 -15.467  0.00  0.00    +0.389 N 
ATOM     24  C   UNL     1      30.220 -23.819 -14.585  0.00  0.00    -0.100 C 
ATOM     25  C   UNL     1      30.219 -22.334 -16.474  0.00  0.00    -0.100 C 
ATOM     26  H   UNL     1      31.517 -22.281 -14.906  0.00  0.00    -0.079 HD
ENDBRANCH  22  23
ENDBRANCH   7  22
TORSDOF 3
ENDMDL
MODEL 4
REMARK VINA RESULT:      -8.4      1.584      2.115
REMARK  Name = 37632
REMARK  3 active torsions:
REMARK  status: ('A' for Active; 'I' for Inactive)
REMARK    1  A    between atoms: C_7  and  C_22
REMARK    2  A    between atoms: C_11  and  C_16
REMARK    3  A    between atoms: C_22  and  N_23
REMARK                            x       y       z     vdW  Elec       q    Type
REMARK                         _______ _______ _______ _____ _____    ______ ____
ROOT
ATOM      1 CL   UNL     1      33.709 -21.644 -18.235  0.00  0.00    -0.082 Cl
ATOM      2  N   UNL     1      34.968 -24.113 -12.991  0.00  0.00    -0.281 N 
ATOM      3  N   UNL     1      32.182 -23.082 -12.287  0.00  0.00    -0.262 NA
ATOM      4  N   UNL     1      35.996 -25.222 -11.389  0.00  0.00    -0.135 NA
ATOM      5  N   UNL     1      35.020 -24.446 -10.813  0.00  0.00    -0.131 NA
ATOM      6  C   UNL     1      34.606 -23.592 -14.253  0.00  0.00    +0.068 C 
ATOM      7  C   UNL     1      35.973 -24.993 -12.683  0.00  0.00    +0.126 A 
ATOM      8  C   UNL     1      34.429 -23.766 -11.772  0.00  0.00    +0.172 A 
ATOM      9  C   UNL     1      33.323 -23.067 -14.499  0.00  0.00    +0.034 C 
ATOM     10  C   UNL     1      33.413 -22.702 -11.623  0.00  0.00    +0.191 C 
ATOM     11  C   UNL     1      32.157 -23.238 -13.568  0.00  0.00    +0.078 C 
ATOM     12  C   UNL     1      35.575 -23.570 -15.270  0.00  0.00    +0.019 C 
ATOM     13  C   UNL     1      33.067 -22.448 -15.735  0.00  0.00    +0.014 C 
ATOM     14  C   UNL     1      35.292 -22.974 -16.499  0.00  0.00    +0.013 C 
ATOM     15  C   UNL     1      34.047 -22.400 -16.726  0.00  0.00    +0.058 C 
ENDROOT
BRANCH  11  16
ATOM     16  C   UNL     1      30.847 -23.656 -14.151  0.00  0.00    +0.017 C 
ATOM     17  C   UNL     1      30.041 -22.710 -14.769  0.00  0.00    +0.001 C 
ATOM     18  C   UNL     1      30.454 -24.985 -14.068  0.00  0.00    +0.001 C 
ATOM     19  C   UNL     1      28.818 -23.099 -15.314  0.00  0.00    +0.000 C 
ATOM     20  C   UNL     1      29.231 -25.375 -14.614  0.00  0.00    +0.000 C 
ATOM     21  C   UNL     1      28.413 -24.432 -15.237  0.00  0.00    +0.000 C 
ENDBRANCH  11  16
BRANCH   7  22
ATOM     22  C   UNL     1      36.807 -25.745 -13.643  0.00  0.00    -0.010 C 
BRANCH  22  23
ATOM     23  N   UNL     1      38.219 -25.636 -13.320  0.00  0.00    +0.389 N 
ATOM     24  C   UNL     1      38.540 -24.290 -12.834  0.00  0.00    -0.100 C 
ATOM     25  C   UNL     1      39.048 -25.960 -14.484  0.00  0.00    -0.100 C 
ATOM     26  H   UNL     1      38.421 -26.307 -12.579  0.00  0.00    -0.079 HD
ENDBRANCH  22  23
ENDBRANCH   7  22
TORSDOF 3
ENDMDL
MODEL 5
REMARK VINA RESULT:      -8.3     12.868     14.953
REMARK  Name = 37632
REMARK  3 active torsions:
REMARK  status: ('A' for Active; 'I' for Inactive)
REMARK    1  A    between atoms: C_7  and  C_22
REMARK    2  A    between atoms: C_11  and  C_16
REMARK    3  A    between atoms: C_22  and  N_23
REMARK                            x       y       z     vdW  Elec       q    Type
REMARK                         _______ _______ _______ _____ _____    ______ ____
ROOT
ATOM      1 CL   UNL     1      31.274 -11.062 -19.003  0.00  0.00    -0.082 Cl
ATOM      2  N   UNL     1      33.321 -14.235 -23.578  0.00  0.00    -0.281 N 
ATOM      3  N   UNL     1      32.596 -11.711 -25.136  0.00  0.00    -0.262 NA
ATOM      4  N   UNL     1      34.221 -15.854 -24.769  0.00  0.00    -0.135 NA
ATOM      5  N   UNL     1      33.540 -15.022 -25.624  0.00  0.00    -0.131 NA
ATOM      6  C   UNL     1      32.908 -13.425 -22.496  0.00  0.00    +0.068 C 
ATOM      7  C   UNL     1      34.059 -15.389 -23.551  0.00  0.00    +0.126 A 
ATOM      8  C   UNL     1      32.982 -14.073 -24.903  0.00  0.00    +0.172 A 
ATOM      9  C   UNL     1      32.551 -12.074 -22.674  0.00  0.00    +0.034 C 
ATOM     10  C   UNL     1      32.040 -13.031 -25.364  0.00  0.00    +0.191 C 
ATOM     11  C   UNL     1      32.815 -11.299 -23.933  0.00  0.00    +0.078 C 
ATOM     12  C   UNL     1      32.820 -14.007 -21.221  0.00  0.00    +0.019 C 
ATOM     13  C   UNL     1      32.027 -11.360 -21.582  0.00  0.00    +0.014 C 
ATOM     14  C   UNL     1      32.321 -13.272 -20.145  0.00  0.00    +0.013 C 
ATOM     15  C   UNL     1      31.911 -11.957 -20.328  0.00  0.00    +0.058 C 
ENDROOT
BRANCH  11  16
ATOM     16  C   UNL     1      33.413  -9.936 -23.807  0.00  0.00    +0.017 C 
ATOM     17  C   UNL     1      34.684  -9.698 -24.311  0.00  0.00    +0.001 C 
ATOM     18  C   UNL     1      32.687  -8.926 -23.188  0.00  0.00    +0.001 C 
ATOM     19  C   UNL     1      35.242  -8.425 -24.193  0.00  0.00    +0.000 C 
ATOM     20  C   UNL     1      33.246  -7.653 -23.072  0.00  0.00    +0.000 C 
ATOM     21  C   UNL     1      34.523  -7.402 -23.574  0.00  0.00    +0.000 C 
ENDBRANCH  11  16
BRANCH   7  22
ATOM     22  C   UNL     1      34.752 -15.962 -22.378  0.00  0.00    -0.010 C 
BRANCH  22  23
ATOM     23  N   UNL     1      35.226 -17.308 -22.647  0.00  0.00    +0.389 N 
ATOM     24  C   UNL     1      34.103 -18.216 -22.902  0.00  0.00    -0.100 C 
ATOM     25  C   UNL     1      36.033 -17.809 -21.530  0.00  0.00    -0.100 C 
ATOM     26  H   UNL     1      35.812 -17.271 -23.481  0.00  0.00    -0.079 HD
ENDBRANCH  22  23
ENDBRANCH   7  22
TORSDOF 3
ENDMDL
