MODEL 1
REMARK VINA RESULT:     -13.7      0.000      0.000
REMARK  Name = 54676038
REMARK  4 active torsions:
REMARK  status: ('A' for Active; 'I' for Inactive)
REMARK    1  A    between atoms: C_1  and  C_4
REMARK    2  A    between atoms: C_1  and  C_17
REMARK    3  A    between atoms: C_5  and  O_13
REMARK    4  A    between atoms: C_18  and  O_26
REMARK                            x       y       z     vdW  Elec       q    Type
REMARK                         _______ _______ _______ _____ _____    ______ ____
ROOT
ATOM      1  C   UNL     1      35.447 -17.259 -22.869  0.00  0.00    +0.072 C 
ENDROOT
BRANCH   1   4
ATOM      2  O   UNL     1      33.251 -19.934 -21.382  0.00  0.00    -0.421 OA
ATOM      3  O   UNL     1      33.010 -18.532 -23.157  0.00  0.00    -0.245 OA
ATOM      4  C   UNL     1      35.045 -18.341 -21.935  0.00  0.00    +0.092 A 
ATOM      5  C   UNL     1      35.779 -18.800 -20.904  0.00  0.00    +0.139 A 
ATOM      6  C   UNL     1      35.275 -19.869 -20.039  0.00  0.00    +0.068 A 
ATOM      7  C   UNL     1      34.020 -20.407 -20.305  0.00  0.00    +0.152 A 
ATOM      8  C   UNL     1      33.701 -18.923 -22.221  0.00  0.00    +0.345 A 
ATOM      9  C   UNL     1      35.990 -20.385 -18.949  0.00  0.00    +0.006 C 
ATOM     10  C   UNL     1      33.467 -21.426 -19.529  0.00  0.00    +0.038 C 
ATOM     11  C   UNL     1      35.451 -21.407 -18.162  0.00  0.00    +0.000 C 
ATOM     12  C   UNL     1      34.190 -21.927 -18.452  0.00  0.00    +0.003 C 
BRANCH   5  13
ATOM     13  O   UNL     1      37.031 -18.333 -20.566  0.00  0.00    -0.506 OA
ATOM     14  H   UNL     1      37.262 -18.222 -19.665  0.00  0.00    +0.292 HD
ENDBRANCH   5  13
ENDBRANCH   1   4
BRANCH   1  17
ATOM     15  O   UNL     1      33.327 -14.330 -23.990  0.00  0.00    -0.421 OA
ATOM     16  O   UNL     1      34.462 -15.952 -25.110  0.00  0.00    -0.245 OA
ATOM     17  C   UNL     1      34.569 -16.044 -22.734  0.00  0.00    +0.092 A 
ATOM     18  C   UNL     1      34.181 -15.483 -21.573  0.00  0.00    +0.139 A 
ATOM     19  C   UNL     1      33.331 -14.290 -21.560  0.00  0.00    +0.068 A 
ATOM     20  C   UNL     1      32.929 -13.747 -22.775  0.00  0.00    +0.152 A 
ATOM     21  C   UNL     1      34.131 -15.460 -24.035  0.00  0.00    +0.345 A 
ATOM     22  C   UNL     1      32.897 -13.661 -20.386  0.00  0.00    +0.006 C 
ATOM     23  C   UNL     1      32.119 -12.612 -22.853  0.00  0.00    +0.038 C 
ATOM     24  C   UNL     1      32.087 -12.521 -20.444  0.00  0.00    +0.000 C 
ATOM     25  C   UNL     1      31.699 -11.998 -21.678  0.00  0.00    +0.003 C 
BRANCH  18  26
ATOM     26  O   UNL     1      34.526 -15.952 -20.324  0.00  0.00    -0.506 OA
ATOM     27  H   UNL     1      34.342 -15.438 -19.563  0.00  0.00    +0.292 HD
ENDBRANCH  18  26
ENDBRANCH   1  17
TORSDOF 4
ENDMDL
MODEL 2
REMARK VINA RESULT:     -13.6      0.046      6.600
REMARK  Name = 54676038
REMARK  4 active torsions:
REMARK  status: ('A' for Active; 'I' for Inactive)
REMARK    1  A    between atoms: C_1  and  C_4
REMARK    2  A    between atoms: C_1  and  C_17
REMARK    3  A    between atoms: C_5  and  O_13
REMARK    4  A    between atoms: C_18  and  O_26
REMARK                            x       y       z     vdW  Elec       q    Type
REMARK                         _______ _______ _______ _____ _____    ______ ____
ROOT
ATOM      1  C   UNL     1      35.412 -17.276 -22.898  0.00  0.00    +0.072 C 
ENDROOT
BRANCH   1   4
ATOM      2  O   UNL     1      33.307 -14.345 -23.979  0.00  0.00    -0.421 OA
ATOM      3  O   UNL     1      34.414 -15.971 -25.121  0.00  0.00    -0.245 OA
ATOM      4  C   UNL     1      34.556 -16.072 -22.746  0.00  0.00    +0.092 A 
ATOM      5  C   UNL     1      34.190 -15.512 -21.578  0.00  0.00    +0.139 A 
ATOM      6  C   UNL     1      33.348 -14.313 -21.549  0.00  0.00    +0.068 A 
ATOM      7  C   UNL     1      32.930 -13.763 -22.756  0.00  0.00    +0.152 A 
ATOM      8  C   UNL     1      34.103 -15.481 -24.040  0.00  0.00    +0.345 A 
ATOM      9  C   UNL     1      32.938 -13.684 -20.366  0.00  0.00    +0.006 C 
ATOM     10  C   UNL     1      32.129 -12.622 -22.817  0.00  0.00    +0.038 C 
ATOM     11  C   UNL     1      32.134 -12.540 -20.409  0.00  0.00    +0.000 C 
ATOM     12  C   UNL     1      31.730 -12.010 -21.633  0.00  0.00    +0.003 C 
BRANCH   5  13
ATOM     13  O   UNL     1      34.551 -15.987 -20.336  0.00  0.00    -0.506 OA
ATOM     14  H   UNL     1      34.135 -15.652 -19.567  0.00  0.00    +0.292 HD
ENDBRANCH   5  13
ENDBRANCH   1   4
BRANCH   1  17
ATOM     15  O   UNL     1      33.257 -19.979 -21.354  0.00  0.00    -0.421 OA
ATOM     16  O   UNL     1      32.988 -18.604 -23.147  0.00  0.00    -0.245 OA
ATOM     17  C   UNL     1      35.024 -18.366 -21.937  0.00  0.00    +0.092 A 
ATOM     18  C   UNL     1      35.768 -18.800 -20.901  0.00  0.00    +0.139 A 
ATOM     19  C   UNL     1      35.284 -19.865 -20.019  0.00  0.00    +0.068 A 
ATOM     20  C   UNL     1      34.037 -20.424 -20.274  0.00  0.00    +0.152 A 
ATOM     21  C   UNL     1      33.688 -18.973 -22.208  0.00  0.00    +0.345 A 
ATOM     22  C   UNL     1      36.011 -20.355 -18.927  0.00  0.00    +0.006 C 
ATOM     23  C   UNL     1      33.502 -21.442 -19.483  0.00  0.00    +0.038 C 
ATOM     24  C   UNL     1      35.489 -21.375 -18.122  0.00  0.00    +0.000 C 
ATOM     25  C   UNL     1      34.235 -21.917 -18.401  0.00  0.00    +0.003 C 
BRANCH  18  26
ATOM     26  O   UNL     1      37.014 -18.309 -20.574  0.00  0.00    -0.506 OA
ATOM     27  H   UNL     1      37.712 -18.900 -20.371  0.00  0.00    +0.292 HD
ENDBRANCH  18  26
ENDBRANCH   1  17
TORSDOF 4
ENDMDL
MODEL 3
REMARK VINA RESULT:     -12.1      0.748      2.034
REMARK  Name = 54676038
REMARK  4 active torsions:
REMARK  status: ('A' for Active; 'I' for Inactive)
REMARK    1  A    between atoms: C_1  and  C_4
REMARK    2  A    between atoms: C_1  and  C_17
REMARK    3  A    between atoms: C_5  and  O_13
REMARK    4  A    between atoms: C_18  and  O_26
REMARK                            x       y       z     vdW  Elec       q    Type
REMARK                         _______ _______ _______ _____ _____    ______ ____
ROOT
ATOM      1  C   UNL     1      35.339 -17.665 -22.879  0.00  0.00    +0.072 C 
ENDROOT
BRANCH   1   4
ATOM      2  O   UNL     1      33.106 -20.121 -21.098  0.00  0.00    -0.421 OA
ATOM      3  O   UNL     1      32.818 -18.799 -22.927  0.00  0.00    -0.245 OA
ATOM      4  C   UNL     1      34.944 -18.671 -21.861  0.00  0.00    +0.092 A 
ATOM      5  C   UNL     1      35.723 -19.120 -20.859  0.00  0.00    +0.139 A 
ATOM      6  C   UNL     1      35.222 -20.111 -19.903  0.00  0.00    +0.068 A 
ATOM      7  C   UNL     1      33.923 -20.583 -20.052  0.00  0.00    +0.152 A 
ATOM      8  C   UNL     1      33.551 -19.183 -22.021  0.00  0.00    +0.345 A 
ATOM      9  C   UNL     1      35.984 -20.613 -18.839  0.00  0.00    +0.006 C 
ATOM     10  C   UNL     1      33.369 -21.526 -19.184  0.00  0.00    +0.038 C 
ATOM     11  C   UNL     1      35.444 -21.558 -17.960  0.00  0.00    +0.000 C 
ATOM     12  C   UNL     1      34.138 -22.013 -18.133  0.00  0.00    +0.003 C 
BRANCH   5  13
ATOM     13  O   UNL     1      37.021 -18.714 -20.635  0.00  0.00    -0.506 OA
ATOM     14  H   UNL     1      37.202 -17.821 -20.419  0.00  0.00    +0.292 HD
ENDBRANCH   5  13
ENDBRANCH   1   4
BRANCH   1  17
ATOM     15  O   UNL     1      33.927 -14.741 -20.934  0.00  0.00    -0.421 OA
ATOM     16  O   UNL     1      34.994 -16.653 -20.318  0.00  0.00    -0.245 OA
ATOM     17  C   UNL     1      34.661 -16.341 -22.654  0.00  0.00    +0.092 A 
ATOM     18  C   UNL     1      34.171 -15.538 -23.619  0.00  0.00    +0.139 A 
ATOM     19  C   UNL     1      33.518 -14.270 -23.282  0.00  0.00    +0.068 A 
ATOM     20  C   UNL     1      33.415 -13.909 -21.944  0.00  0.00    +0.152 A 
ATOM     21  C   UNL     1      34.552 -15.947 -21.219  0.00  0.00    +0.345 A 
ATOM     22  C   UNL     1      32.987 -13.395 -24.239  0.00  0.00    +0.006 C 
ATOM     23  C   UNL     1      32.808 -12.720 -21.538  0.00  0.00    +0.038 C 
ATOM     24  C   UNL     1      32.374 -12.199 -23.851  0.00  0.00    +0.000 C 
ATOM     25  C   UNL     1      32.284 -11.863 -22.500  0.00  0.00    +0.003 C 
BRANCH  18  26
ATOM     26  O   UNL     1      34.230 -15.810 -24.968  0.00  0.00    -0.506 OA
ATOM     27  H   UNL     1      33.654 -16.446 -25.343  0.00  0.00    +0.292 HD
ENDBRANCH  18  26
ENDBRANCH   1  17
TORSDOF 4
ENDMDL
MODEL 4
REMARK VINA RESULT:     -12.0      0.753      6.917
REMARK  Name = 54676038
REMARK  4 active torsions:
REMARK  status: ('A' for Active; 'I' for Inactive)
REMARK    1  A    between atoms: C_1  and  C_4
REMARK    2  A    between atoms: C_1  and  C_17
REMARK    3  A    between atoms: C_5  and  O_13
REMARK    4  A    between atoms: C_18  and  O_26
REMARK                            x       y       z     vdW  Elec       q    Type
REMARK                         _______ _______ _______ _____ _____    ______ ____
ROOT
ATOM      1  C   UNL     1      35.378 -17.634 -22.821  0.00  0.00    +0.072 C 
ENDROOT
BRANCH   1   4
ATOM      2  O   UNL     1      33.904 -14.734 -20.921  0.00  0.00    -0.421 OA
ATOM      3  O   UNL     1      34.988 -16.627 -20.276  0.00  0.00    -0.245 OA
ATOM      4  C   UNL     1      34.687 -16.335 -22.620  0.00  0.00    +0.092 A 
ATOM      5  C   UNL     1      34.201 -15.546 -23.597  0.00  0.00    +0.139 A 
ATOM      6  C   UNL     1      33.524 -14.286 -23.280  0.00  0.00    +0.068 A 
ATOM      7  C   UNL     1      33.396 -13.916 -21.945  0.00  0.00    +0.152 A 
ATOM      8  C   UNL     1      34.551 -15.934 -21.189  0.00  0.00    +0.345 A 
ATOM      9  C   UNL     1      32.996 -13.425 -24.251  0.00  0.00    +0.006 C 
ATOM     10  C   UNL     1      32.765 -12.733 -21.557  0.00  0.00    +0.038 C 
ATOM     11  C   UNL     1      32.361 -12.236 -23.880  0.00  0.00    +0.000 C 
ATOM     12  C   UNL     1      32.245 -11.890 -22.534  0.00  0.00    +0.003 C 
BRANCH   5  13
ATOM     13  O   UNL     1      34.285 -15.827 -24.944  0.00  0.00    -0.506 OA
ATOM     14  H   UNL     1      35.035 -15.554 -25.433  0.00  0.00    +0.292 HD
ENDBRANCH   5  13
ENDBRANCH   1   4
BRANCH   1  17
ATOM     15  O   UNL     1      33.074 -20.123 -21.141  0.00  0.00    -0.421 OA
ATOM     16  O   UNL     1      32.854 -18.778 -22.963  0.00  0.00    -0.245 OA
ATOM     17  C   UNL     1      34.939 -18.667 -21.820  0.00  0.00    +0.092 A 
ATOM     18  C   UNL     1      35.681 -19.129 -20.795  0.00  0.00    +0.139 A 
ATOM     19  C   UNL     1      35.145 -20.131 -19.870  0.00  0.00    +0.068 A 
ATOM     20  C   UNL     1      33.851 -20.599 -20.072  0.00  0.00    +0.152 A 
ATOM     21  C   UNL     1      33.553 -19.175 -22.035  0.00  0.00    +0.345 A 
ATOM     22  C   UNL     1      35.866 -20.649 -18.786  0.00  0.00    +0.006 C 
ATOM     23  C   UNL     1      33.265 -21.553 -19.239  0.00  0.00    +0.038 C 
ATOM     24  C   UNL     1      35.294 -21.604 -17.939  0.00  0.00    +0.000 C 
ATOM     25  C   UNL     1      33.994 -22.055 -18.166  0.00  0.00    +0.003 C 
BRANCH  18  26
ATOM     26  O   UNL     1      36.969 -18.728 -20.519  0.00  0.00    -0.506 OA
ATOM     27  H   UNL     1      37.130 -18.100 -19.842  0.00  0.00    +0.292 HD
ENDBRANCH  18  26
ENDBRANCH   1  17
TORSDOF 4
ENDMDL
MODEL 5
REMARK VINA RESULT:     -12.0      0.891      2.791
REMARK  Name = 54676038
REMARK  4 active torsions:
REMARK  status: ('A' for Active; 'I' for Inactive)
REMARK    1  A    between atoms: C_1  and  C_4
REMARK    2  A    between atoms: C_1  and  C_17
REMARK    3  A    between atoms: C_5  and  O_13
REMARK    4  A    between atoms: C_18  and  O_26
REMARK                            x       y       z     vdW  Elec       q    Type
REMARK                         _______ _______ _______ _____ _____    ______ ____
ROOT
ATOM      1  C   UNL     1      35.228 -17.725 -22.949  0.00  0.00    +0.072 C 
ENDROOT
BRANCH   1   4
ATOM      2  O   UNL     1      36.301 -19.743 -19.955  0.00  0.00    -0.421 OA
ATOM      3  O   UNL     1      37.398 -18.308 -21.338  0.00  0.00    -0.245 OA
ATOM      4  C   UNL     1      35.089 -18.659 -21.803  0.00  0.00    +0.092 A 
ATOM      5  C   UNL     1      33.957 -19.290 -21.439  0.00  0.00    +0.139 A 
ATOM      6  C   UNL     1      33.938 -20.201 -20.293  0.00  0.00    +0.068 A 
ATOM      7  C   UNL     1      35.117 -20.401 -19.582  0.00  0.00    +0.152 A 
ATOM      8  C   UNL     1      36.351 -18.873 -21.036  0.00  0.00    +0.345 A 
ATOM      9  C   UNL     1      32.793 -20.888 -19.868  0.00  0.00    +0.006 C 
ATOM     10  C   UNL     1      35.186 -21.253 -18.478  0.00  0.00    +0.038 C 
ATOM     11  C   UNL     1      32.845 -21.746 -18.764  0.00  0.00    +0.000 C 
ATOM     12  C   UNL     1      34.040 -21.928 -18.070  0.00  0.00    +0.003 C 
BRANCH   5  13
ATOM     13  O   UNL     1      32.743 -19.151 -22.078  0.00  0.00    -0.506 OA
ATOM     14  H   UNL     1      32.715 -19.006 -23.003  0.00  0.00    +0.292 HD
ENDBRANCH   5  13
ENDBRANCH   1   4
BRANCH   1  17
ATOM     15  O   UNL     1      33.926 -14.823 -20.897  0.00  0.00    -0.421 OA
ATOM     16  O   UNL     1      34.979 -16.766 -20.357  0.00  0.00    -0.245 OA
ATOM     17  C   UNL     1      34.580 -16.395 -22.674  0.00  0.00    +0.092 A 
ATOM     18  C   UNL     1      34.074 -15.563 -23.604  0.00  0.00    +0.139 A 
ATOM     19  C   UNL     1      33.453 -14.293 -23.220  0.00  0.00    +0.068 A 
ATOM     20  C   UNL     1      33.397 -13.960 -21.871  0.00  0.00    +0.152 A 
ATOM     21  C   UNL     1      34.522 -16.032 -21.228  0.00  0.00    +0.345 A 
ATOM     22  C   UNL     1      32.909 -13.388 -24.140  0.00  0.00    +0.006 C 
ATOM     23  C   UNL     1      32.824 -12.771 -21.420  0.00  0.00    +0.038 C 
ATOM     24  C   UNL     1      32.328 -12.191 -23.706  0.00  0.00    +0.000 C 
ATOM     25  C   UNL     1      32.285 -11.883 -22.346  0.00  0.00    +0.003 C 
BRANCH  18  26
ATOM     26  O   UNL     1      34.087 -15.805 -24.961  0.00  0.00    -0.506 OA
ATOM     27  H   UNL     1      34.453 -16.602 -25.291  0.00  0.00    +0.292 HD
ENDBRANCH  18  26
ENDBRANCH   1  17
TORSDOF 4
ENDMDL
MODEL 6
REMARK VINA RESULT:     -11.8      0.903      6.979
REMARK  Name = 54676038
REMARK  4 active torsions:
REMARK  status: ('A' for Active; 'I' for Inactive)
REMARK    1  A    between atoms: C_1  and  C_4
REMARK    2  A    between atoms: C_1  and  C_17
REMARK    3  A    between atoms: C_5  and  O_13
REMARK    4  A    between atoms: C_18  and  O_26
REMARK                            x       y       z     vdW  Elec       q    Type
REMARK                         _______ _______ _______ _____ _____    ______ ____
ROOT
ATOM      1  C   UNL     1      35.059 -17.813 -22.956  0.00  0.00    +0.072 C 
ENDROOT
BRANCH   1   4
ATOM      2  O   UNL     1      33.986 -14.887 -20.841  0.00  0.00    -0.421 OA
ATOM      3  O   UNL     1      34.991 -16.870 -20.358  0.00  0.00    -0.245 OA
ATOM      4  C   UNL     1      34.484 -16.478 -22.652  0.00  0.00    +0.092 A 
ATOM      5  C   UNL     1      33.962 -15.625 -23.553  0.00  0.00    +0.139 A 
ATOM      6  C   UNL     1      33.411 -14.334 -23.136  0.00  0.00    +0.068 A 
ATOM      7  C   UNL     1      33.440 -14.002 -21.786  0.00  0.00    +0.152 A 
ATOM      8  C   UNL     1      34.517 -16.118 -21.204  0.00  0.00    +0.345 A 
ATOM      9  C   UNL     1      32.853 -13.407 -24.026  0.00  0.00    +0.006 C 
ATOM     10  C   UNL     1      32.935 -12.793 -21.305  0.00  0.00    +0.038 C 
ATOM     11  C   UNL     1      32.343 -12.190 -23.561  0.00  0.00    +0.000 C 
ATOM     12  C   UNL     1      32.384 -11.884 -22.202  0.00  0.00    +0.003 C 
BRANCH   5  13
ATOM     13  O   UNL     1      33.894 -15.865 -24.909  0.00  0.00    -0.506 OA
ATOM     14  H   UNL     1      33.146 -16.296 -25.272  0.00  0.00    +0.292 HD
ENDBRANCH   5  13
ENDBRANCH   1   4
BRANCH   1  17
ATOM     15  O   UNL     1      36.263 -19.781 -19.955  0.00  0.00    -0.421 OA
ATOM     16  O   UNL     1      37.288 -18.346 -21.392  0.00  0.00    -0.245 OA
ATOM     17  C   UNL     1      34.974 -18.745 -21.778  0.00  0.00    +0.092 A 
ATOM     18  C   UNL     1      33.865 -19.392 -21.369  0.00  0.00    +0.139 A 
ATOM     19  C   UNL     1      33.901 -20.288 -20.210  0.00  0.00    +0.068 A 
ATOM     20  C   UNL     1      35.105 -20.456 -19.536  0.00  0.00    +0.152 A 
ATOM     21  C   UNL     1      36.263 -18.925 -21.048  0.00  0.00    +0.345 A 
ATOM     22  C   UNL     1      32.783 -20.989 -19.739  0.00  0.00    +0.006 C 
ATOM     23  C   UNL     1      35.225 -21.290 -18.424  0.00  0.00    +0.038 C 
ATOM     24  C   UNL     1      32.885 -21.831 -18.626  0.00  0.00    +0.000 C 
ATOM     25  C   UNL     1      34.106 -21.981 -17.970  0.00  0.00    +0.003 C 
BRANCH  18  26
ATOM     26  O   UNL     1      32.630 -19.284 -21.971  0.00  0.00    -0.506 OA
ATOM     27  H   UNL     1      32.363 -19.916 -22.609  0.00  0.00    +0.292 HD
ENDBRANCH  18  26
ENDBRANCH   1  17
TORSDOF 4
ENDMDL
