MODEL 1
REMARK VINA RESULT:     -10.6      0.000      0.000
REMARK  Name = 24894167
REMARK  9 active torsions:
REMARK  status: ('A' for Active; 'I' for Inactive)
REMARK    1  A    between atoms: C_2  and  C_13
REMARK    2  A    between atoms: C_3  and  N_21
REMARK    3  A    between atoms: N_21  and  O_23
REMARK    4  A    between atoms: O_23  and  C_24
REMARK    5  A    between atoms: C_24  and  C_25
REMARK    6  A    between atoms: C_25  and  C_26
REMARK    7  A    between atoms: C_26  and  O_27
REMARK    8  A    between atoms: C_26  and  C_29
REMARK    9  A    between atoms: C_29  and  O_30
REMARK                            x       y       z     vdW  Elec       q    Type
REMARK                         _______ _______ _______ _____ _____    ______ ____
ROOT
ATOM      1  N   UNL     1      33.493 -22.735 -14.248  0.00  0.00    -0.351 N 
ATOM      2  C   UNL     1      34.191 -22.929 -15.410  0.00  0.00    +0.086 A 
ATOM      3  C   UNL     1      33.285 -22.982 -16.444  0.00  0.00    +0.096 A 
ATOM      4  C   UNL     1      31.985 -22.814 -15.891  0.00  0.00    +0.034 A 
ATOM      5  C   UNL     1      32.143 -22.661 -14.512  0.00  0.00    +0.058 A 
ATOM      6  C   UNL     1      30.684 -22.776 -16.433  0.00  0.00    +0.003 C 
ATOM      7  C   UNL     1      31.062 -22.472 -13.644  0.00  0.00    +0.017 C 
ATOM      8  C   UNL     1      29.594 -22.588 -15.576  0.00  0.00    +0.000 C 
ATOM      9  C   UNL     1      29.782 -22.438 -14.203  0.00  0.00    +0.001 C 
ATOM     10  H   UNL     1      33.897 -22.660 -13.353  0.00  0.00    +0.166 HD
ENDROOT
BRANCH   2  13
ATOM     11  O   UNL     1      36.281 -20.910 -16.256  0.00  0.00    -0.209 OA
ATOM     12  N   UNL     1      37.892 -22.433 -15.551  0.00  0.00    -0.333 NA
ATOM     13  C   UNL     1      35.647 -23.033 -15.319  0.00  0.00    +0.114 C 
ATOM     14  C   UNL     1      36.380 -24.049 -14.854  0.00  0.00    +0.044 C 
ATOM     15  C   UNL     1      37.769 -23.606 -15.025  0.00  0.00    +0.145 C 
ATOM     16  C   UNL     1      36.608 -21.984 -15.777  0.00  0.00    +0.206 C 
ATOM     17  C   UNL     1      36.084 -25.340 -14.307  0.00  0.00    +0.003 C 
ATOM     18  C   UNL     1      38.839 -24.527 -14.592  0.00  0.00    +0.033 C 
ATOM     19  C   UNL     1      37.101 -26.135 -13.936  0.00  0.00    +0.000 C 
ATOM     20  C   UNL     1      38.484 -25.716 -14.078  0.00  0.00    +0.003 C 
ENDBRANCH   2  13
BRANCH   3  21
ATOM     21  N   UNL     1      33.590 -23.167 -17.797  0.00  0.00    -0.262 N 
ATOM     22  H   UNL     1      33.349 -24.021 -18.223  0.00  0.00    +0.194 HD
BRANCH  21  23
ATOM     23  O   UNL     1      34.220 -22.196 -18.563  0.00  0.00    -0.260 OA
BRANCH  23  24
ATOM     24  C   UNL     1      33.218 -21.617 -19.386  0.00  0.00    +0.176 C 
BRANCH  24  25
ATOM     25  C   UNL     1      33.658 -20.229 -19.842  0.00  0.00    +0.067 C 
BRANCH  25  26
ATOM     26  C   UNL     1      35.140 -20.164 -20.230  0.00  0.00    +0.142 C 
BRANCH  26  27
ATOM     27  O   UNL     1      35.927 -20.196 -19.039  0.00  0.00    -0.382 OA
ATOM     28  H   UNL     1      36.722 -19.653 -19.161  0.00  0.00    +0.210 HD
ENDBRANCH  26  27
BRANCH  26  29
ATOM     29  C   UNL     1      35.453 -18.877 -20.989  0.00  0.00    +0.166 C 
BRANCH  29  30
ATOM     30  O   UNL     1      36.695 -18.343 -20.543  0.00  0.00    -0.379 OA
ATOM     31  H   UNL     1      36.906 -18.704 -19.667  0.00  0.00    +0.211 HD
ENDBRANCH  29  30
ENDBRANCH  26  29
ENDBRANCH  25  26
ENDBRANCH  24  25
ENDBRANCH  23  24
ENDBRANCH  21  23
ENDBRANCH   3  21
TORSDOF 9
ENDMDL
MODEL 2
REMARK VINA RESULT:     -10.6      2.095      5.830
REMARK  Name = 24894167
REMARK  9 active torsions:
REMARK  status: ('A' for Active; 'I' for Inactive)
REMARK    1  A    between atoms: C_2  and  C_13
REMARK    2  A    between atoms: C_3  and  N_21
REMARK    3  A    between atoms: N_21  and  O_23
REMARK    4  A    between atoms: O_23  and  C_24
REMARK    5  A    between atoms: C_24  and  C_25
REMARK    6  A    between atoms: C_25  and  C_26
REMARK    7  A    between atoms: C_26  and  O_27
REMARK    8  A    between atoms: C_26  and  C_29
REMARK    9  A    between atoms: C_29  and  O_30
REMARK                            x       y       z     vdW  Elec       q    Type
REMARK                         _______ _______ _______ _____ _____    ______ ____
ROOT
ATOM      1  N   UNL     1      31.959 -22.520 -16.626  0.00  0.00    -0.351 N 
ATOM      2  C   UNL     1      33.321 -22.593 -16.510  0.00  0.00    +0.086 A 
ATOM      3  C   UNL     1      33.612 -23.328 -15.384  0.00  0.00    +0.096 A 
ATOM      4  C   UNL     1      32.379 -23.718 -14.791  0.00  0.00    +0.034 A 
ATOM      5  C   UNL     1      31.357 -23.198 -15.589  0.00  0.00    +0.058 A 
ATOM      6  C   UNL     1      32.032 -24.465 -13.647  0.00  0.00    +0.003 C 
ATOM      7  C   UNL     1      30.002 -23.389 -15.300  0.00  0.00    +0.017 C 
ATOM      8  C   UNL     1      30.680 -24.665 -13.347  0.00  0.00    +0.000 C 
ATOM      9  C   UNL     1      29.681 -24.134 -14.161  0.00  0.00    +0.001 C 
ATOM     10  H   UNL     1      31.478 -22.051 -17.346  0.00  0.00    +0.166 HD
ENDROOT
BRANCH   2  13
ATOM     11  O   UNL     1      36.334 -22.339 -16.668  0.00  0.00    -0.209 OA
ATOM     12  N   UNL     1      36.028 -21.123 -18.627  0.00  0.00    -0.333 NA
ATOM     13  C   UNL     1      34.127 -21.925 -17.531  0.00  0.00    +0.114 C 
ATOM     14  C   UNL     1      33.711 -21.266 -18.617  0.00  0.00    +0.044 C 
ATOM     15  C   UNL     1      34.947 -20.795 -19.255  0.00  0.00    +0.145 C 
ATOM     16  C   UNL     1      35.618 -21.838 -17.521  0.00  0.00    +0.206 C 
ATOM     17  C   UNL     1      32.431 -20.959 -19.183  0.00  0.00    +0.003 C 
ATOM     18  C   UNL     1      34.820 -20.020 -20.505  0.00  0.00    +0.033 C 
ATOM     19  C   UNL     1      32.380 -20.245 -20.320  0.00  0.00    +0.000 C 
ATOM     20  C   UNL     1      33.587 -19.781 -20.982  0.00  0.00    +0.003 C 
ENDBRANCH   2  13
BRANCH   3  21
ATOM     21  N   UNL     1      34.892 -23.637 -14.910  0.00  0.00    -0.262 N 
ATOM     22  H   UNL     1      35.366 -22.970 -14.363  0.00  0.00    +0.194 HD
BRANCH  21  23
ATOM     23  O   UNL     1      35.521 -24.843 -15.181  0.00  0.00    -0.260 OA
BRANCH  23  24
ATOM     24  C   UNL     1      36.158 -25.245 -13.977  0.00  0.00    +0.176 C 
BRANCH  24  25
ATOM     25  C   UNL     1      37.589 -25.687 -14.270  0.00  0.00    +0.067 C 
BRANCH  25  26
ATOM     26  C   UNL     1      38.612 -24.555 -14.122  0.00  0.00    +0.142 C 
BRANCH  26  27
ATOM     27  O   UNL     1      38.259 -23.498 -15.015  0.00  0.00    -0.382 OA
ATOM     28  H   UNL     1      38.891 -23.470 -15.750  0.00  0.00    +0.210 HD
ENDBRANCH  26  27
BRANCH  26  29
ATOM     29  C   UNL     1      40.020 -25.037 -14.467  0.00  0.00    +0.166 C 
BRANCH  29  30
ATOM     30  O   UNL     1      40.029 -25.610 -15.769  0.00  0.00    -0.379 OA
ATOM     31  H   UNL     1      40.903 -25.484 -16.172  0.00  0.00    +0.211 HD
ENDBRANCH  29  30
ENDBRANCH  26  29
ENDBRANCH  25  26
ENDBRANCH  24  25
ENDBRANCH  23  24
ENDBRANCH  21  23
ENDBRANCH   3  21
TORSDOF 9
ENDMDL
MODEL 3
REMARK VINA RESULT:     -10.1      1.259      5.371
REMARK  Name = 24894167
REMARK  9 active torsions:
REMARK  status: ('A' for Active; 'I' for Inactive)
REMARK    1  A    between atoms: C_2  and  C_13
REMARK    2  A    between atoms: C_3  and  N_21
REMARK    3  A    between atoms: N_21  and  O_23
REMARK    4  A    between atoms: O_23  and  C_24
REMARK    5  A    between atoms: C_24  and  C_25
REMARK    6  A    between atoms: C_25  and  C_26
REMARK    7  A    between atoms: C_26  and  O_27
REMARK    8  A    between atoms: C_26  and  C_29
REMARK    9  A    between atoms: C_29  and  O_30
REMARK                            x       y       z     vdW  Elec       q    Type
REMARK                         _______ _______ _______ _____ _____    ______ ____
ROOT
ATOM      1  N   UNL     1      34.601 -24.532 -14.584  0.00  0.00    -0.351 N 
ATOM      2  C   UNL     1      34.458 -23.443 -15.403  0.00  0.00    +0.086 A 
ATOM      3  C   UNL     1      35.703 -22.890 -15.593  0.00  0.00    +0.096 A 
ATOM      4  C   UNL     1      36.641 -23.670 -14.861  0.00  0.00    +0.034 A 
ATOM      5  C   UNL     1      35.924 -24.694 -14.237  0.00  0.00    +0.058 A 
ATOM      6  C   UNL     1      38.036 -23.605 -14.669  0.00  0.00    +0.003 C 
ATOM      7  C   UNL     1      36.534 -25.659 -13.428  0.00  0.00    +0.017 C 
ATOM      8  C   UNL     1      38.659 -24.564 -13.862  0.00  0.00    +0.000 C 
ATOM      9  C   UNL     1      37.918 -25.574 -13.252  0.00  0.00    +0.001 C 
ATOM     10  H   UNL     1      33.865 -25.113 -14.286  0.00  0.00    +0.166 HD
ENDROOT
BRANCH   2  13
ATOM     11  O   UNL     1      33.534 -22.867 -18.228  0.00  0.00    -0.209 OA
ATOM     12  N   UNL     1      31.400 -22.552 -17.357  0.00  0.00    -0.333 NA
ATOM     13  C   UNL     1      33.112 -23.118 -15.873  0.00  0.00    +0.114 C 
ATOM     14  C   UNL     1      31.991 -22.990 -15.156  0.00  0.00    +0.044 C 
ATOM     15  C   UNL     1      30.963 -22.640 -16.145  0.00  0.00    +0.145 C 
ATOM     16  C   UNL     1      32.748 -22.834 -17.294  0.00  0.00    +0.206 C 
ATOM     17  C   UNL     1      31.663 -23.100 -13.766  0.00  0.00    +0.003 C 
ATOM     18  C   UNL     1      29.586 -22.431 -15.655  0.00  0.00    +0.033 C 
ATOM     19  C   UNL     1      30.393 -22.893 -13.381  0.00  0.00    +0.000 C 
ATOM     20  C   UNL     1      29.353 -22.562 -14.339  0.00  0.00    +0.003 C 
ENDBRANCH   2  13
BRANCH   3  21
ATOM     21  N   UNL     1      35.993 -21.761 -16.369  0.00  0.00    -0.262 N 
ATOM     22  H   UNL     1      35.860 -20.870 -15.973  0.00  0.00    +0.194 HD
BRANCH  21  23
ATOM     23  O   UNL     1      36.459 -21.847 -17.672  0.00  0.00    -0.260 OA
BRANCH  23  24
ATOM     24  C   UNL     1      36.261 -20.568 -18.257  0.00  0.00    +0.176 C 
BRANCH  24  25
ATOM     25  C   UNL     1      35.617 -20.720 -19.632  0.00  0.00    +0.067 C 
BRANCH  25  26
ATOM     26  C   UNL     1      35.900 -19.537 -20.565  0.00  0.00    +0.142 C 
BRANCH  26  27
ATOM     27  O   UNL     1      36.745 -18.609 -19.884  0.00  0.00    -0.382 OA
ATOM     28  H   UNL     1      36.868 -17.819 -20.433  0.00  0.00    +0.210 HD
ENDBRANCH  26  27
BRANCH  26  29
ATOM     29  C   UNL     1      34.608 -18.824 -20.958  0.00  0.00    +0.166 C 
BRANCH  29  30
ATOM     30  O   UNL     1      34.748 -17.422 -20.754  0.00  0.00    -0.379 OA
ATOM     31  H   UNL     1      35.113 -17.014 -21.555  0.00  0.00    +0.211 HD
ENDBRANCH  29  30
ENDBRANCH  26  29
ENDBRANCH  25  26
ENDBRANCH  24  25
ENDBRANCH  23  24
ENDBRANCH  21  23
ENDBRANCH   3  21
TORSDOF 9
ENDMDL
MODEL 4
REMARK VINA RESULT:     -10.0      2.339      6.904
REMARK  Name = 24894167
REMARK  9 active torsions:
REMARK  status: ('A' for Active; 'I' for Inactive)
REMARK    1  A    between atoms: C_2  and  C_13
REMARK    2  A    between atoms: C_3  and  N_21
REMARK    3  A    between atoms: N_21  and  O_23
REMARK    4  A    between atoms: O_23  and  C_24
REMARK    5  A    between atoms: C_24  and  C_25
REMARK    6  A    between atoms: C_25  and  C_26
REMARK    7  A    between atoms: C_26  and  O_27
REMARK    8  A    between atoms: C_26  and  C_29
REMARK    9  A    between atoms: C_29  and  O_30
REMARK                            x       y       z     vdW  Elec       q    Type
REMARK                         _______ _______ _______ _____ _____    ______ ____
ROOT
ATOM      1  N   UNL     1      35.953 -21.506 -17.542  0.00  0.00    -0.351 N 
ATOM      2  C   UNL     1      34.616 -21.610 -17.818  0.00  0.00    +0.086 A 
ATOM      3  C   UNL     1      34.045 -22.409 -16.854  0.00  0.00    +0.096 A 
ATOM      4  C   UNL     1      35.074 -22.807 -15.957  0.00  0.00    +0.034 A 
ATOM      5  C   UNL     1      36.261 -22.228 -16.411  0.00  0.00    +0.058 A 
ATOM      6  C   UNL     1      35.111 -23.608 -14.797  0.00  0.00    +0.003 C 
ATOM      7  C   UNL     1      37.487 -22.409 -15.761  0.00  0.00    +0.017 C 
ATOM      8  C   UNL     1      36.330 -23.797 -14.137  0.00  0.00    +0.000 C 
ATOM      9  C   UNL     1      37.499 -23.207 -14.613  0.00  0.00    +0.001 C 
ATOM     10  H   UNL     1      36.601 -20.991 -18.075  0.00  0.00    +0.166 HD
ENDROOT
BRANCH   2  13
ATOM     11  O   UNL     1      31.804 -21.598 -18.942  0.00  0.00    -0.209 OA
ATOM     12  N   UNL     1      32.590 -20.190 -20.620  0.00  0.00    -0.333 NA
ATOM     13  C   UNL     1      34.107 -20.903 -18.993  0.00  0.00    +0.114 C 
ATOM     14  C   UNL     1      34.775 -20.114 -19.841  0.00  0.00    +0.044 C 
ATOM     15  C   UNL     1      33.767 -19.703 -20.827  0.00  0.00    +0.145 C 
ATOM     16  C   UNL     1      32.698 -20.966 -19.485  0.00  0.00    +0.206 C 
ATOM     17  C   UNL     1      36.133 -19.673 -19.953  0.00  0.00    +0.003 C 
ATOM     18  C   UNL     1      34.203 -18.805 -21.916  0.00  0.00    +0.033 C 
ATOM     19  C   UNL     1      36.469 -18.861 -20.969  0.00  0.00    +0.000 C 
ATOM     20  C   UNL     1      35.491 -18.425 -21.949  0.00  0.00    +0.003 C 
ENDBRANCH   2  13
BRANCH   3  21
ATOM     21  N   UNL     1      32.694 -22.763 -16.773  0.00  0.00    -0.262 N 
ATOM     22  H   UNL     1      32.106 -22.557 -17.535  0.00  0.00    +0.194 HD
BRANCH  21  23
ATOM     23  O   UNL     1      32.148 -23.391 -15.663  0.00  0.00    -0.260 OA
BRANCH  23  24
ATOM     24  C   UNL     1      31.451 -22.390 -14.935  0.00  0.00    +0.176 C 
BRANCH  24  25
ATOM     25  C   UNL     1      30.012 -22.835 -14.689  0.00  0.00    +0.067 C 
BRANCH  25  26
ATOM     26  C   UNL     1      29.187 -22.950 -15.976  0.00  0.00    +0.142 C 
BRANCH  26  27
ATOM     27  O   UNL     1      29.722 -22.049 -16.946  0.00  0.00    -0.382 OA
ATOM     28  H   UNL     1      29.045 -21.848 -17.610  0.00  0.00    +0.210 HD
ENDBRANCH  26  27
BRANCH  26  29
ATOM     29  C   UNL     1      27.725 -22.588 -15.727  0.00  0.00    +0.166 C 
BRANCH  29  30
ATOM     30  O   UNL     1      27.418 -21.351 -16.362  0.00  0.00    -0.379 OA
ATOM     31  H   UNL     1      28.228 -20.974 -16.741  0.00  0.00    +0.211 HD
ENDBRANCH  29  30
ENDBRANCH  26  29
ENDBRANCH  25  26
ENDBRANCH  24  25
ENDBRANCH  23  24
ENDBRANCH  21  23
ENDBRANCH   3  21
TORSDOF 9
ENDMDL
MODEL 5
REMARK VINA RESULT:     -10.0      2.514      6.748
REMARK  Name = 24894167
REMARK  9 active torsions:
REMARK  status: ('A' for Active; 'I' for Inactive)
REMARK    1  A    between atoms: C_2  and  C_13
REMARK    2  A    between atoms: C_3  and  N_21
REMARK    3  A    between atoms: N_21  and  O_23
REMARK    4  A    between atoms: O_23  and  C_24
REMARK    5  A    between atoms: C_24  and  C_25
REMARK    6  A    between atoms: C_25  and  C_26
REMARK    7  A    between atoms: C_26  and  O_27
REMARK    8  A    between atoms: C_26  and  C_29
REMARK    9  A    between atoms: C_29  and  O_30
REMARK                            x       y       z     vdW  Elec       q    Type
REMARK                         _______ _______ _______ _____ _____    ______ ____
ROOT
ATOM      1  N   UNL     1      32.842 -22.627 -17.212  0.00  0.00    -0.351 N 
ATOM      2  C   UNL     1      33.320 -22.856 -15.949  0.00  0.00    +0.086 A 
ATOM      3  C   UNL     1      34.618 -22.402 -15.899  0.00  0.00    +0.096 A 
ATOM      4  C   UNL     1      34.943 -21.875 -17.180  0.00  0.00    +0.034 A 
ATOM      5  C   UNL     1      33.812 -22.028 -17.985  0.00  0.00    +0.058 A 
ATOM      6  C   UNL     1      36.094 -21.280 -17.734  0.00  0.00    +0.003 C 
ATOM      7  C   UNL     1      33.774 -21.615 -19.321  0.00  0.00    +0.017 C 
ATOM      8  C   UNL     1      36.070 -20.861 -19.069  0.00  0.00    +0.000 C 
ATOM      9  C   UNL     1      34.928 -21.027 -19.849  0.00  0.00    +0.001 C 
ATOM     10  H   UNL     1      31.937 -22.856 -17.523  0.00  0.00    +0.166 HD
ENDROOT
BRANCH   2  13
ATOM     11  O   UNL     1      34.012 -24.228 -13.341  0.00  0.00    -0.209 OA
ATOM     12  N   UNL     1      31.741 -24.655 -13.079  0.00  0.00    -0.333 NA
ATOM     13  C   UNL     1      32.420 -23.490 -14.987  0.00  0.00    +0.114 C 
ATOM     14  C   UNL     1      31.091 -23.617 -15.051  0.00  0.00    +0.044 C 
ATOM     15  C   UNL     1      30.735 -24.349 -13.829  0.00  0.00    +0.145 C 
ATOM     16  C   UNL     1      32.855 -24.159 -13.723  0.00  0.00    +0.206 C 
ATOM     17  C   UNL     1      30.085 -23.230 -15.994  0.00  0.00    +0.003 C 
ATOM     18  C   UNL     1      29.306 -24.647 -13.603  0.00  0.00    +0.033 C 
ATOM     19  C   UNL     1      28.802 -23.535 -15.735  0.00  0.00    +0.000 C 
ATOM     20  C   UNL     1      28.419 -24.243 -14.527  0.00  0.00    +0.003 C 
ENDBRANCH   2  13
BRANCH   3  21
ATOM     21  N   UNL     1      35.463 -22.449 -14.785  0.00  0.00    -0.262 N 
ATOM     22  H   UNL     1      35.190 -21.978 -13.965  0.00  0.00    +0.194 HD
BRANCH  21  23
ATOM     23  O   UNL     1      36.672 -23.130 -14.788  0.00  0.00    -0.260 OA
BRANCH  23  24
ATOM     24  C   UNL     1      37.159 -23.095 -13.455  0.00  0.00    +0.176 C 
BRANCH  24  25
ATOM     25  C   UNL     1      37.837 -24.419 -13.115  0.00  0.00    +0.067 C 
BRANCH  25  26
ATOM     26  C   UNL     1      38.302 -25.194 -14.354  0.00  0.00    +0.142 C 
BRANCH  26  27
ATOM     27  O   UNL     1      37.935 -26.565 -14.202  0.00  0.00    -0.382 OA
ATOM     28  H   UNL     1      38.219 -27.065 -14.982  0.00  0.00    +0.210 HD
ENDBRANCH  26  27
BRANCH  26  29
ATOM     29  C   UNL     1      39.818 -25.109 -14.518  0.00  0.00    +0.166 C 
BRANCH  29  30
ATOM     30  O   UNL     1      40.205 -25.719 -15.745  0.00  0.00    -0.379 OA
ATOM     31  H   UNL     1      39.601 -25.437 -16.450  0.00  0.00    +0.211 HD
ENDBRANCH  29  30
ENDBRANCH  26  29
ENDBRANCH  25  26
ENDBRANCH  24  25
ENDBRANCH  23  24
ENDBRANCH  21  23
ENDBRANCH   3  21
TORSDOF 9
ENDMDL
MODEL 6
REMARK VINA RESULT:     -10.0      1.883      5.757
REMARK  Name = 24894167
REMARK  9 active torsions:
REMARK  status: ('A' for Active; 'I' for Inactive)
REMARK    1  A    between atoms: C_2  and  C_13
REMARK    2  A    between atoms: C_3  and  N_21
REMARK    3  A    between atoms: N_21  and  O_23
REMARK    4  A    between atoms: O_23  and  C_24
REMARK    5  A    between atoms: C_24  and  C_25
REMARK    6  A    between atoms: C_25  and  C_26
REMARK    7  A    between atoms: C_26  and  O_27
REMARK    8  A    between atoms: C_26  and  C_29
REMARK    9  A    between atoms: C_29  and  O_30
REMARK                            x       y       z     vdW  Elec       q    Type
REMARK                         _______ _______ _______ _____ _____    ______ ____
ROOT
ATOM      1  N   UNL     1      35.921 -24.841 -13.582  0.00  0.00    -0.351 N 
ATOM      2  C   UNL     1      35.350 -23.753 -14.188  0.00  0.00    +0.086 A 
ATOM      3  C   UNL     1      36.318 -23.133 -14.944  0.00  0.00    +0.096 A 
ATOM      4  C   UNL     1      37.525 -23.871 -14.792  0.00  0.00    +0.034 A 
ATOM      5  C   UNL     1      37.249 -24.937 -13.933  0.00  0.00    +0.058 A 
ATOM      6  C   UNL     1      38.831 -23.734 -15.306  0.00  0.00    +0.003 C 
ATOM      7  C   UNL     1      38.217 -25.876 -13.560  0.00  0.00    +0.017 C 
ATOM      8  C   UNL     1      39.808 -24.667 -14.941  0.00  0.00    +0.000 C 
ATOM      9  C   UNL     1      39.505 -25.721 -14.081  0.00  0.00    +0.001 C 
ATOM     10  H   UNL     1      35.451 -25.464 -12.981  0.00  0.00    +0.166 HD
ENDROOT
BRANCH   2  13
ATOM     11  O   UNL     1      33.885 -23.787 -11.539  0.00  0.00    -0.209 OA
ATOM     12  N   UNL     1      31.949 -23.266 -12.718  0.00  0.00    -0.333 NA
ATOM     13  C   UNL     1      33.935 -23.495 -13.926  0.00  0.00    +0.114 C 
ATOM     14  C   UNL     1      32.969 -23.198 -14.801  0.00  0.00    +0.044 C 
ATOM     15  C   UNL     1      31.759 -23.066 -13.980  0.00  0.00    +0.145 C 
ATOM     16  C   UNL     1      33.292 -23.547 -12.578  0.00  0.00    +0.206 C 
ATOM     17  C   UNL     1      32.912 -23.030 -16.223  0.00  0.00    +0.003 C 
ATOM     18  C   UNL     1      30.497 -22.732 -14.669  0.00  0.00    +0.033 C 
ATOM     19  C   UNL     1      31.733 -22.731 -16.793  0.00  0.00    +0.000 C 
ATOM     20  C   UNL     1      30.524 -22.578 -16.003  0.00  0.00    +0.003 C 
ENDBRANCH   2  13
BRANCH   3  21
ATOM     21  N   UNL     1      36.143 -21.984 -15.723  0.00  0.00    -0.262 N 
ATOM     22  H   UNL     1      36.413 -21.115 -15.348  0.00  0.00    +0.194 HD
BRANCH  21  23
ATOM     23  O   UNL     1      35.605 -22.019 -17.001  0.00  0.00    -0.260 OA
BRANCH  23  24
ATOM     24  C   UNL     1      36.356 -21.100 -17.781  0.00  0.00    +0.176 C 
BRANCH  24  25
ATOM     25  C   UNL     1      35.667 -20.874 -19.123  0.00  0.00    +0.067 C 
BRANCH  25  26
ATOM     26  C   UNL     1      34.181 -21.251 -19.110  0.00  0.00    +0.142 C 
BRANCH  26  27
ATOM     27  O   UNL     1      34.050 -22.613 -19.515  0.00  0.00    -0.382 OA
ATOM     28  H   UNL     1      33.269 -23.003 -19.093  0.00  0.00    +0.210 HD
ENDBRANCH  26  27
BRANCH  26  29
ATOM     29  C   UNL     1      33.382 -20.375 -20.072  0.00  0.00    +0.166 C 
BRANCH  29  30
ATOM     30  O   UNL     1      31.991 -20.639 -19.924  0.00  0.00    -0.379 OA
ATOM     31  H   UNL     1      31.828 -21.588 -20.044  0.00  0.00    +0.211 HD
ENDBRANCH  29  30
ENDBRANCH  26  29
ENDBRANCH  25  26
ENDBRANCH  24  25
ENDBRANCH  23  24
ENDBRANCH  21  23
ENDBRANCH   3  21
TORSDOF 9
ENDMDL
MODEL 7
REMARK VINA RESULT:     -10.0      2.576      6.619
REMARK  Name = 24894167
REMARK  9 active torsions:
REMARK  status: ('A' for Active; 'I' for Inactive)
REMARK    1  A    between atoms: C_2  and  C_13
REMARK    2  A    between atoms: C_3  and  N_21
REMARK    3  A    between atoms: N_21  and  O_23
REMARK    4  A    between atoms: O_23  and  C_24
REMARK    5  A    between atoms: C_24  and  C_25
REMARK    6  A    between atoms: C_25  and  C_26
REMARK    7  A    between atoms: C_26  and  O_27
REMARK    8  A    between atoms: C_26  and  C_29
REMARK    9  A    between atoms: C_29  and  O_30
REMARK                            x       y       z     vdW  Elec       q    Type
REMARK                         _______ _______ _______ _____ _____    ______ ____
ROOT
ATOM      1  N   UNL     1      35.988 -23.382 -15.707  0.00  0.00    -0.351 N 
ATOM      2  C   UNL     1      34.695 -22.947 -15.583  0.00  0.00    +0.086 A 
ATOM      3  C   UNL     1      34.324 -23.092 -14.267  0.00  0.00    +0.096 A 
ATOM      4  C   UNL     1      35.432 -23.636 -13.561  0.00  0.00    +0.034 A 
ATOM      5  C   UNL     1      36.463 -23.809 -14.487  0.00  0.00    +0.058 A 
ATOM      6  C   UNL     1      35.659 -24.000 -12.218  0.00  0.00    +0.003 C 
ATOM      7  C   UNL     1      37.714 -24.329 -14.137  0.00  0.00    +0.017 C 
ATOM      8  C   UNL     1      36.905 -24.521 -11.854  0.00  0.00    +0.000 C 
ATOM      9  C   UNL     1      37.916 -24.683 -12.799  0.00  0.00    +0.001 C 
ATOM     10  H   UNL     1      36.503 -23.389 -16.546  0.00  0.00    +0.166 HD
ENDROOT
BRANCH   2  13
ATOM     11  O   UNL     1      31.806 -23.302 -16.414  0.00  0.00    -0.209 OA
ATOM     12  N   UNL     1      32.315 -22.095 -18.336  0.00  0.00    -0.333 NA
ATOM     13  C   UNL     1      34.026 -22.454 -16.787  0.00  0.00    +0.114 C 
ATOM     14  C   UNL     1      34.546 -21.747 -17.796  0.00  0.00    +0.044 C 
ATOM     15  C   UNL     1      33.424 -21.556 -18.723  0.00  0.00    +0.145 C 
ATOM     16  C   UNL     1      32.590 -22.690 -17.123  0.00  0.00    +0.206 C 
ATOM     17  C   UNL     1      35.846 -21.228 -18.100  0.00  0.00    +0.003 C 
ATOM     18  C   UNL     1      33.682 -20.794 -19.961  0.00  0.00    +0.033 C 
ATOM     19  C   UNL     1      36.020 -20.547 -19.245  0.00  0.00    +0.000 C 
ATOM     20  C   UNL     1      34.925 -20.329 -20.173  0.00  0.00    +0.003 C 
ENDBRANCH   2  13
BRANCH   3  21
ATOM     21  N   UNL     1      33.078 -22.760 -13.722  0.00  0.00    -0.262 N 
ATOM     22  H   UNL     1      32.771 -21.826 -13.780  0.00  0.00    +0.194 HD
BRANCH  21  23
ATOM     23  O   UNL     1      32.258 -23.692 -13.102  0.00  0.00    -0.260 OA
BRANCH  23  24
ATOM     24  C   UNL     1      30.940 -23.166 -13.153  0.00  0.00    +0.176 C 
BRANCH  24  25
ATOM     25  C   UNL     1      29.943 -24.290 -13.418  0.00  0.00    +0.067 C 
BRANCH  25  26
ATOM     26  C   UNL     1      29.002 -23.998 -14.594  0.00  0.00    +0.142 C 
BRANCH  26  27
ATOM     27  O   UNL     1      29.420 -24.772 -15.718  0.00  0.00    -0.382 OA
ATOM     28  H   UNL     1      29.195 -25.704 -15.572  0.00  0.00    +0.210 HD
ENDBRANCH  26  27
BRANCH  26  29
ATOM     29  C   UNL     1      29.042 -22.520 -14.975  0.00  0.00    +0.166 C 
BRANCH  29  30
ATOM     30  O   UNL     1      29.094 -22.388 -16.392  0.00  0.00    -0.379 OA
ATOM     31  H   UNL     1      28.349 -21.845 -16.693  0.00  0.00    +0.211 HD
ENDBRANCH  29  30
ENDBRANCH  26  29
ENDBRANCH  25  26
ENDBRANCH  24  25
ENDBRANCH  23  24
ENDBRANCH  21  23
ENDBRANCH   3  21
TORSDOF 9
ENDMDL
MODEL 8
REMARK VINA RESULT:     -10.0      2.627      6.293
REMARK  Name = 24894167
REMARK  9 active torsions:
REMARK  status: ('A' for Active; 'I' for Inactive)
REMARK    1  A    between atoms: C_2  and  C_13
REMARK    2  A    between atoms: C_3  and  N_21
REMARK    3  A    between atoms: N_21  and  O_23
REMARK    4  A    between atoms: O_23  and  C_24
REMARK    5  A    between atoms: C_24  and  C_25
REMARK    6  A    between atoms: C_25  and  C_26
REMARK    7  A    between atoms: C_26  and  O_27
REMARK    8  A    between atoms: C_26  and  C_29
REMARK    9  A    between atoms: C_29  and  O_30
REMARK                            x       y       z     vdW  Elec       q    Type
REMARK                         _______ _______ _______ _____ _____    ______ ____
ROOT
ATOM      1  N   UNL     1      31.789 -22.704 -16.688  0.00  0.00    -0.351 N 
ATOM      2  C   UNL     1      33.128 -22.661 -16.404  0.00  0.00    +0.086 A 
ATOM      3  C   UNL     1      33.323 -23.274 -15.188  0.00  0.00    +0.096 A 
ATOM      4  C   UNL     1      32.055 -23.708 -14.713  0.00  0.00    +0.034 A 
ATOM      5  C   UNL     1      31.109 -23.338 -15.672  0.00  0.00    +0.058 A 
ATOM      6  C   UNL     1      31.618 -24.383 -13.555  0.00  0.00    +0.003 C 
ATOM      7  C   UNL     1      29.744 -23.610 -15.531  0.00  0.00    +0.017 C 
ATOM      8  C   UNL     1      30.255 -24.661 -13.401  0.00  0.00    +0.000 C 
ATOM      9  C   UNL     1      29.334 -24.280 -14.375  0.00  0.00    +0.001 C 
ATOM     10  H   UNL     1      31.373 -22.336 -17.500  0.00  0.00    +0.166 HD
ENDROOT
BRANCH   2  13
ATOM     11  O   UNL     1      36.152 -22.513 -16.403  0.00  0.00    -0.209 OA
ATOM     12  N   UNL     1      35.992 -21.282 -18.371  0.00  0.00    -0.333 NA
ATOM     13  C   UNL     1      34.009 -22.019 -17.379  0.00  0.00    +0.114 C 
ATOM     14  C   UNL     1      33.674 -21.343 -18.482  0.00  0.00    +0.044 C 
ATOM     15  C   UNL     1      34.958 -20.915 -19.052  0.00  0.00    +0.145 C 
ATOM     16  C   UNL     1      35.501 -21.985 -17.291  0.00  0.00    +0.206 C 
ATOM     17  C   UNL     1      32.438 -20.990 -19.113  0.00  0.00    +0.003 C 
ATOM     18  C   UNL     1      34.924 -20.133 -20.305  0.00  0.00    +0.033 C 
ATOM     19  C   UNL     1      32.471 -20.272 -20.248  0.00  0.00    +0.000 C 
ATOM     20  C   UNL     1      33.727 -19.849 -20.844  0.00  0.00    +0.003 C 
ENDBRANCH   2  13
BRANCH   3  21
ATOM     21  N   UNL     1      34.552 -23.442 -14.538  0.00  0.00    -0.262 N 
ATOM     22  H   UNL     1      35.054 -22.640 -14.266  0.00  0.00    +0.194 HD
BRANCH  21  23
ATOM     23  O   UNL     1      35.091 -24.690 -14.264  0.00  0.00    -0.260 OA
BRANCH  23  24
ATOM     24  C   UNL     1      36.378 -24.461 -13.708  0.00  0.00    +0.176 C 
BRANCH  24  25
ATOM     25  C   UNL     1      36.514 -25.212 -12.387  0.00  0.00    +0.067 C 
BRANCH  25  26
ATOM     26  C   UNL     1      35.724 -24.567 -11.242  0.00  0.00    +0.142 C 
BRANCH  26  27
ATOM     27  O   UNL     1      34.343 -24.534 -11.601  0.00  0.00    -0.382 OA
ATOM     28  H   UNL     1      33.873 -23.913 -11.023  0.00  0.00    +0.210 HD
ENDBRANCH  26  27
BRANCH  26  29
ATOM     29  C   UNL     1      36.197 -23.139 -10.983  0.00  0.00    +0.166 C 
BRANCH  29  30
ATOM     30  O   UNL     1      36.195 -22.876  -9.584  0.00  0.00    -0.379 OA
ATOM     31  H   UNL     1      37.106 -22.728  -9.282  0.00  0.00    +0.211 HD
ENDBRANCH  29  30
ENDBRANCH  26  29
ENDBRANCH  25  26
ENDBRANCH  24  25
ENDBRANCH  23  24
ENDBRANCH  21  23
ENDBRANCH   3  21
TORSDOF 9
ENDMDL
MODEL 9
REMARK VINA RESULT:      -9.9      2.277      2.812
REMARK  Name = 24894167
REMARK  9 active torsions:
REMARK  status: ('A' for Active; 'I' for Inactive)
REMARK    1  A    between atoms: C_2  and  C_13
REMARK    2  A    between atoms: C_3  and  N_21
REMARK    3  A    between atoms: N_21  and  O_23
REMARK    4  A    between atoms: O_23  and  C_24
REMARK    5  A    between atoms: C_24  and  C_25
REMARK    6  A    between atoms: C_25  and  C_26
REMARK    7  A    between atoms: C_26  and  O_27
REMARK    8  A    between atoms: C_26  and  C_29
REMARK    9  A    between atoms: C_29  and  O_30
REMARK                            x       y       z     vdW  Elec       q    Type
REMARK                         _______ _______ _______ _____ _____    ______ ____
ROOT
ATOM      1  N   UNL     1      32.761 -24.513 -13.003  0.00  0.00    -0.351 N 
ATOM      2  C   UNL     1      33.877 -23.890 -13.494  0.00  0.00    +0.086 A 
ATOM      3  C   UNL     1      33.487 -23.080 -14.535  0.00  0.00    +0.096 A 
ATOM      4  C   UNL     1      32.079 -23.215 -14.684  0.00  0.00    +0.034 A 
ATOM      5  C   UNL     1      31.648 -24.119 -13.712  0.00  0.00    +0.058 A 
ATOM      6  C   UNL     1      31.125 -22.651 -15.556  0.00  0.00    +0.003 C 
ATOM      7  C   UNL     1      30.306 -24.490 -13.566  0.00  0.00    +0.017 C 
ATOM      8  C   UNL     1      29.780 -23.014 -15.422  0.00  0.00    +0.000 C 
ATOM      9  C   UNL     1      29.379 -23.919 -14.442  0.00  0.00    +0.001 C 
ATOM     10  H   UNL     1      32.755 -25.150 -12.253  0.00  0.00    +0.166 HD
ENDROOT
BRANCH   2  13
ATOM     11  O   UNL     1      34.623 -23.694 -10.566  0.00  0.00    -0.209 OA
ATOM     12  N   UNL     1      36.754 -24.409 -11.165  0.00  0.00    -0.333 NA
ATOM     13  C   UNL     1      35.159 -24.192 -12.858  0.00  0.00    +0.114 C 
ATOM     14  C   UNL     1      36.292 -24.610 -13.430  0.00  0.00    +0.044 C 
ATOM     15  C   UNL     1      37.242 -24.727 -12.317  0.00  0.00    +0.145 C 
ATOM     16  C   UNL     1      35.442 -24.053 -11.397  0.00  0.00    +0.206 C 
ATOM     17  C   UNL     1      36.696 -24.906 -14.773  0.00  0.00    +0.003 C 
ATOM     18  C   UNL     1      38.612 -25.181 -12.631  0.00  0.00    +0.033 C 
ATOM     19  C   UNL     1      37.958 -25.309 -14.997  0.00  0.00    +0.000 C 
ATOM     20  C   UNL     1      38.914 -25.450 -13.912  0.00  0.00    +0.003 C 
ENDBRANCH   2  13
BRANCH   3  21
ATOM     21  N   UNL     1      34.327 -22.269 -15.306  0.00  0.00    -0.262 N 
ATOM     22  H   UNL     1      34.645 -21.420 -14.922  0.00  0.00    +0.194 HD
BRANCH  21  23
ATOM     23  O   UNL     1      34.729 -22.610 -16.589  0.00  0.00    -0.260 OA
BRANCH  23  24
ATOM     24  C   UNL     1      35.926 -21.889 -16.842  0.00  0.00    +0.176 C 
BRANCH  24  25
ATOM     25  C   UNL     1      35.844 -21.208 -18.205  0.00  0.00    +0.067 C 
BRANCH  25  26
ATOM     26  C   UNL     1      34.466 -21.342 -18.864  0.00  0.00    +0.142 C 
BRANCH  26  27
ATOM     27  O   UNL     1      34.299 -22.688 -19.310  0.00  0.00    -0.382 OA
ATOM     28  H   UNL     1      33.406 -22.994 -19.088  0.00  0.00    +0.210 HD
ENDBRANCH  26  27
BRANCH  26  29
ATOM     29  C   UNL     1      34.338 -20.409 -20.066  0.00  0.00    +0.166 C 
BRANCH  29  30
ATOM     30  O   UNL     1      32.975 -20.041 -20.249  0.00  0.00    -0.379 OA
ATOM     31  H   UNL     1      32.630 -19.662 -19.425  0.00  0.00    +0.211 HD
ENDBRANCH  29  30
ENDBRANCH  26  29
ENDBRANCH  25  26
ENDBRANCH  24  25
ENDBRANCH  23  24
ENDBRANCH  21  23
ENDBRANCH   3  21
TORSDOF 9
ENDMDL
