MODEL 1
REMARK VINA RESULT:     -13.0      0.000      0.000
REMARK  Name = 447736
REMARK  4 active torsions:
REMARK  status: ('A' for Active; 'I' for Inactive)
REMARK    1  A    between atoms: N_2  and  C_13
REMARK    2  A    between atoms: C_3  and  C_20
REMARK    3  A    between atoms: C_6  and  C_17
REMARK    4  A    between atoms: C_28  and  C_32
REMARK                            x       y       z     vdW  Elec       q    Type
REMARK                         _______ _______ _______ _____ _____    ______ ____
ROOT
ATOM      1  O   UNL     1      33.405 -23.588 -17.671  0.00  0.00    -0.270 OA
ATOM      2  N   UNL     1      34.491 -21.960 -16.369  0.00  0.00    -0.280 N 
ATOM      3  C   UNL     1      33.851 -22.457 -17.512  0.00  0.00    +0.249 C 
ATOM      4  H   UNL     1      34.789 -21.022 -16.414  0.00  0.00    +0.155 HD
ENDROOT
BRANCH   2  13
ATOM      5  N   UNL     1      37.868 -25.094 -12.230  0.00  0.00    +0.388 N 
ATOM      6  C   UNL     1      37.782 -24.143 -13.356  0.00  0.00    -0.039 C 
ATOM      7  C   UNL     1      36.358 -23.722 -13.693  0.00  0.00    -0.045 C 
ATOM      8  C   UNL     1      35.315 -23.945 -12.770  0.00  0.00    -0.030 C 
ATOM      9  C   UNL     1      35.581 -24.655 -11.468  0.00  0.00    +0.003 C 
ATOM     10  C   UNL     1      37.062 -24.638 -11.099  0.00  0.00    -0.076 C 
ATOM     11  C   UNL     1      36.065 -23.038 -14.884  0.00  0.00    +0.008 C 
ATOM     12  C   UNL     1      34.007 -23.542 -13.077  0.00  0.00    -0.003 C 
ATOM     13  C   UNL     1      34.761 -22.631 -15.175  0.00  0.00    +0.050 C 
ATOM     14  C   UNL     1      33.732 -22.888 -14.276  0.00  0.00    +0.014 C 
ATOM     15  H   UNL     1      38.840 -25.175 -11.934  0.00  0.00    -0.084 HD
ATOM     16  H   UNL     1      37.511 -25.998 -12.539  0.00  0.00    -0.084 HD
BRANCH   6  17
ATOM     17  C   UNL     1      38.517 -24.794 -14.535  0.00  0.00    -0.015 C 
ATOM     18  C   UNL     1      40.024 -24.765 -14.302  0.00  0.00    -0.002 C 
ATOM     19  C   UNL     1      38.027 -26.223 -14.741  0.00  0.00    -0.002 C 
ENDBRANCH   6  17
ENDBRANCH   2  13
BRANCH   3  20
ATOM     20  C   UNL     1      33.737 -21.501 -18.643  0.00  0.00    +0.054 C 
ATOM     21  C   UNL     1      34.790 -19.984 -20.185  0.00  0.00    +0.000 C 
ATOM     22  C   UNL     1      34.881 -20.892 -19.116  0.00  0.00    +0.005 C 
ATOM     23  C   UNL     1      33.524 -19.711 -20.756  0.00  0.00    +0.000 C 
ATOM     24  C   UNL     1      32.495 -21.253 -19.180  0.00  0.00    +0.005 C 
ATOM     25  C   UNL     1      32.386 -20.354 -20.242  0.00  0.00    +0.000 C 
ATOM     26  C   UNL     1      33.433 -18.804 -21.824  0.00  0.00    +0.003 C 
ATOM     27  C   UNL     1      35.927 -19.341 -20.698  0.00  0.00    +0.000 C 
ATOM     28  C   UNL     1      34.574 -18.175 -22.322  0.00  0.00    +0.031 C 
ATOM     29  C   UNL     1      35.819 -18.443 -21.760  0.00  0.00    +0.003 C 
BRANCH  28  32
ATOM     30  N   UNL     1      34.970 -15.942 -23.334  0.00  0.00    -0.343 N 
ATOM     31  N   UNL     1      33.870 -17.608 -24.548  0.00  0.00    -0.285 NA
ATOM     32  C   UNL     1      34.463 -17.237 -23.428  0.00  0.00    +0.117 C 
ATOM     33  H   UNL     1      34.884 -15.323 -24.095  0.00  0.00    +0.144 HD
ATOM     34  H   UNL     1      35.413 -15.646 -22.506  0.00  0.00    +0.144 HD
ATOM     35  H   UNL     1      33.794 -16.974 -25.298  0.00  0.00    +0.188 HD
ENDBRANCH  28  32
ENDBRANCH   3  20
TORSDOF 4
ENDMDL
MODEL 2
REMARK VINA RESULT:     -12.9      1.101      2.625
REMARK  Name = 447736
REMARK  4 active torsions:
REMARK  status: ('A' for Active; 'I' for Inactive)
REMARK    1  A    between atoms: N_2  and  C_13
REMARK    2  A    between atoms: C_3  and  C_20
REMARK    3  A    between atoms: C_6  and  C_17
REMARK    4  A    between atoms: C_28  and  C_32
REMARK                            x       y       z     vdW  Elec       q    Type
REMARK                         _______ _______ _______ _____ _____    ______ ____
ROOT
ATOM      1  O   UNL     1      34.054 -22.918 -17.437  0.00  0.00    -0.270 OA
ATOM      2  N   UNL     1      36.113 -21.835 -17.094  0.00  0.00    -0.280 N 
ATOM      3  C   UNL     1      34.873 -22.048 -17.713  0.00  0.00    +0.249 C 
ATOM      4  H   UNL     1      36.647 -21.086 -17.445  0.00  0.00    +0.155 HD
ENDROOT
BRANCH   2  13
ATOM      5  N   UNL     1      36.276 -24.912 -11.722  0.00  0.00    +0.388 N 
ATOM      6  C   UNL     1      35.534 -24.453 -12.913  0.00  0.00    -0.039 C 
ATOM      7  C   UNL     1      36.420 -23.825 -13.981  0.00  0.00    -0.045 C 
ATOM      8  C   UNL     1      37.815 -24.026 -13.953  0.00  0.00    -0.030 C 
ATOM      9  C   UNL     1      38.456 -24.810 -12.836  0.00  0.00    +0.003 C 
ATOM     10  C   UNL     1      37.449 -25.695 -12.108  0.00  0.00    -0.076 C 
ATOM     11  C   UNL     1      35.867 -23.105 -15.052  0.00  0.00    +0.008 C 
ATOM     12  C   UNL     1      38.627 -23.459 -14.946  0.00  0.00    -0.003 C 
ATOM     13  C   UNL     1      36.683 -22.554 -16.043  0.00  0.00    +0.050 C 
ATOM     14  C   UNL     1      38.062 -22.726 -15.987  0.00  0.00    +0.014 C 
ATOM     15  H   UNL     1      35.663 -25.491 -11.149  0.00  0.00    -0.084 HD
ATOM     16  H   UNL     1      36.590 -24.095 -11.199  0.00  0.00    -0.084 HD
BRANCH   6  17
ATOM     17  C   UNL     1      34.434 -23.510 -12.406  0.00  0.00    -0.015 C 
ATOM     18  C   UNL     1      33.065 -23.994 -12.871  0.00  0.00    -0.002 C 
ATOM     19  C   UNL     1      34.485 -23.405 -10.886  0.00  0.00    -0.002 C 
ENDBRANCH   6  17
ENDBRANCH   2  13
BRANCH   3  20
ATOM     20  C   UNL     1      34.555 -21.126 -18.833  0.00  0.00    +0.054 C 
ATOM     21  C   UNL     1      35.290 -19.508 -20.454  0.00  0.00    +0.000 C 
ATOM     22  C   UNL     1      35.575 -20.386 -19.395  0.00  0.00    +0.005 C 
ATOM     23  C   UNL     1      33.960 -19.400 -20.925  0.00  0.00    +0.000 C 
ATOM     24  C   UNL     1      33.254 -21.038 -19.272  0.00  0.00    +0.005 C 
ATOM     25  C   UNL     1      32.953 -20.172 -20.323  0.00  0.00    +0.000 C 
ATOM     26  C   UNL     1      33.676 -18.522 -21.984  0.00  0.00    +0.003 C 
ATOM     27  C   UNL     1      36.297 -18.737 -21.056  0.00  0.00    +0.000 C 
ATOM     28  C   UNL     1      34.689 -17.763 -22.571  0.00  0.00    +0.031 C 
ATOM     29  C   UNL     1      35.997 -17.871 -22.107  0.00  0.00    +0.003 C 
BRANCH  28  32
ATOM     30  N   UNL     1      34.812 -15.534 -23.658  0.00  0.00    -0.343 N 
ATOM     31  N   UNL     1      33.668 -17.289 -24.694  0.00  0.00    -0.285 NA
ATOM     32  C   UNL     1      34.378 -16.859 -23.666  0.00  0.00    +0.117 C 
ATOM     33  H   UNL     1      34.591 -14.939 -24.411  0.00  0.00    +0.144 HD
ATOM     34  H   UNL     1      35.341 -15.194 -22.901  0.00  0.00    +0.144 HD
ATOM     35  H   UNL     1      33.456 -16.678 -25.436  0.00  0.00    +0.188 HD
ENDBRANCH  28  32
ENDBRANCH   3  20
TORSDOF 4
ENDMDL
MODEL 3
REMARK VINA RESULT:     -12.7      9.163     15.994
REMARK  Name = 447736
REMARK  4 active torsions:
REMARK  status: ('A' for Active; 'I' for Inactive)
REMARK    1  A    between atoms: N_2  and  C_13
REMARK    2  A    between atoms: C_3  and  C_20
REMARK    3  A    between atoms: C_6  and  C_17
REMARK    4  A    between atoms: C_28  and  C_32
REMARK                            x       y       z     vdW  Elec       q    Type
REMARK                         _______ _______ _______ _____ _____    ______ ____
ROOT
ATOM      1  O   UNL     1      30.046 -10.344 -21.819  0.00  0.00    -0.270 OA
ATOM      2  N   UNL     1      32.128  -9.287 -22.092  0.00  0.00    -0.280 N 
ATOM      3  C   UNL     1      31.271 -10.372 -21.866  0.00  0.00    +0.249 C 
ATOM      4  H   UNL     1      33.092  -9.491 -22.096  0.00  0.00    +0.155 HD
ENDROOT
BRANCH   2  13
ATOM      5  N   UNL     1      31.650  -3.963 -25.219  0.00  0.00    +0.388 N 
ATOM      6  C   UNL     1      31.758  -5.436 -25.207  0.00  0.00    -0.039 C 
ATOM      7  C   UNL     1      31.614  -6.047 -23.819  0.00  0.00    -0.045 C 
ATOM      8  C   UNL     1      31.066  -5.289 -22.763  0.00  0.00    -0.030 C 
ATOM      9  C   UNL     1      30.675  -3.848 -22.975  0.00  0.00    +0.003 C 
ATOM     10  C   UNL     1      30.488  -3.518 -24.453  0.00  0.00    -0.076 C 
ATOM     11  C   UNL     1      31.945  -7.390 -23.578  0.00  0.00    +0.008 C 
ATOM     12  C   UNL     1      30.921  -5.859 -21.490  0.00  0.00    -0.003 C 
ATOM     13  C   UNL     1      31.785  -7.952 -22.310  0.00  0.00    +0.050 C 
ATOM     14  C   UNL     1      31.279  -7.186 -21.265  0.00  0.00    +0.014 C 
ATOM     15  H   UNL     1      31.556  -3.644 -26.184  0.00  0.00    -0.084 HD
ATOM     16  H   UNL     1      32.490  -3.572 -24.793  0.00  0.00    -0.084 HD
BRANCH   6  17
ATOM     17  C   UNL     1      33.088  -5.783 -25.887  0.00  0.00    -0.015 C 
ATOM     18  C   UNL     1      33.000  -5.528 -27.387  0.00  0.00    -0.002 C 
ATOM     19  C   UNL     1      34.226  -4.980 -25.266  0.00  0.00    -0.002 C 
ENDBRANCH   6  17
ENDBRANCH   2  13
BRANCH   3  20
ATOM     20  C   UNL     1      31.944 -11.677 -21.637  0.00  0.00    +0.054 C 
ATOM     21  C   UNL     1      33.284 -13.490 -22.476  0.00  0.00    +0.000 C 
ATOM     22  C   UNL     1      32.643 -12.255 -22.676  0.00  0.00    +0.005 C 
ATOM     23  C   UNL     1      33.200 -14.117 -21.210  0.00  0.00    +0.000 C 
ATOM     24  C   UNL     1      31.846 -12.266 -20.398  0.00  0.00    +0.005 C 
ATOM     25  C   UNL     1      32.476 -13.492 -20.181  0.00  0.00    +0.000 C 
ATOM     26  C   UNL     1      33.841 -15.350 -21.010  0.00  0.00    +0.003 C 
ATOM     27  C   UNL     1      34.008 -14.114 -23.504  0.00  0.00    +0.000 C 
ATOM     28  C   UNL     1      34.555 -15.956 -22.043  0.00  0.00    +0.031 C 
ATOM     29  C   UNL     1      34.638 -15.339 -23.288  0.00  0.00    +0.003 C 
BRANCH  28  32
ATOM     30  N   UNL     1      35.439 -18.126 -22.868  0.00  0.00    -0.343 N 
ATOM     31  N   UNL     1      35.605 -17.569 -20.604  0.00  0.00    -0.285 NA
ATOM     32  C   UNL     1      35.212 -17.234 -21.821  0.00  0.00    +0.117 C 
ATOM     33  H   UNL     1      35.886 -18.985 -22.695  0.00  0.00    +0.144 HD
ATOM     34  H   UNL     1      35.152 -17.895 -23.781  0.00  0.00    +0.144 HD
ATOM     35  H   UNL     1      36.050 -18.434 -20.452  0.00  0.00    +0.188 HD
ENDBRANCH  28  32
ENDBRANCH   3  20
TORSDOF 4
ENDMDL
MODEL 4
REMARK VINA RESULT:     -12.6      8.970     15.815
REMARK  Name = 447736
REMARK  4 active torsions:
REMARK  status: ('A' for Active; 'I' for Inactive)
REMARK    1  A    between atoms: N_2  and  C_13
REMARK    2  A    between atoms: C_3  and  C_20
REMARK    3  A    between atoms: C_6  and  C_17
REMARK    4  A    between atoms: C_28  and  C_32
REMARK                            x       y       z     vdW  Elec       q    Type
REMARK                         _______ _______ _______ _____ _____    ______ ____
ROOT
ATOM      1  O   UNL     1      30.686 -10.704 -21.853  0.00  0.00    -0.270 OA
ATOM      2  N   UNL     1      32.588  -9.587 -22.668  0.00  0.00    -0.280 N 
ATOM      3  C   UNL     1      31.815 -10.707 -22.333  0.00  0.00    +0.249 C 
ATOM      4  H   UNL     1      33.479  -9.774 -23.044  0.00  0.00    +0.155 HD
ENDROOT
BRANCH   2  13
ATOM      5  N   UNL     1      31.930  -3.677 -24.398  0.00  0.00    +0.388 N 
ATOM      6  C   UNL     1      32.011  -5.111 -24.742  0.00  0.00    -0.039 C 
ATOM      7  C   UNL     1      31.981  -6.032 -23.530  0.00  0.00    -0.045 C 
ATOM      8  C   UNL     1      31.546  -5.546 -22.280  0.00  0.00    -0.030 C 
ATOM      9  C   UNL     1      31.164  -4.098 -22.109  0.00  0.00    +0.003 C 
ATOM     10  C   UNL     1      30.851  -3.429 -23.445  0.00  0.00    -0.076 C 
ATOM     11  C   UNL     1      32.307  -7.394 -23.644  0.00  0.00    +0.008 C 
ATOM     12  C   UNL     1      31.506  -6.401 -21.169  0.00  0.00    -0.003 C 
ATOM     13  C   UNL     1      32.252  -8.240 -22.534  0.00  0.00    +0.050 C 
ATOM     14  C   UNL     1      31.858  -7.743 -21.296  0.00  0.00    +0.014 C 
ATOM     15  H   UNL     1      31.755  -3.140 -25.247  0.00  0.00    -0.084 HD
ATOM     16  H   UNL     1      32.812  -3.395 -23.971  0.00  0.00    -0.084 HD
BRANCH   6  17
ATOM     17  C   UNL     1      33.267  -5.284 -25.605  0.00  0.00    -0.015 C 
ATOM     18  C   UNL     1      32.883  -5.520 -27.061  0.00  0.00    -0.002 C 
ATOM     19  C   UNL     1      34.173  -4.065 -25.473  0.00  0.00    -0.002 C 
ENDBRANCH   6  17
ENDBRANCH   2  13
BRANCH   3  20
ATOM     20  C   UNL     1      32.465 -12.022 -22.568  0.00  0.00    +0.054 C 
ATOM     21  C   UNL     1      33.439 -14.037 -21.685  0.00  0.00    +0.000 C 
ATOM     22  C   UNL     1      32.822 -12.791 -21.479  0.00  0.00    +0.005 C 
ATOM     23  C   UNL     1      33.682 -14.479 -23.007  0.00  0.00    +0.000 C 
ATOM     24  C   UNL     1      32.690 -12.429 -23.862  0.00  0.00    +0.005 C 
ATOM     25  C   UNL     1      33.302 -13.663 -24.085  0.00  0.00    +0.000 C 
ATOM     26  C   UNL     1      34.298 -15.724 -23.212  0.00  0.00    +0.003 C 
ATOM     27  C   UNL     1      33.819 -14.852 -20.607  0.00  0.00    +0.000 C 
ATOM     28  C   UNL     1      34.669 -16.522 -22.130  0.00  0.00    +0.031 C 
ATOM     29  C   UNL     1      34.430 -16.086 -20.829  0.00  0.00    +0.003 C 
BRANCH  28  32
ATOM     30  N   UNL     1      36.658 -18.008 -22.078  0.00  0.00    -0.343 N 
ATOM     31  N   UNL     1      34.603 -18.814 -22.846  0.00  0.00    -0.285 NA
ATOM     32  C   UNL     1      35.307 -17.808 -22.359  0.00  0.00    +0.117 C 
ATOM     33  H   UNL     1      37.070 -18.888 -22.240  0.00  0.00    +0.144 HD
ATOM     34  H   UNL     1      37.200 -17.270 -21.717  0.00  0.00    +0.144 HD
ATOM     35  H   UNL     1      35.034 -19.686 -23.001  0.00  0.00    +0.188 HD
ENDBRANCH  28  32
ENDBRANCH   3  20
TORSDOF 4
ENDMDL
MODEL 5
REMARK VINA RESULT:     -12.3      2.358     10.389
REMARK  Name = 447736
REMARK  4 active torsions:
REMARK  status: ('A' for Active; 'I' for Inactive)
REMARK    1  A    between atoms: N_2  and  C_13
REMARK    2  A    between atoms: C_3  and  C_20
REMARK    3  A    between atoms: C_6  and  C_17
REMARK    4  A    between atoms: C_28  and  C_32
REMARK                            x       y       z     vdW  Elec       q    Type
REMARK                         _______ _______ _______ _____ _____    ______ ____
ROOT
ATOM      1  O   UNL     1      32.285 -20.503 -20.367  0.00  0.00    -0.270 OA
ATOM      2  N   UNL     1      34.389 -19.459 -20.467  0.00  0.00    -0.280 N 
ATOM      3  C   UNL     1      33.427 -20.338 -19.952  0.00  0.00    +0.249 C 
ATOM      4  H   UNL     1      35.260 -19.454 -20.009  0.00  0.00    +0.155 HD
ENDROOT
BRANCH   2  13
ATOM      5  N   UNL     1      33.772 -14.021 -23.366  0.00  0.00    +0.388 N 
ATOM      6  C   UNL     1      34.217 -14.806 -22.197  0.00  0.00    -0.039 C 
ATOM      7  C   UNL     1      34.158 -16.312 -22.415  0.00  0.00    -0.045 C 
ATOM      8  C   UNL     1      34.047 -16.836 -23.719  0.00  0.00    -0.030 C 
ATOM      9  C   UNL     1      33.923 -15.918 -24.908  0.00  0.00    +0.003 C 
ATOM     10  C   UNL     1      34.404 -14.505 -24.592  0.00  0.00    -0.076 C 
ATOM     11  C   UNL     1      34.291 -17.207 -21.341  0.00  0.00    +0.008 C 
ATOM     12  C   UNL     1      34.009 -18.224 -23.918  0.00  0.00    -0.003 C 
ATOM     13  C   UNL     1      34.263 -18.588 -21.551  0.00  0.00    +0.050 C 
ATOM     14  C   UNL     1      34.116 -19.096 -22.837  0.00  0.00    +0.014 C 
ATOM     15  H   UNL     1      34.023 -13.042 -23.226  0.00  0.00    -0.084 HD
ATOM     16  H   UNL     1      32.761 -14.121 -23.460  0.00  0.00    -0.084 HD
BRANCH   6  17
ATOM     17  C   UNL     1      33.375 -14.332 -21.005  0.00  0.00    -0.015 C 
ATOM     18  C   UNL     1      34.214 -13.465 -20.074  0.00  0.00    -0.002 C 
ATOM     19  C   UNL     1      32.146 -13.573 -21.493  0.00  0.00    -0.002 C 
ENDBRANCH   6  17
ENDBRANCH   2  13
BRANCH   3  20
ATOM     20  C   UNL     1      33.854 -21.121 -18.763  0.00  0.00    +0.054 C 
ATOM     21  C   UNL     1      35.584 -21.763 -17.220  0.00  0.00    +0.000 C 
ATOM     22  C   UNL     1      35.164 -21.028 -18.342  0.00  0.00    +0.005 C 
ATOM     23  C   UNL     1      34.652 -22.587 -16.544  0.00  0.00    +0.000 C 
ATOM     24  C   UNL     1      32.930 -21.915 -18.124  0.00  0.00    +0.005 C 
ATOM     25  C   UNL     1      33.329 -22.652 -17.009  0.00  0.00    +0.000 C 
ATOM     26  C   UNL     1      35.072 -23.321 -15.423  0.00  0.00    +0.003 C 
ATOM     27  C   UNL     1      36.907 -21.697 -16.755  0.00  0.00    +0.000 C 
ATOM     28  C   UNL     1      36.391 -23.244 -14.975  0.00  0.00    +0.031 C 
ATOM     29  C   UNL     1      37.307 -22.433 -15.640  0.00  0.00    +0.003 C 
BRANCH  28  32
ATOM     30  N   UNL     1      36.072 -25.104 -13.361  0.00  0.00    -0.343 N 
ATOM     31  N   UNL     1      37.909 -23.673 -13.163  0.00  0.00    -0.285 NA
ATOM     32  C   UNL     1      36.810 -24.011 -13.813  0.00  0.00    +0.117 C 
ATOM     33  H   UNL     1      36.375 -25.610 -12.573  0.00  0.00    +0.144 HD
ATOM     34  H   UNL     1      35.249 -25.370 -13.831  0.00  0.00    +0.144 HD
ATOM     35  H   UNL     1      38.195 -24.192 -12.376  0.00  0.00    +0.188 HD
ENDBRANCH  28  32
ENDBRANCH   3  20
TORSDOF 4
ENDMDL
MODEL 6
REMARK VINA RESULT:     -12.1      2.343     10.640
REMARK  Name = 447736
REMARK  4 active torsions:
REMARK  status: ('A' for Active; 'I' for Inactive)
REMARK    1  A    between atoms: N_2  and  C_13
REMARK    2  A    between atoms: C_3  and  C_20
REMARK    3  A    between atoms: C_6  and  C_17
REMARK    4  A    between atoms: C_28  and  C_32
REMARK                            x       y       z     vdW  Elec       q    Type
REMARK                         _______ _______ _______ _____ _____    ______ ____
ROOT
ATOM      1  O   UNL     1      32.949 -20.612 -20.267  0.00  0.00    -0.270 OA
ATOM      2  N   UNL     1      34.855 -19.265 -20.549  0.00  0.00    -0.280 N 
ATOM      3  C   UNL     1      34.077 -20.260 -19.941  0.00  0.00    +0.249 C 
ATOM      4  H   UNL     1      35.744 -19.111 -20.155  0.00  0.00    +0.155 HD
ENDROOT
BRANCH   2  13
ATOM      5  N   UNL     1      33.406 -14.055 -23.568  0.00  0.00    +0.388 N 
ATOM      6  C   UNL     1      34.056 -14.738 -22.432  0.00  0.00    -0.039 C 
ATOM      7  C   UNL     1      34.109 -16.253 -22.580  0.00  0.00    -0.045 C 
ATOM      8  C   UNL     1      33.893 -16.851 -23.838  0.00  0.00    -0.030 C 
ATOM      9  C   UNL     1      33.546 -16.009 -25.039  0.00  0.00    +0.003 C 
ATOM     10  C   UNL     1      33.931 -14.545 -24.842  0.00  0.00    -0.076 C 
ATOM     11  C   UNL     1      34.449 -17.077 -21.495  0.00  0.00    +0.008 C 
ATOM     12  C   UNL     1      33.958 -18.246 -23.974  0.00  0.00    -0.003 C 
ATOM     13  C   UNL     1      34.523 -18.464 -21.643  0.00  0.00    +0.050 C 
ATOM     14  C   UNL     1      34.271 -19.048 -22.880  0.00  0.00    +0.014 C 
ATOM     15  H   UNL     1      33.582 -13.053 -23.500  0.00  0.00    -0.084 HD
ATOM     16  H   UNL     1      32.405 -14.246 -23.534  0.00  0.00    -0.084 HD
BRANCH   6  17
ATOM     17  C   UNL     1      33.321 -14.278 -21.166  0.00  0.00    -0.015 C 
ATOM     18  C   UNL     1      34.255 -13.463 -20.277  0.00  0.00    -0.002 C 
ATOM     19  C   UNL     1      32.083 -13.469 -21.537  0.00  0.00    -0.002 C 
ENDBRANCH   6  17
ENDBRANCH   2  13
BRANCH   3  20
ATOM     20  C   UNL     1      34.699 -20.924 -18.766  0.00  0.00    +0.054 C 
ATOM     21  C   UNL     1      34.483 -22.347 -16.839  0.00  0.00    +0.000 C 
ATOM     22  C   UNL     1      33.911 -21.713 -17.955  0.00  0.00    +0.005 C 
ATOM     23  C   UNL     1      35.860 -22.162 -16.569  0.00  0.00    +0.000 C 
ATOM     24  C   UNL     1      36.039 -20.728 -18.526  0.00  0.00    +0.005 C 
ATOM     25  C   UNL     1      36.624 -21.349 -17.422  0.00  0.00    +0.000 C 
ATOM     26  C   UNL     1      36.432 -22.796 -15.454  0.00  0.00    +0.003 C 
ATOM     27  C   UNL     1      33.719 -23.160 -15.987  0.00  0.00    +0.000 C 
ATOM     28  C   UNL     1      35.658 -23.600 -14.618  0.00  0.00    +0.031 C 
ATOM     29  C   UNL     1      34.304 -23.782 -14.884  0.00  0.00    +0.003 C 
BRANCH  28  32
ATOM     30  N   UNL     1      35.513 -25.038 -12.598  0.00  0.00    -0.343 N 
ATOM     31  N   UNL     1      37.555 -24.091 -13.227  0.00  0.00    -0.285 NA
ATOM     32  C   UNL     1      36.265 -24.249 -13.466  0.00  0.00    +0.117 C 
ATOM     33  H   UNL     1      35.945 -25.469 -11.825  0.00  0.00    +0.144 HD
ATOM     34  H   UNL     1      34.550 -25.166 -12.759  0.00  0.00    +0.144 HD
ATOM     35  H   UNL     1      37.968 -24.530 -12.448  0.00  0.00    +0.188 HD
ENDBRANCH  28  32
ENDBRANCH   3  20
TORSDOF 4
ENDMDL
MODEL 7
REMARK VINA RESULT:     -12.0      9.283     15.839
REMARK  Name = 447736
REMARK  4 active torsions:
REMARK  status: ('A' for Active; 'I' for Inactive)
REMARK    1  A    between atoms: N_2  and  C_13
REMARK    2  A    between atoms: C_3  and  C_20
REMARK    3  A    between atoms: C_6  and  C_17
REMARK    4  A    between atoms: C_28  and  C_32
REMARK                            x       y       z     vdW  Elec       q    Type
REMARK                         _______ _______ _______ _____ _____    ______ ____
ROOT
ATOM      1  O   UNL     1      30.184 -10.146 -21.757  0.00  0.00    -0.270 OA
ATOM      2  N   UNL     1      32.109  -9.371 -22.862  0.00  0.00    -0.280 N 
ATOM      3  C   UNL     1      31.330 -10.304 -22.164  0.00  0.00    +0.249 C 
ATOM      4  H   UNL     1      33.014  -9.667 -23.113  0.00  0.00    +0.155 HD
ENDROOT
BRANCH   2  13
ATOM      5  N   UNL     1      31.300  -3.265 -22.222  0.00  0.00    +0.388 N 
ATOM      6  C   UNL     1      31.986  -4.513 -21.834  0.00  0.00    -0.039 C 
ATOM      7  C   UNL     1      31.675  -5.691 -22.749  0.00  0.00    -0.045 C 
ATOM      8  C   UNL     1      31.098  -5.471 -24.016  0.00  0.00    -0.030 C 
ATOM      9  C   UNL     1      30.723  -4.080 -24.460  0.00  0.00    +0.003 C 
ATOM     10  C   UNL     1      31.451  -3.008 -23.653  0.00  0.00    -0.076 C 
ATOM     11  C   UNL     1      32.025  -7.003 -22.389  0.00  0.00    +0.008 C 
ATOM     12  C   UNL     1      30.826  -6.557 -24.863  0.00  0.00    -0.003 C 
ATOM     13  C   UNL     1      31.761  -8.075 -23.244  0.00  0.00    +0.050 C 
ATOM     14  C   UNL     1      31.157  -7.854 -24.476  0.00  0.00    +0.014 C 
ATOM     15  H   UNL     1      31.702  -2.487 -21.699  0.00  0.00    -0.084 HD
ATOM     16  H   UNL     1      30.306  -3.361 -22.013  0.00  0.00    -0.084 HD
BRANCH   6  17
ATOM     17  C   UNL     1      31.625  -4.774 -20.366  0.00  0.00    -0.015 C 
ATOM     18  C   UNL     1      30.115  -4.911 -20.208  0.00  0.00    -0.002 C 
ATOM     19  C   UNL     1      32.339  -6.021 -19.858  0.00  0.00    -0.002 C 
ENDBRANCH   6  17
ENDBRANCH   2  13
BRANCH   3  20
ATOM     20  C   UNL     1      31.995 -11.601 -21.877  0.00  0.00    +0.054 C 
ATOM     21  C   UNL     1      33.295 -13.474 -22.645  0.00  0.00    +0.000 C 
ATOM     22  C   UNL     1      32.662 -12.245 -22.899  0.00  0.00    +0.005 C 
ATOM     23  C   UNL     1      33.236 -14.027 -21.343  0.00  0.00    +0.000 C 
ATOM     24  C   UNL     1      31.922 -12.118 -20.605  0.00  0.00    +0.005 C 
ATOM     25  C   UNL     1      32.545 -13.337 -20.334  0.00  0.00    +0.000 C 
ATOM     26  C   UNL     1      33.869 -15.255 -21.090  0.00  0.00    +0.003 C 
ATOM     27  C   UNL     1      33.986 -14.163 -23.653  0.00  0.00    +0.000 C 
ATOM     28  C   UNL     1      34.551 -15.926 -22.104  0.00  0.00    +0.031 C 
ATOM     29  C   UNL     1      34.610 -15.382 -23.384  0.00  0.00    +0.003 C 
BRANCH  28  32
ATOM     30  N   UNL     1      35.521 -18.088 -22.848  0.00  0.00    -0.343 N 
ATOM     31  N   UNL     1      35.496 -17.526 -20.580  0.00  0.00    -0.285 NA
ATOM     32  C   UNL     1      35.201 -17.197 -21.825  0.00  0.00    +0.117 C 
ATOM     33  H   UNL     1      35.962 -18.943 -22.637  0.00  0.00    +0.144 HD
ATOM     34  H   UNL     1      35.307 -17.862 -23.782  0.00  0.00    +0.144 HD
ATOM     35  H   UNL     1      35.936 -18.387 -20.390  0.00  0.00    +0.188 HD
ENDBRANCH  28  32
ENDBRANCH   3  20
TORSDOF 4
ENDMDL
MODEL 8
REMARK VINA RESULT:     -11.7      3.366     11.148
REMARK  Name = 447736
REMARK  4 active torsions:
REMARK  status: ('A' for Active; 'I' for Inactive)
REMARK    1  A    between atoms: N_2  and  C_13
REMARK    2  A    between atoms: C_3  and  C_20
REMARK    3  A    between atoms: C_6  and  C_17
REMARK    4  A    between atoms: C_28  and  C_32
REMARK                            x       y       z     vdW  Elec       q    Type
REMARK                         _______ _______ _______ _____ _____    ______ ____
ROOT
ATOM      1  O   UNL     1      33.943 -19.340 -22.641  0.00  0.00    -0.270 OA
ATOM      2  N   UNL     1      34.373 -17.447 -21.315  0.00  0.00    -0.280 N 
ATOM      3  C   UNL     1      34.262 -18.820 -21.578  0.00  0.00    +0.249 C 
ATOM      4  H   UNL     1      34.642 -17.204 -20.400  0.00  0.00    +0.155 HD
ENDROOT
BRANCH   2  13
ATOM      5  N   UNL     1      32.502 -11.813 -23.077  0.00  0.00    +0.388 N 
ATOM      6  C   UNL     1      32.982 -12.733 -22.026  0.00  0.00    -0.039 C 
ATOM      7  C   UNL     1      33.451 -14.079 -22.561  0.00  0.00    -0.045 C 
ATOM      8  C   UNL     1      33.731 -14.239 -23.934  0.00  0.00    -0.030 C 
ATOM      9  C   UNL     1      33.509 -13.103 -24.900  0.00  0.00    +0.003 C 
ATOM     10  C   UNL     1      33.447 -11.753 -24.190  0.00  0.00    -0.076 C 
ATOM     11  C   UNL     1      33.692 -15.160 -21.697  0.00  0.00    +0.008 C 
ATOM     12  C   UNL     1      34.178 -15.476 -24.421  0.00  0.00    -0.003 C 
ATOM     13  C   UNL     1      34.149 -16.384 -22.191  0.00  0.00    +0.050 C 
ATOM     14  C   UNL     1      34.386 -16.544 -23.552  0.00  0.00    +0.014 C 
ATOM     15  H   UNL     1      32.395 -10.880 -22.680  0.00  0.00    -0.084 HD
ATOM     16  H   UNL     1      31.608 -12.158 -23.428  0.00  0.00    -0.084 HD
BRANCH   6  17
ATOM     17  C   UNL     1      31.850 -12.851 -20.997  0.00  0.00    -0.015 C 
ATOM     18  C   UNL     1      32.251 -13.800 -19.874  0.00  0.00    -0.002 C 
ATOM     19  C   UNL     1      31.491 -11.476 -20.444  0.00  0.00    -0.002 C 
ENDBRANCH   6  17
ENDBRANCH   2  13
BRANCH   3  20
ATOM     20  C   UNL     1      34.540 -19.713 -20.424  0.00  0.00    +0.054 C 
ATOM     21  C   UNL     1      33.734 -21.231 -18.741  0.00  0.00    +0.000 C 
ATOM     22  C   UNL     1      33.488 -20.383 -19.835  0.00  0.00    +0.005 C 
ATOM     23  C   UNL     1      35.058 -21.380 -18.264  0.00  0.00    +0.000 C 
ATOM     24  C   UNL     1      35.835 -19.840 -19.980  0.00  0.00    +0.005 C 
ATOM     25  C   UNL     1      36.098 -20.677 -18.895  0.00  0.00    +0.000 C 
ATOM     26  C   UNL     1      35.303 -22.227 -17.172  0.00  0.00    +0.003 C 
ATOM     27  C   UNL     1      32.694 -21.933 -18.111  0.00  0.00    +0.000 C 
ATOM     28  C   UNL     1      34.258 -22.918 -16.558  0.00  0.00    +0.031 C 
ATOM     29  C   UNL     1      32.956 -22.771 -17.027  0.00  0.00    +0.003 C 
BRANCH  28  32
ATOM     30  N   UNL     1      33.606 -23.946 -14.394  0.00  0.00    -0.343 N 
ATOM     31  N   UNL     1      35.670 -24.453 -15.365  0.00  0.00    -0.285 NA
ATOM     32  C   UNL     1      34.529 -23.791 -15.427  0.00  0.00    +0.117 C 
ATOM     33  H   UNL     1      33.809 -24.543 -13.638  0.00  0.00    +0.144 HD
ATOM     34  H   UNL     1      32.750 -23.460 -14.421  0.00  0.00    +0.144 HD
ATOM     35  H   UNL     1      35.855 -25.044 -14.599  0.00  0.00    +0.188 HD
ENDBRANCH  28  32
ENDBRANCH   3  20
TORSDOF 4
ENDMDL
MODEL 9
REMARK VINA RESULT:     -11.5      2.291      4.078
REMARK  Name = 447736
REMARK  4 active torsions:
REMARK  status: ('A' for Active; 'I' for Inactive)
REMARK    1  A    between atoms: N_2  and  C_13
REMARK    2  A    between atoms: C_3  and  C_20
REMARK    3  A    between atoms: C_6  and  C_17
REMARK    4  A    between atoms: C_28  and  C_32
REMARK                            x       y       z     vdW  Elec       q    Type
REMARK                         _______ _______ _______ _____ _____    ______ ____
ROOT
ATOM      1  O   UNL     1      35.933 -21.767 -20.509  0.00  0.00    -0.270 OA
ATOM      2  N   UNL     1      35.246 -20.417 -18.711  0.00  0.00    -0.280 N 
ATOM      3  C   UNL     1      35.443 -20.736 -20.062  0.00  0.00    +0.249 C 
ATOM      4  H   UNL     1      34.837 -19.539 -18.530  0.00  0.00    +0.155 HD
ENDROOT
BRANCH   2  13
ATOM      5  N   UNL     1      34.172 -24.069 -13.827  0.00  0.00    +0.388 N 
ATOM      6  C   UNL     1      33.776 -23.556 -15.154  0.00  0.00    -0.039 C 
ATOM      7  C   UNL     1      34.852 -22.715 -15.828  0.00  0.00    -0.045 C 
ATOM      8  C   UNL     1      36.184 -22.766 -15.369  0.00  0.00    -0.030 C 
ATOM      9  C   UNL     1      36.552 -23.602 -14.170  0.00  0.00    +0.003 C 
ATOM     10  C   UNL     1      35.503 -24.671 -13.875  0.00  0.00    -0.076 C 
ATOM     11  C   UNL     1      34.562 -21.937 -16.961  0.00  0.00    +0.008 C 
ATOM     12  C   UNL     1      37.175 -22.002 -16.002  0.00  0.00    -0.003 C 
ATOM     13  C   UNL     1      35.559 -21.189 -17.592  0.00  0.00    +0.050 C 
ATOM     14  C   UNL     1      36.862 -21.216 -17.109  0.00  0.00    +0.014 C 
ATOM     15  H   UNL     1      33.498 -24.775 -13.528  0.00  0.00    -0.084 HD
ATOM     16  H   UNL     1      34.190 -23.291 -13.169  0.00  0.00    -0.084 HD
BRANCH   6  17
ATOM     17  C   UNL     1      32.454 -22.804 -14.955  0.00  0.00    -0.015 C 
ATOM     18  C   UNL     1      31.467 -23.166 -16.060  0.00  0.00    -0.002 C 
ATOM     19  C   UNL     1      31.869 -23.113 -13.582  0.00  0.00    -0.002 C 
ENDBRANCH   6  17
ENDBRANCH   2  13
BRANCH   3  20
ATOM     20  C   UNL     1      35.030 -19.687 -21.030  0.00  0.00    +0.054 C 
ATOM     21  C   UNL     1      34.582 -17.372 -21.506  0.00  0.00    +0.000 C 
ATOM     22  C   UNL     1      34.971 -18.376 -20.603  0.00  0.00    +0.005 C 
ATOM     23  C   UNL     1      34.257 -17.726 -22.837  0.00  0.00    +0.000 C 
ATOM     24  C   UNL     1      34.720 -20.057 -22.317  0.00  0.00    +0.005 C 
ATOM     25  C   UNL     1      34.331 -19.073 -23.227  0.00  0.00    +0.000 C 
ATOM     26  C   UNL     1      33.868 -16.722 -23.739  0.00  0.00    +0.003 C 
ATOM     27  C   UNL     1      34.508 -16.025 -21.116  0.00  0.00    +0.000 C 
ATOM     28  C   UNL     1      33.800 -15.389 -23.335  0.00  0.00    +0.031 C 
ATOM     29  C   UNL     1      34.120 -15.041 -22.025  0.00  0.00    +0.003 C 
BRANCH  28  32
ATOM     30  N   UNL     1      33.289 -13.026 -23.899  0.00  0.00    -0.343 N 
ATOM     31  N   UNL     1      33.115 -14.691 -25.529  0.00  0.00    -0.285 NA
ATOM     32  C   UNL     1      33.394 -14.362 -24.280  0.00  0.00    +0.117 C 
ATOM     33  H   UNL     1      33.013 -12.346 -24.556  0.00  0.00    +0.144 HD
ATOM     34  H   UNL     1      33.491 -12.761 -22.972  0.00  0.00    +0.144 HD
ATOM     35  H   UNL     1      32.840 -13.996 -26.171  0.00  0.00    +0.188 HD
ENDBRANCH  28  32
ENDBRANCH   3  20
TORSDOF 4
ENDMDL
