MODEL 1
REMARK VINA RESULT:     -12.2      0.000      0.000
REMARK  Name = 25093369
REMARK  5 active torsions:
REMARK  status: ('A' for Active; 'I' for Inactive)
REMARK    1  A    between atoms: C_1  and  C_3
REMARK    2  A    between atoms: C_1  and  C_17
REMARK    3  A    between atoms: C_4  and  C_9
REMARK    4  A    between atoms: C_7  and  O_15
REMARK    5  A    between atoms: C_18  and  C_23
REMARK                            x       y       z     vdW  Elec       q    Type
REMARK                         _______ _______ _______ _____ _____    ______ ____
ROOT
ATOM      1  C   UNL     1      32.369 -23.592 -13.641  0.00  0.00    +0.086 C 
ATOM      2  C   UNL     1      31.502 -24.776 -13.173  0.00  0.00    +0.019 C 
ENDROOT
BRANCH   1   3
ATOM      3  C   UNL     1      31.917 -23.033 -14.948  0.00  0.00    -0.007 C 
ATOM      4  C   UNL     1      32.434 -22.066 -17.101  0.00  0.00    +0.003 C 
ATOM      5  C   UNL     1      32.857 -22.590 -15.880  0.00  0.00    -0.003 C 
ATOM      6  C   UNL     1      30.555 -22.953 -15.238  0.00  0.00    +0.034 C 
ATOM      7  C   UNL     1      30.133 -22.429 -16.460  0.00  0.00    +0.138 C 
ATOM      8  C   UNL     1      31.072 -21.986 -17.391  0.00  0.00    +0.037 C 
BRANCH   4   9
ATOM      9  C   UNL     1      33.407 -21.607 -18.067  0.00  0.00    +0.000 C 
ATOM     10  C   UNL     1      32.987 -20.961 -19.230  0.00  0.00    +0.000 C 
ATOM     11  C   UNL     1      34.768 -21.811 -17.837  0.00  0.00    +0.000 C 
ATOM     12  C   UNL     1      33.925 -20.518 -20.161  0.00  0.00    +0.000 C 
ATOM     13  C   UNL     1      35.708 -21.368 -18.768  0.00  0.00    +0.000 C 
ATOM     14  C   UNL     1      35.286 -20.722 -19.930  0.00  0.00    +0.000 C 
ENDBRANCH   4   9
BRANCH   7  15
ATOM     15  O   UNL     1      28.803 -22.352 -16.744  0.00  0.00    -0.471 OA
ATOM     16  C   UNL     1      27.906 -22.969 -15.823  0.00  0.00    +0.252 C 
ENDBRANCH   7  15
ENDBRANCH   1   3
BRANCH   1  17
ATOM     17  C   UNL     1      33.798 -23.997 -13.663  0.00  0.00    -0.087 C 
ATOM     18  C   UNL     1      34.949 -24.337 -13.697  0.00  0.00    -0.076 C 
BRANCH  18  23
ATOM     19  N   UNL     1      38.619 -24.365 -13.146  0.00  0.00    -0.336 NA
ATOM     20  N   UNL     1      38.019 -26.288 -14.469  0.00  0.00    -0.317 NA
ATOM     21  N   UNL     1      35.765 -26.679 -15.069  0.00  0.00    -0.334 N 
ATOM     22  N   UNL     1      40.251 -25.888 -13.867  0.00  0.00    -0.283 N 
ATOM     23  C   UNL     1      36.319 -24.745 -13.745  0.00  0.00    +0.179 C 
ATOM     24  C   UNL     1      37.315 -24.018 -13.127  0.00  0.00    +0.120 C 
ATOM     25  C   UNL     1      36.733 -25.881 -14.409  0.00  0.00    +0.186 C 
ATOM     26  C   UNL     1      37.000 -22.765 -12.374  0.00  0.00    +0.064 C 
ATOM     27  C   UNL     1      38.896 -25.494 -13.825  0.00  0.00    +0.196 C 
ATOM     28  H   UNL     1      36.041 -27.493 -15.547  0.00  0.00    +0.144 HD
ATOM     29  H   UNL     1      34.815 -26.417 -15.048  0.00  0.00    +0.144 HD
ATOM     30  H   UNL     1      40.936 -25.345 -13.414  0.00  0.00    +0.156 HD
ATOM     31  H   UNL     1      40.512 -26.706 -14.350  0.00  0.00    +0.156 HD
ENDBRANCH  18  23
ENDBRANCH   1  17
TORSDOF 5
ENDMDL
MODEL 2
REMARK VINA RESULT:     -11.8      2.575      4.546
REMARK  Name = 25093369
REMARK  5 active torsions:
REMARK  status: ('A' for Active; 'I' for Inactive)
REMARK    1  A    between atoms: C_1  and  C_3
REMARK    2  A    between atoms: C_1  and  C_17
REMARK    3  A    between atoms: C_4  and  C_9
REMARK    4  A    between atoms: C_7  and  O_15
REMARK    5  A    between atoms: C_18  and  C_23
REMARK                            x       y       z     vdW  Elec       q    Type
REMARK                         _______ _______ _______ _____ _____    ______ ____
ROOT
ATOM      1  C   UNL     1      36.997 -21.569 -16.622  0.00  0.00    +0.086 C 
ATOM      2  C   UNL     1      37.748 -20.235 -16.446  0.00  0.00    +0.019 C 
ENDROOT
BRANCH   1   3
ATOM      3  C   UNL     1      35.839 -21.455 -17.554  0.00  0.00    -0.007 C 
ATOM      4  C   UNL     1      34.833 -20.505 -19.536  0.00  0.00    +0.003 C 
ATOM      5  C   UNL     1      35.917 -20.613 -18.665  0.00  0.00    -0.003 C 
ATOM      6  C   UNL     1      34.677 -22.189 -17.316  0.00  0.00    +0.034 C 
ATOM      7  C   UNL     1      33.594 -22.081 -18.188  0.00  0.00    +0.138 C 
ATOM      8  C   UNL     1      33.672 -21.240 -19.297  0.00  0.00    +0.037 C 
BRANCH   4   9
ATOM      9  C   UNL     1      34.914 -19.634 -20.686  0.00  0.00    +0.000 C 
ATOM     10  C   UNL     1      33.855 -19.572 -21.592  0.00  0.00    +0.000 C 
ATOM     11  C   UNL     1      36.051 -18.852 -20.891  0.00  0.00    +0.000 C 
ATOM     12  C   UNL     1      33.932 -18.732 -22.701  0.00  0.00    +0.000 C 
ATOM     13  C   UNL     1      36.129 -18.010 -22.001  0.00  0.00    +0.000 C 
ATOM     14  C   UNL     1      35.070 -17.950 -22.906  0.00  0.00    +0.000 C 
ENDBRANCH   4   9
BRANCH   7  15
ATOM     15  O   UNL     1      32.460 -22.800 -17.955  0.00  0.00    -0.471 OA
ATOM     16  C   UNL     1      31.935 -22.773 -16.630  0.00  0.00    +0.252 C 
ENDBRANCH   7  15
ENDBRANCH   1   3
BRANCH   1  17
ATOM     17  C   UNL     1      36.603 -22.099 -15.292  0.00  0.00    -0.087 C 
ATOM     18  C   UNL     1      36.302 -22.518 -14.207  0.00  0.00    -0.076 C 
BRANCH  18  23
ATOM     19  N   UNL     1      34.491 -24.328 -11.521  0.00  0.00    -0.336 NA
ATOM     20  N   UNL     1      36.348 -23.145 -10.542  0.00  0.00    -0.317 NA
ATOM     21  N   UNL     1      37.791 -21.845 -11.892  0.00  0.00    -0.334 N 
ATOM     22  N   UNL     1      34.909 -24.439  -9.215  0.00  0.00    -0.283 N 
ATOM     23  C   UNL     1      35.947 -23.011 -12.912  0.00  0.00    +0.179 C 
ATOM     24  C   UNL     1      34.861 -23.840 -12.723  0.00  0.00    +0.120 C 
ATOM     25  C   UNL     1      36.661 -22.693 -11.775  0.00  0.00    +0.186 C 
ATOM     26  C   UNL     1      34.003 -24.260 -13.874  0.00  0.00    +0.064 C 
ATOM     27  C   UNL     1      35.267 -23.946 -10.489  0.00  0.00    +0.196 C 
ATOM     28  H   UNL     1      38.313 -21.608 -11.093  0.00  0.00    +0.144 HD
ATOM     29  H   UNL     1      38.054 -21.494 -12.774  0.00  0.00    +0.144 HD
ATOM     30  H   UNL     1      34.127 -25.028  -9.117  0.00  0.00    +0.156 HD
ATOM     31  H   UNL     1      35.441 -24.191  -8.424  0.00  0.00    +0.156 HD
ENDBRANCH  18  23
ENDBRANCH   1  17
TORSDOF 5
ENDMDL
MODEL 3
REMARK VINA RESULT:     -11.3      5.506      8.697
REMARK  Name = 25093369
REMARK  5 active torsions:
REMARK  status: ('A' for Active; 'I' for Inactive)
REMARK    1  A    between atoms: C_1  and  C_3
REMARK    2  A    between atoms: C_1  and  C_17
REMARK    3  A    between atoms: C_4  and  C_9
REMARK    4  A    between atoms: C_7  and  O_15
REMARK    5  A    between atoms: C_18  and  C_23
REMARK                            x       y       z     vdW  Elec       q    Type
REMARK                         _______ _______ _______ _____ _____    ______ ____
ROOT
ATOM      1  C   UNL     1      35.935 -19.001 -21.822  0.00  0.00    +0.086 C 
ATOM      2  C   UNL     1      37.016 -18.090 -21.209  0.00  0.00    +0.019 C 
ENDROOT
BRANCH   1   3
ATOM      3  C   UNL     1      34.960 -18.248 -22.661  0.00  0.00    -0.007 C 
ATOM      4  C   UNL     1      33.868 -16.173 -23.247  0.00  0.00    +0.003 C 
ATOM      5  C   UNL     1      34.781 -16.878 -22.462  0.00  0.00    -0.003 C 
ATOM      6  C   UNL     1      34.226 -18.912 -23.644  0.00  0.00    +0.034 C 
ATOM      7  C   UNL     1      33.313 -18.207 -24.428  0.00  0.00    +0.138 C 
ATOM      8  C   UNL     1      33.134 -16.838 -24.230  0.00  0.00    +0.037 C 
BRANCH   4   9
ATOM      9  C   UNL     1      33.682 -14.754 -23.042  0.00  0.00    +0.000 C 
ATOM     10  C   UNL     1      33.268 -13.944 -24.099  0.00  0.00    +0.000 C 
ATOM     11  C   UNL     1      33.917 -14.194 -21.786  0.00  0.00    +0.000 C 
ATOM     12  C   UNL     1      33.088 -12.576 -23.903  0.00  0.00    +0.000 C 
ATOM     13  C   UNL     1      33.738 -12.824 -21.588  0.00  0.00    +0.000 C 
ATOM     14  C   UNL     1      33.323 -12.015 -22.646  0.00  0.00    +0.000 C 
ENDBRANCH   4   9
BRANCH   7  15
ATOM     15  O   UNL     1      32.598 -18.856 -25.388  0.00  0.00    -0.471 OA
ATOM     16  C   UNL     1      31.224 -18.499 -25.527  0.00  0.00    +0.252 C 
ENDBRANCH   7  15
ENDBRANCH   1   3
BRANCH   1  17
ATOM     17  C   UNL     1      35.272 -19.781 -20.746  0.00  0.00    -0.087 C 
ATOM     18  C   UNL     1      34.722 -20.421 -19.891  0.00  0.00    -0.076 C 
BRANCH  18  23
ATOM     19  N   UNL     1      34.175 -22.453 -16.834  0.00  0.00    -0.336 NA
ATOM     20  N   UNL     1      32.064 -22.160 -17.957  0.00  0.00    -0.317 NA
ATOM     21  N   UNL     1      31.933 -20.920 -19.967  0.00  0.00    -0.334 N 
ATOM     22  N   UNL     1      32.208 -23.387 -15.962  0.00  0.00    -0.283 N 
ATOM     23  C   UNL     1      34.064 -21.188 -18.878  0.00  0.00    +0.179 C 
ATOM     24  C   UNL     1      34.755 -21.725 -17.811  0.00  0.00    +0.120 C 
ATOM     25  C   UNL     1      32.708 -21.440 -18.900  0.00  0.00    +0.186 C 
ATOM     26  C   UNL     1      36.230 -21.525 -17.669  0.00  0.00    +0.064 C 
ATOM     27  C   UNL     1      32.847 -22.630 -16.968  0.00  0.00    +0.196 C 
ATOM     28  H   UNL     1      30.964 -21.089 -20.000  0.00  0.00    +0.144 HD
ATOM     29  H   UNL     1      32.365 -20.389 -20.675  0.00  0.00    +0.144 HD
ATOM     30  H   UNL     1      32.732 -23.756 -15.215  0.00  0.00    +0.156 HD
ATOM     31  H   UNL     1      31.237 -23.548 -16.010  0.00  0.00    +0.156 HD
ENDBRANCH  18  23
ENDBRANCH   1  17
TORSDOF 5
ENDMDL
MODEL 4
REMARK VINA RESULT:     -10.8      4.173      6.708
REMARK  Name = 25093369
REMARK  5 active torsions:
REMARK  status: ('A' for Active; 'I' for Inactive)
REMARK    1  A    between atoms: C_1  and  C_3
REMARK    2  A    between atoms: C_1  and  C_17
REMARK    3  A    between atoms: C_4  and  C_9
REMARK    4  A    between atoms: C_7  and  O_15
REMARK    5  A    between atoms: C_18  and  C_23
REMARK                            x       y       z     vdW  Elec       q    Type
REMARK                         _______ _______ _______ _____ _____    ______ ____
ROOT
ATOM      1  C   UNL     1      31.713 -22.734 -17.252  0.00  0.00    +0.086 C 
ATOM      2  C   UNL     1      30.407 -21.976 -16.946  0.00  0.00    +0.019 C 
ENDROOT
BRANCH   1   3
ATOM      3  C   UNL     1      32.422 -23.174 -16.017  0.00  0.00    -0.007 C 
ATOM      4  C   UNL     1      34.476 -23.710 -14.861  0.00  0.00    +0.003 C 
ATOM      5  C   UNL     1      33.813 -23.297 -16.016  0.00  0.00    -0.003 C 
ATOM      6  C   UNL     1      31.696 -23.463 -14.862  0.00  0.00    +0.034 C 
ATOM      7  C   UNL     1      32.360 -23.876 -13.706  0.00  0.00    +0.138 C 
ATOM      8  C   UNL     1      33.749 -23.999 -13.706  0.00  0.00    +0.037 C 
BRANCH   4   9
ATOM      9  C   UNL     1      35.916 -23.837 -14.860  0.00  0.00    +0.000 C 
ATOM     10  C   UNL     1      36.707 -22.828 -15.407  0.00  0.00    +0.000 C 
ATOM     11  C   UNL     1      36.515 -24.971 -14.310  0.00  0.00    +0.000 C 
ATOM     12  C   UNL     1      38.096 -22.950 -15.405  0.00  0.00    +0.000 C 
ATOM     13  C   UNL     1      37.905 -25.095 -14.308  0.00  0.00    +0.000 C 
ATOM     14  C   UNL     1      38.695 -24.084 -14.855  0.00  0.00    +0.000 C 
ENDBRANCH   4   9
BRANCH   7  15
ATOM     15  O   UNL     1      31.650 -24.157 -12.578  0.00  0.00    -0.471 OA
ATOM     16  C   UNL     1      30.274 -24.494 -12.744  0.00  0.00    +0.252 C 
ENDBRANCH   7  15
ENDBRANCH   1   3
BRANCH   1  17
ATOM     17  C   UNL     1      32.575 -21.907 -18.135  0.00  0.00    -0.087 C 
ATOM     18  C   UNL     1      33.255 -21.224 -18.852  0.00  0.00    -0.076 C 
BRANCH  18  23
ATOM     19  N   UNL     1      36.222 -19.538 -20.312  0.00  0.00    -0.336 NA
ATOM     20  N   UNL     1      34.268 -18.894 -21.567  0.00  0.00    -0.317 NA
ATOM     21  N   UNL     1      32.135 -19.734 -20.987  0.00  0.00    -0.334 N 
ATOM     22  N   UNL     1      36.391 -18.068 -22.132  0.00  0.00    -0.283 N 
ATOM     23  C   UNL     1      34.060 -20.405 -19.705  0.00  0.00    +0.179 C 
ATOM     24  C   UNL     1      35.425 -20.297 -19.532  0.00  0.00    +0.120 C 
ATOM     25  C   UNL     1      33.531 -19.674 -20.748  0.00  0.00    +0.186 C 
ATOM     26  C   UNL     1      36.122 -21.039 -18.437  0.00  0.00    +0.064 C 
ATOM     27  C   UNL     1      35.587 -18.873 -21.295  0.00  0.00    +0.196 C 
ATOM     28  H   UNL     1      31.739 -19.221 -21.727  0.00  0.00    +0.144 HD
ATOM     29  H   UNL     1      31.562 -20.293 -20.413  0.00  0.00    +0.144 HD
ATOM     30  H   UNL     1      37.361 -18.014 -21.979  0.00  0.00    +0.156 HD
ATOM     31  H   UNL     1      35.979 -17.558 -22.868  0.00  0.00    +0.156 HD
ENDBRANCH  18  23
ENDBRANCH   1  17
TORSDOF 5
ENDMDL
MODEL 5
REMARK VINA RESULT:     -10.5      3.858      6.679
REMARK  Name = 25093369
REMARK  5 active torsions:
REMARK  status: ('A' for Active; 'I' for Inactive)
REMARK    1  A    between atoms: C_1  and  C_3
REMARK    2  A    between atoms: C_1  and  C_17
REMARK    3  A    between atoms: C_4  and  C_9
REMARK    4  A    between atoms: C_7  and  O_15
REMARK    5  A    between atoms: C_18  and  C_23
REMARK                            x       y       z     vdW  Elec       q    Type
REMARK                         _______ _______ _______ _____ _____    ______ ____
ROOT
ATOM      1  C   UNL     1      31.787 -22.820 -17.185  0.00  0.00    +0.086 C 
ATOM      2  C   UNL     1      30.492 -22.040 -16.889  0.00  0.00    +0.019 C 
ENDROOT
BRANCH   1   3
ATOM      3  C   UNL     1      32.466 -23.294 -15.945  0.00  0.00    -0.007 C 
ATOM      4  C   UNL     1      34.492 -23.848 -14.750  0.00  0.00    +0.003 C 
ATOM      5  C   UNL     1      33.857 -23.403 -15.909  0.00  0.00    -0.003 C 
ATOM      6  C   UNL     1      31.711 -23.630 -14.821  0.00  0.00    +0.034 C 
ATOM      7  C   UNL     1      32.346 -24.074 -13.662  0.00  0.00    +0.138 C 
ATOM      8  C   UNL     1      33.737 -24.183 -13.626  0.00  0.00    +0.037 C 
BRANCH   4   9
ATOM      9  C   UNL     1      35.933 -23.960 -14.712  0.00  0.00    +0.000 C 
ATOM     10  C   UNL     1      36.726 -23.000 -15.339  0.00  0.00    +0.000 C 
ATOM     11  C   UNL     1      36.532 -25.030 -14.045  0.00  0.00    +0.000 C 
ATOM     12  C   UNL     1      38.115 -23.108 -15.302  0.00  0.00    +0.000 C 
ATOM     13  C   UNL     1      37.922 -25.139 -14.007  0.00  0.00    +0.000 C 
ATOM     14  C   UNL     1      38.714 -24.177 -14.636  0.00  0.00    +0.000 C 
ENDBRANCH   4   9
BRANCH   7  15
ATOM     15  O   UNL     1      31.609 -24.400 -12.565  0.00  0.00    -0.471 OA
ATOM     16  C   UNL     1      30.193 -24.459 -12.728  0.00  0.00    +0.252 C 
ENDBRANCH   7  15
ENDBRANCH   1   3
BRANCH   1  17
ATOM     17  C   UNL     1      32.680 -21.998 -18.041  0.00  0.00    -0.087 C 
ATOM     18  C   UNL     1      33.395 -21.315 -18.723  0.00  0.00    -0.076 C 
BRANCH  18  23
ATOM     19  N   UNL     1      34.512 -18.950 -21.356  0.00  0.00    -0.336 NA
ATOM     20  N   UNL     1      36.430 -19.644 -20.074  0.00  0.00    -0.317 NA
ATOM     21  N   UNL     1      36.190 -21.162 -18.276  0.00  0.00    -0.334 N 
ATOM     22  N   UNL     1      36.654 -18.138 -21.859  0.00  0.00    -0.283 N 
ATOM     23  C   UNL     1      34.245 -20.495 -19.531  0.00  0.00    +0.179 C 
ATOM     24  C   UNL     1      33.748 -19.736 -20.570  0.00  0.00    +0.120 C 
ATOM     25  C   UNL     1      35.607 -20.410 -19.326  0.00  0.00    +0.186 C 
ATOM     26  C   UNL     1      32.288 -19.740 -20.896  0.00  0.00    +0.064 C 
ATOM     27  C   UNL     1      35.824 -18.951 -21.057  0.00  0.00    +0.196 C 
ATOM     28  H   UNL     1      37.159 -21.114 -18.114  0.00  0.00    +0.144 HD
ATOM     29  H   UNL     1      35.623 -21.733 -17.707  0.00  0.00    +0.144 HD
ATOM     30  H   UNL     1      36.265 -17.610 -22.593  0.00  0.00    +0.156 HD
ATOM     31  H   UNL     1      37.623 -18.101 -21.686  0.00  0.00    +0.156 HD
ENDBRANCH  18  23
ENDBRANCH   1  17
TORSDOF 5
ENDMDL
MODEL 6
REMARK VINA RESULT:     -10.4      3.937      7.014
REMARK  Name = 25093369
REMARK  5 active torsions:
REMARK  status: ('A' for Active; 'I' for Inactive)
REMARK    1  A    between atoms: C_1  and  C_3
REMARK    2  A    between atoms: C_1  and  C_17
REMARK    3  A    between atoms: C_4  and  C_9
REMARK    4  A    between atoms: C_7  and  O_15
REMARK    5  A    between atoms: C_18  and  C_23
REMARK                            x       y       z     vdW  Elec       q    Type
REMARK                         _______ _______ _______ _____ _____    ______ ____
ROOT
ATOM      1  C   UNL     1      32.892 -23.669 -15.345  0.00  0.00    +0.086 C 
ATOM      2  C   UNL     1      31.573 -23.108 -14.780  0.00  0.00    +0.019 C 
ENDROOT
BRANCH   1   3
ATOM      3  C   UNL     1      33.951 -23.801 -14.303  0.00  0.00    -0.007 C 
ATOM      4  C   UNL     1      36.247 -24.249 -13.699  0.00  0.00    +0.003 C 
ATOM      5  C   UNL     1      35.257 -24.125 -14.673  0.00  0.00    -0.003 C 
ATOM      6  C   UNL     1      33.636 -23.601 -12.959  0.00  0.00    +0.034 C 
ATOM      7  C   UNL     1      34.626 -23.725 -11.985  0.00  0.00    +0.138 C 
ATOM      8  C   UNL     1      35.932 -24.049 -12.355  0.00  0.00    +0.037 C 
BRANCH   4   9
ATOM      9  C   UNL     1      37.601 -24.584 -14.081  0.00  0.00    +0.000 C 
ATOM     10  C   UNL     1      38.269 -23.815 -15.034  0.00  0.00    +0.000 C 
ATOM     11  C   UNL     1      38.241 -25.677 -13.496  0.00  0.00    +0.000 C 
ATOM     12  C   UNL     1      39.574 -24.137 -15.402  0.00  0.00    +0.000 C 
ATOM     13  C   UNL     1      39.547 -26.001 -13.864  0.00  0.00    +0.000 C 
ATOM     14  C   UNL     1      40.213 -25.231 -14.817  0.00  0.00    +0.000 C 
ENDBRANCH   4   9
BRANCH   7  15
ATOM     15  O   UNL     1      34.318 -23.528 -10.674  0.00  0.00    -0.471 OA
ATOM     16  C   UNL     1      35.313 -23.878  -9.714  0.00  0.00    +0.252 C 
ENDBRANCH   7  15
ENDBRANCH   1   3
BRANCH   1  17
ATOM     17  C   UNL     1      33.332 -22.843 -16.498  0.00  0.00    -0.087 C 
ATOM     18  C   UNL     1      33.677 -22.158 -17.423  0.00  0.00    -0.076 C 
BRANCH  18  23
ATOM     19  N   UNL     1      35.830 -20.191 -19.718  0.00  0.00    -0.336 NA
ATOM     20  N   UNL     1      33.556 -20.086 -20.509  0.00  0.00    -0.317 NA
ATOM     21  N   UNL     1      31.826 -21.203 -19.346  0.00  0.00    -0.334 N 
ATOM     22  N   UNL     1      35.282 -18.982 -21.652  0.00  0.00    -0.283 N 
ATOM     23  C   UNL     1      34.085 -21.335 -18.520  0.00  0.00    +0.179 C 
ATOM     24  C   UNL     1      35.401 -20.964 -18.699  0.00  0.00    +0.120 C 
ATOM     25  C   UNL     1      33.197 -20.863 -19.465  0.00  0.00    +0.186 C 
ATOM     26  C   UNL     1      36.463 -21.410 -17.745  0.00  0.00    +0.064 C 
ATOM     27  C   UNL     1      34.869 -19.793 -20.573  0.00  0.00    +0.196 C 
ATOM     28  H   UNL     1      31.178 -20.877 -20.010  0.00  0.00    +0.144 HD
ATOM     29  H   UNL     1      31.523 -21.769 -18.598  0.00  0.00    +0.144 HD
ATOM     30  H   UNL     1      36.230 -18.736 -21.749  0.00  0.00    +0.156 HD
ATOM     31  H   UNL     1      34.621 -18.662 -22.309  0.00  0.00    +0.156 HD
ENDBRANCH  18  23
ENDBRANCH   1  17
TORSDOF 5
ENDMDL
MODEL 7
REMARK VINA RESULT:     -10.1     11.000     13.989
REMARK  Name = 25093369
REMARK  5 active torsions:
REMARK  status: ('A' for Active; 'I' for Inactive)
REMARK    1  A    between atoms: C_1  and  C_3
REMARK    2  A    between atoms: C_1  and  C_17
REMARK    3  A    between atoms: C_4  and  C_9
REMARK    4  A    between atoms: C_7  and  O_15
REMARK    5  A    between atoms: C_18  and  C_23
REMARK                            x       y       z     vdW  Elec       q    Type
REMARK                         _______ _______ _______ _____ _____    ______ ____
ROOT
ATOM      1  C   UNL     1      32.263 -12.383 -24.147  0.00  0.00    +0.086 C 
ATOM      2  C   UNL     1      32.989 -11.976 -25.444  0.00  0.00    +0.019 C 
ENDROOT
BRANCH   1   3
ATOM      3  C   UNL     1      32.107 -11.244 -23.197  0.00  0.00    -0.007 C 
ATOM      4  C   UNL     1      32.194  -8.873 -22.741  0.00  0.00    +0.003 C 
ATOM      5  C   UNL     1      32.339  -9.937 -23.630  0.00  0.00    -0.003 C 
ATOM      6  C   UNL     1      31.731 -11.485 -21.876  0.00  0.00    +0.034 C 
ATOM      7  C   UNL     1      31.587 -10.420 -20.987  0.00  0.00    +0.138 C 
ATOM      8  C   UNL     1      31.818  -9.114 -21.420  0.00  0.00    +0.037 C 
BRANCH   4   9
ATOM      9  C   UNL     1      32.433  -7.519 -23.189  0.00  0.00    +0.000 C 
ATOM     10  C   UNL     1      33.659  -6.904 -22.934  0.00  0.00    +0.000 C 
ATOM     11  C   UNL     1      31.436  -6.826 -23.877  0.00  0.00    +0.000 C 
ATOM     12  C   UNL     1      33.890  -5.599 -23.366  0.00  0.00    +0.000 C 
ATOM     13  C   UNL     1      31.666  -5.519 -24.310  0.00  0.00    +0.000 C 
ATOM     14  C   UNL     1      32.893  -4.906 -24.054  0.00  0.00    +0.000 C 
ENDBRANCH   4   9
BRANCH   7  15
ATOM     15  O   UNL     1      31.218 -10.655 -19.698  0.00  0.00    -0.471 OA
ATOM     16  C   UNL     1      31.297  -9.559 -18.789  0.00  0.00    +0.252 C 
ENDBRANCH   7  15
ENDBRANCH   1   3
BRANCH   1  17
ATOM     17  C   UNL     1      32.954 -13.544 -23.531  0.00  0.00    -0.087 C 
ATOM     18  C   UNL     1      33.496 -14.486 -23.020  0.00  0.00    -0.076 C 
BRANCH  18  23
ATOM     19  N   UNL     1      34.883 -16.743 -20.421  0.00  0.00    -0.336 NA
ATOM     20  N   UNL     1      35.239 -17.742 -22.585  0.00  0.00    -0.317 NA
ATOM     21  N   UNL     1      34.510 -16.645 -24.549  0.00  0.00    -0.334 N 
ATOM     22  N   UNL     1      35.956 -18.819 -20.627  0.00  0.00    -0.283 N 
ATOM     23  C   UNL     1      34.134 -15.610 -22.408  0.00  0.00    +0.179 C 
ATOM     24  C   UNL     1      34.289 -15.702 -21.040  0.00  0.00    +0.120 C 
ATOM     25  C   UNL     1      34.633 -16.670 -23.138  0.00  0.00    +0.186 C 
ATOM     26  C   UNL     1      33.792 -14.620 -20.135  0.00  0.00    +0.064 C 
ATOM     27  C   UNL     1      35.329 -17.713 -21.241  0.00  0.00    +0.196 C 
ATOM     28  H   UNL     1      34.858 -17.392 -25.087  0.00  0.00    +0.144 HD
ATOM     29  H   UNL     1      34.073 -15.881 -24.992  0.00  0.00    +0.144 HD
ATOM     30  H   UNL     1      36.050 -18.850 -19.648  0.00  0.00    +0.156 HD
ATOM     31  H   UNL     1      36.302 -19.558 -21.179  0.00  0.00    +0.156 HD
ENDBRANCH  18  23
ENDBRANCH   1  17
TORSDOF 5
ENDMDL
MODEL 8
REMARK VINA RESULT:      -9.9     12.075     15.559
REMARK  Name = 25093369
REMARK  5 active torsions:
REMARK  status: ('A' for Active; 'I' for Inactive)
REMARK    1  A    between atoms: C_1  and  C_3
REMARK    2  A    between atoms: C_1  and  C_17
REMARK    3  A    between atoms: C_4  and  C_9
REMARK    4  A    between atoms: C_7  and  O_15
REMARK    5  A    between atoms: C_18  and  C_23
REMARK                            x       y       z     vdW  Elec       q    Type
REMARK                         _______ _______ _______ _____ _____    ______ ____
ROOT
ATOM      1  C   UNL     1      31.913 -12.107 -22.098  0.00  0.00    +0.086 C 
ATOM      2  C   UNL     1      32.326 -12.285 -20.624  0.00  0.00    +0.019 C 
ENDROOT
BRANCH   1   3
ATOM      3  C   UNL     1      32.522 -13.134 -22.991  0.00  0.00    -0.007 C 
ATOM      4  C   UNL     1      33.646 -15.254 -23.280  0.00  0.00    +0.003 C 
ATOM      5  C   UNL     1      33.076 -14.293 -22.445  0.00  0.00    -0.003 C 
ATOM      6  C   UNL     1      32.539 -12.936 -24.372  0.00  0.00    +0.034 C 
ATOM      7  C   UNL     1      33.109 -13.898 -25.206  0.00  0.00    +0.138 C 
ATOM      8  C   UNL     1      33.662 -15.056 -24.661  0.00  0.00    +0.037 C 
BRANCH   4   9
ATOM      9  C   UNL     1      34.219 -16.455 -22.715  0.00  0.00    +0.000 C 
ATOM     10  C   UNL     1      34.785 -16.428 -21.441  0.00  0.00    +0.000 C 
ATOM     11  C   UNL     1      34.205 -17.644 -23.445  0.00  0.00    +0.000 C 
ATOM     12  C   UNL     1      35.337 -17.586 -20.896  0.00  0.00    +0.000 C 
ATOM     13  C   UNL     1      34.757 -18.804 -22.901  0.00  0.00    +0.000 C 
ATOM     14  C   UNL     1      35.323 -18.775 -21.626  0.00  0.00    +0.000 C 
ENDBRANCH   4   9
BRANCH   7  15
ATOM     15  O   UNL     1      33.124 -13.705 -26.554  0.00  0.00    -0.471 OA
ATOM     16  C   UNL     1      32.390 -12.591 -27.059  0.00  0.00    +0.252 C 
ENDBRANCH   7  15
ENDBRANCH   1   3
BRANCH   1  17
ATOM     17  C   UNL     1      32.220 -10.722 -22.538  0.00  0.00    -0.087 C 
ATOM     18  C   UNL     1      32.448  -9.595 -22.886  0.00  0.00    -0.076 C 
BRANCH  18  23
ATOM     19  N   UNL     1      31.943  -5.999 -23.653  0.00  0.00    -0.336 NA
ATOM     20  N   UNL     1      34.235  -6.577 -24.123  0.00  0.00    -0.317 NA
ATOM     21  N   UNL     1      35.013  -8.784 -23.778  0.00  0.00    -0.334 N 
ATOM     22  N   UNL     1      33.449  -4.392 -24.460  0.00  0.00    -0.283 N 
ATOM     23  C   UNL     1      32.715  -8.250 -23.295  0.00  0.00    +0.179 C 
ATOM     24  C   UNL     1      31.736  -7.278 -23.277  0.00  0.00    +0.120 C 
ATOM     25  C   UNL     1      33.957  -7.839 -23.732  0.00  0.00    +0.186 C 
ATOM     26  C   UNL     1      30.346  -7.594 -22.825  0.00  0.00    +0.064 C 
ATOM     27  C   UNL     1      33.196  -5.722 -24.059  0.00  0.00    +0.196 C 
ATOM     28  H   UNL     1      35.906  -8.509 -24.086  0.00  0.00    +0.144 HD
ATOM     29  H   UNL     1      34.852  -9.715 -23.500  0.00  0.00    +0.144 HD
ATOM     30  H   UNL     1      32.727  -3.724 -24.434  0.00  0.00    +0.156 HD
ATOM     31  H   UNL     1      34.349  -4.133 -24.767  0.00  0.00    +0.156 HD
ENDBRANCH  18  23
ENDBRANCH   1  17
TORSDOF 5
ENDMDL
MODEL 9
REMARK VINA RESULT:      -9.9     12.586     15.914
REMARK  Name = 25093369
REMARK  5 active torsions:
REMARK  status: ('A' for Active; 'I' for Inactive)
REMARK    1  A    between atoms: C_1  and  C_3
REMARK    2  A    between atoms: C_1  and  C_17
REMARK    3  A    between atoms: C_4  and  C_9
REMARK    4  A    between atoms: C_7  and  O_15
REMARK    5  A    between atoms: C_18  and  C_23
REMARK                            x       y       z     vdW  Elec       q    Type
REMARK                         _______ _______ _______ _____ _____    ______ ____
ROOT
ATOM      1  C   UNL     1      31.352 -11.397 -20.892  0.00  0.00    +0.086 C 
ATOM      2  C   UNL     1      31.899 -11.697 -19.483  0.00  0.00    +0.019 C 
ENDROOT
BRANCH   1   3
ATOM      3  C   UNL     1      32.064 -12.161 -21.957  0.00  0.00    -0.007 C 
ATOM      4  C   UNL     1      33.342 -14.091 -22.649  0.00  0.00    +0.003 C 
ATOM      5  C   UNL     1      32.676 -13.378 -21.653  0.00  0.00    -0.003 C 
ATOM      6  C   UNL     1      32.118 -11.658 -23.257  0.00  0.00    +0.034 C 
ATOM      7  C   UNL     1      32.785 -12.372 -24.253  0.00  0.00    +0.138 C 
ATOM      8  C   UNL     1      33.397 -13.589 -23.949  0.00  0.00    +0.037 C 
BRANCH   4   9
ATOM      9  C   UNL     1      33.976 -15.352 -22.334  0.00  0.00    +0.000 C 
ATOM     10  C   UNL     1      34.226 -15.697 -21.006  0.00  0.00    +0.000 C 
ATOM     11  C   UNL     1      34.336 -16.227 -23.360  0.00  0.00    +0.000 C 
ATOM     12  C   UNL     1      34.837 -16.913 -20.703  0.00  0.00    +0.000 C 
ATOM     13  C   UNL     1      34.947 -17.444 -23.058  0.00  0.00    +0.000 C 
ATOM     14  C   UNL     1      35.197 -17.787 -21.729  0.00  0.00    +0.000 C 
ENDBRANCH   4   9
BRANCH   7  15
ATOM     15  O   UNL     1      32.837 -11.882 -25.522  0.00  0.00    -0.471 OA
ATOM     16  C   UNL     1      32.684 -12.819 -26.587  0.00  0.00    +0.252 C 
ENDBRANCH   7  15
ENDBRANCH   1   3
BRANCH   1  17
ATOM     17  C   UNL     1      31.375  -9.932 -21.135  0.00  0.00    -0.087 C 
ATOM     18  C   UNL     1      31.384  -8.744 -21.312  0.00  0.00    -0.076 C 
BRANCH  18  23
ATOM     19  N   UNL     1      30.802  -5.421 -22.859  0.00  0.00    -0.336 NA
ATOM     20  N   UNL     1      31.996  -5.114 -20.788  0.00  0.00    -0.317 NA
ATOM     21  N   UNL     1      32.586  -6.975 -19.453  0.00  0.00    -0.334 N 
ATOM     22  N   UNL     1      31.404  -3.277 -22.122  0.00  0.00    -0.283 N 
ATOM     23  C   UNL     1      31.393  -7.328 -21.515  0.00  0.00    +0.179 C 
ATOM     24  C   UNL     1      30.817  -6.750 -22.627  0.00  0.00    +0.120 C 
ATOM     25  C   UNL     1      31.974  -6.453 -20.620  0.00  0.00    +0.186 C 
ATOM     26  C   UNL     1      30.155  -7.588 -23.674  0.00  0.00    +0.064 C 
ATOM     27  C   UNL     1      31.401  -4.673 -21.913  0.00  0.00    +0.196 C 
ATOM     28  H   UNL     1      33.005  -6.367 -18.803  0.00  0.00    +0.144 HD
ATOM     29  H   UNL     1      32.591  -7.947 -19.292  0.00  0.00    +0.144 HD
ATOM     30  H   UNL     1      30.984  -2.899 -22.928  0.00  0.00    +0.156 HD
ATOM     31  H   UNL     1      31.828  -2.681 -21.462  0.00  0.00    +0.156 HD
ENDBRANCH  18  23
ENDBRANCH   1  17
TORSDOF 5
ENDMDL
