MODEL 1
REMARK VINA RESULT:     -11.6      0.000      0.000
REMARK  Name = 44633765
REMARK  7 active torsions:
REMARK  status: ('A' for Active; 'I' for Inactive)
REMARK    1  A    between atoms: C_2  and  C_22
REMARK    2  A    between atoms: C_3  and  C_15
REMARK    3  A    between atoms: C_4  and  C_9
REMARK    4  A    between atoms: N_21  and  C_24
REMARK    5  A    between atoms: C_24  and  C_26
REMARK    6  A    between atoms: C_29  and  O_31
REMARK    7  A    between atoms: C_30  and  O_33
REMARK                            x       y       z     vdW  Elec       q    Type
REMARK                         _______ _______ _______ _____ _____    ______ ____
ROOT
ATOM      1  N   UNL     1      31.690 -23.693 -13.375  0.00  0.00    -0.242 NA
ATOM      2  C   UNL     1      32.486 -23.000 -15.550  0.00  0.00    +0.072 C 
ATOM      3  C   UNL     1      31.476 -23.291 -14.648  0.00  0.00    +0.103 C 
ATOM      4  C   UNL     1      34.062 -23.541 -13.816  0.00  0.00    +0.021 C 
ATOM      5  C   UNL     1      33.801 -23.130 -15.118  0.00  0.00    +0.008 C 
ATOM      6  C   UNL     1      32.980 -23.808 -12.992  0.00  0.00    +0.099 C 
ENDROOT
BRANCH   4   9
ATOM      7 CL   UNL     1      38.970 -24.956 -14.647  0.00  0.00    -0.081 Cl
ATOM      8  N   UNL     1      37.009 -23.424 -11.537  0.00  0.00    -0.241 NA
ATOM      9  C   UNL     1      35.416 -23.685 -13.337  0.00  0.00    +0.022 C 
ATOM     10  C   UNL     1      36.416 -24.198 -14.156  0.00  0.00    +0.015 C 
ATOM     11  C   UNL     1      35.761 -23.315 -12.047  0.00  0.00    +0.099 C 
ATOM     12  C   UNL     1      37.711 -24.325 -13.667  0.00  0.00    +0.077 C 
ATOM     13  C   UNL     1      37.953 -23.928 -12.362  0.00  0.00    +0.110 C 
ENDBRANCH   4   9
BRANCH   3  15
ATOM     14  N   UNL     1      29.556 -24.277 -15.606  0.00  0.00    -0.242 NA
ATOM     15  C   UNL     1      30.077 -23.185 -15.003  0.00  0.00    +0.099 C 
ATOM     16  C   UNL     1      29.357 -22.034 -14.728  0.00  0.00    +0.021 C 
ATOM     17  C   UNL     1      28.016 -22.000 -15.097  0.00  0.00    +0.003 C 
ATOM     18  C   UNL     1      28.251 -24.208 -15.950  0.00  0.00    +0.099 C 
ATOM     19  C   UNL     1      27.445 -23.104 -15.720  0.00  0.00    +0.021 C 
ENDBRANCH   3  15
BRANCH   2  22
ATOM     20  O   UNL     1      31.165 -21.978 -17.197  0.00  0.00    -0.270 OA
ATOM     21  N   UNL     1      33.213 -22.835 -17.867  0.00  0.00    -0.295 N 
ATOM     22  C   UNL     1      32.221 -22.570 -16.917  0.00  0.00    +0.248 C 
ATOM     23  H   UNL     1      34.025 -23.309 -17.574  0.00  0.00    +0.150 HD
BRANCH  21  24
ATOM     24  C   UNL     1      33.109 -22.451 -19.257  0.00  0.00    +0.145 C 
BRANCH  24  26
ATOM     25  N   UNL     1      33.555 -20.382 -20.450  0.00  0.00    -0.372 NA
ATOM     26  C   UNL     1      34.032 -21.316 -19.595  0.00  0.00    +0.114 C 
ATOM     27  C   UNL     1      35.298 -21.279 -19.034  0.00  0.00    +0.086 C 
ATOM     28  C   UNL     1      36.128 -20.215 -19.370  0.00  0.00    +0.024 C 
ATOM     29  C   UNL     1      35.674 -19.235 -20.245  0.00  0.00    +0.200 C 
ATOM     30  C   UNL     1      34.390 -19.363 -20.752  0.00  0.00    +0.312 C 
BRANCH  29  31
ATOM     31  O   UNL     1      36.473 -18.191 -20.582  0.00  0.00    -0.466 OA
ATOM     32  C   UNL     1      37.141 -18.261 -21.842  0.00  0.00    +0.253 C 
ENDBRANCH  29  31
BRANCH  30  33
ATOM     33  O   UNL     1      33.908 -18.414 -21.615  0.00  0.00    -0.446 OA
ATOM     34  C   UNL     1      33.818 -18.782 -22.985  0.00  0.00    +0.255 C 
ENDBRANCH  30  33
ENDBRANCH  24  26
ENDBRANCH  21  24
ENDBRANCH   2  22
TORSDOF 7
ENDMDL
MODEL 2
REMARK VINA RESULT:     -11.6      3.011      8.064
REMARK  Name = 44633765
REMARK  7 active torsions:
REMARK  status: ('A' for Active; 'I' for Inactive)
REMARK    1  A    between atoms: C_2  and  C_22
REMARK    2  A    between atoms: C_3  and  C_15
REMARK    3  A    between atoms: C_4  and  C_9
REMARK    4  A    between atoms: N_21  and  C_24
REMARK    5  A    between atoms: C_24  and  C_26
REMARK    6  A    between atoms: C_29  and  O_31
REMARK    7  A    between atoms: C_30  and  O_33
REMARK                            x       y       z     vdW  Elec       q    Type
REMARK                         _______ _______ _______ _____ _____    ______ ____
ROOT
ATOM      1  N   UNL     1      37.423 -21.614 -16.094  0.00  0.00    -0.242 NA
ATOM      2  C   UNL     1      35.286 -22.727 -15.898  0.00  0.00    +0.072 C 
ATOM      3  C   UNL     1      36.569 -22.445 -15.456  0.00  0.00    +0.103 C 
ATOM      4  C   UNL     1      35.703 -21.257 -17.755  0.00  0.00    +0.021 C 
ATOM      5  C   UNL     1      34.853 -22.118 -17.070  0.00  0.00    +0.008 C 
ATOM      6  C   UNL     1      36.967 -21.041 -17.230  0.00  0.00    +0.099 C 
ENDROOT
BRANCH   4   9
ATOM      7 CL   UNL     1      36.776 -18.209 -21.797  0.00  0.00    -0.081 Cl
ATOM      8  N   UNL     1      33.536 -20.189 -20.593  0.00  0.00    -0.241 NA
ATOM      9  C   UNL     1      35.283 -20.610 -18.975  0.00  0.00    +0.022 C 
ATOM     10  C   UNL     1      36.158 -19.812 -19.703  0.00  0.00    +0.015 C 
ATOM     11  C   UNL     1      33.994 -20.766 -19.459  0.00  0.00    +0.099 C 
ATOM     12  C   UNL     1      35.725 -19.202 -20.874  0.00  0.00    +0.077 C 
ATOM     13  C   UNL     1      34.416 -19.420 -21.272  0.00  0.00    +0.110 C 
ENDBRANCH   4   9
BRANCH   3  15
ATOM     14  N   UNL     1      36.780 -22.383 -13.106  0.00  0.00    -0.242 NA
ATOM     15  C   UNL     1      37.110 -23.027 -14.247  0.00  0.00    +0.099 C 
ATOM     16  C   UNL     1      37.903 -24.162 -14.296  0.00  0.00    +0.021 C 
ATOM     17  C   UNL     1      38.390 -24.668 -13.096  0.00  0.00    +0.003 C 
ATOM     18  C   UNL     1      37.271 -22.904 -11.959  0.00  0.00    +0.099 C 
ATOM     19  C   UNL     1      38.073 -24.032 -11.901  0.00  0.00    +0.021 C 
ENDBRANCH   3  15
BRANCH   2  22
ATOM     20  O   UNL     1      34.318 -24.827 -15.506  0.00  0.00    -0.270 OA
ATOM     21  N   UNL     1      33.649 -23.082 -14.132  0.00  0.00    -0.295 N 
ATOM     22  C   UNL     1      34.390 -23.628 -15.186  0.00  0.00    +0.248 C 
ATOM     23  H   UNL     1      33.756 -22.124 -13.935  0.00  0.00    +0.150 HD
BRANCH  21  24
ATOM     24  C   UNL     1      32.736 -23.851 -13.317  0.00  0.00    +0.145 C 
BRANCH  24  26
ATOM     25  N   UNL     1      31.145 -23.122 -15.001  0.00  0.00    -0.372 NA
ATOM     26  C   UNL     1      31.337 -23.820 -13.859  0.00  0.00    +0.114 C 
ATOM     27  C   UNL     1      30.331 -24.488 -13.181  0.00  0.00    +0.086 C 
ATOM     28  C   UNL     1      29.045 -24.439 -13.709  0.00  0.00    +0.024 C 
ATOM     29  C   UNL     1      28.808 -23.731 -14.882  0.00  0.00    +0.200 C 
ATOM     30  C   UNL     1      29.883 -23.096 -15.485  0.00  0.00    +0.312 C 
BRANCH  29  31
ATOM     31  O   UNL     1      27.559 -23.673 -15.409  0.00  0.00    -0.466 OA
ATOM     32  C   UNL     1      26.979 -22.378 -15.574  0.00  0.00    +0.253 C 
ENDBRANCH  29  31
BRANCH  30  33
ATOM     33  O   UNL     1      29.687 -22.392 -16.644  0.00  0.00    -0.446 OA
ATOM     34  C   UNL     1      30.853 -21.943 -17.324  0.00  0.00    +0.255 C 
ENDBRANCH  30  33
ENDBRANCH  24  26
ENDBRANCH  21  24
ENDBRANCH   2  22
TORSDOF 7
ENDMDL
MODEL 3
REMARK VINA RESULT:     -11.4      1.274      2.051
REMARK  Name = 44633765
REMARK  7 active torsions:
REMARK  status: ('A' for Active; 'I' for Inactive)
REMARK    1  A    between atoms: C_2  and  C_22
REMARK    2  A    between atoms: C_3  and  C_15
REMARK    3  A    between atoms: C_4  and  C_9
REMARK    4  A    between atoms: N_21  and  C_24
REMARK    5  A    between atoms: C_24  and  C_26
REMARK    6  A    between atoms: C_29  and  O_31
REMARK    7  A    between atoms: C_30  and  O_33
REMARK                            x       y       z     vdW  Elec       q    Type
REMARK                         _______ _______ _______ _____ _____    ______ ____
ROOT
ATOM      1  N   UNL     1      31.788 -23.772 -13.214  0.00  0.00    -0.242 NA
ATOM      2  C   UNL     1      32.760 -23.401 -15.396  0.00  0.00    +0.072 C 
ATOM      3  C   UNL     1      31.679 -23.536 -14.541  0.00  0.00    +0.103 C 
ATOM      4  C   UNL     1      34.189 -23.760 -13.496  0.00  0.00    +0.021 C 
ATOM      5  C   UNL     1      34.035 -23.517 -14.856  0.00  0.00    +0.008 C 
ATOM      6  C   UNL     1      33.044 -23.878 -12.725  0.00  0.00    +0.099 C 
ENDROOT
BRANCH   4   9
ATOM      7 CL   UNL     1      39.276 -24.552 -14.028  0.00  0.00    -0.081 Cl
ATOM      8  N   UNL     1      36.881 -23.868 -10.920  0.00  0.00    -0.241 NA
ATOM      9  C   UNL     1      35.501 -23.885 -12.905  0.00  0.00    +0.022 C 
ATOM     10  C   UNL     1      36.621 -24.132 -13.690  0.00  0.00    +0.015 C 
ATOM     11  C   UNL     1      35.682 -23.762 -11.537  0.00  0.00    +0.099 C 
ATOM     12  C   UNL     1      37.871 -24.247 -13.092  0.00  0.00    +0.077 C 
ATOM     13  C   UNL     1      37.946 -24.109 -11.716  0.00  0.00    +0.110 C 
ENDBRANCH   4   9
BRANCH   3  15
ATOM     14  N   UNL     1      29.821 -22.173 -15.054  0.00  0.00    -0.242 NA
ATOM     15  C   UNL     1      30.313 -23.431 -15.007  0.00  0.00    +0.099 C 
ATOM     16  C   UNL     1      29.594 -24.558 -15.370  0.00  0.00    +0.021 C 
ATOM     17  C   UNL     1      28.286 -24.384 -15.808  0.00  0.00    +0.003 C 
ATOM     18  C   UNL     1      28.547 -22.042 -15.485  0.00  0.00    +0.099 C 
ATOM     19  C   UNL     1      27.745 -23.105 -15.869  0.00  0.00    +0.021 C 
ENDBRANCH   3  15
BRANCH   2  22
ATOM     20  O   UNL     1      32.988 -23.987 -17.656  0.00  0.00    -0.270 OA
ATOM     21  N   UNL     1      32.001 -21.941 -17.190  0.00  0.00    -0.295 N 
ATOM     22  C   UNL     1      32.607 -23.147 -16.823  0.00  0.00    +0.248 C 
ATOM     23  H   UNL     1      31.724 -21.323 -16.475  0.00  0.00    +0.150 HD
BRANCH  21  24
ATOM     24  C   UNL     1      31.758 -21.556 -18.561  0.00  0.00    +0.145 C 
BRANCH  24  26
ATOM     25  N   UNL     1      34.165 -21.249 -18.660  0.00  0.00    -0.372 NA
ATOM     26  C   UNL     1      32.965 -20.921 -19.188  0.00  0.00    +0.114 C 
ATOM     27  C   UNL     1      32.798 -20.049 -20.252  0.00  0.00    +0.086 C 
ATOM     28  C   UNL     1      33.936 -19.477 -20.809  0.00  0.00    +0.024 C 
ATOM     29  C   UNL     1      35.189 -19.789 -20.293  0.00  0.00    +0.200 C 
ATOM     30  C   UNL     1      35.249 -20.674 -19.228  0.00  0.00    +0.312 C 
BRANCH  29  31
ATOM     31  O   UNL     1      36.308 -19.239 -20.826  0.00  0.00    -0.466 OA
ATOM     32  C   UNL     1      36.130 -18.258 -21.850  0.00  0.00    +0.253 C 
ENDBRANCH  29  31
BRANCH  30  33
ATOM     33  O   UNL     1      36.467 -21.008 -18.695  0.00  0.00    -0.446 OA
ATOM     34  C   UNL     1      36.475 -21.446 -17.343  0.00  0.00    +0.255 C 
ENDBRANCH  30  33
ENDBRANCH  24  26
ENDBRANCH  21  24
ENDBRANCH   2  22
TORSDOF 7
ENDMDL
MODEL 4
REMARK VINA RESULT:     -10.2     12.515     16.820
REMARK  Name = 44633765
REMARK  7 active torsions:
REMARK  status: ('A' for Active; 'I' for Inactive)
REMARK    1  A    between atoms: C_2  and  C_22
REMARK    2  A    between atoms: C_3  and  C_15
REMARK    3  A    between atoms: C_4  and  C_9
REMARK    4  A    between atoms: N_21  and  C_24
REMARK    5  A    between atoms: C_24  and  C_26
REMARK    6  A    between atoms: C_29  and  O_31
REMARK    7  A    between atoms: C_30  and  O_33
REMARK                            x       y       z     vdW  Elec       q    Type
REMARK                         _______ _______ _______ _____ _____    ______ ____
ROOT
ATOM      1  N   UNL     1      31.272  -9.978 -22.019  0.00  0.00    -0.242 NA
ATOM      2  C   UNL     1      33.188  -9.074 -23.184  0.00  0.00    +0.072 C 
ATOM      3  C   UNL     1      32.069  -8.946 -22.377  0.00  0.00    +0.103 C 
ATOM      4  C   UNL     1      32.713 -11.428 -23.309  0.00  0.00    +0.021 C 
ATOM      5  C   UNL     1      33.509 -10.342 -23.655  0.00  0.00    +0.008 C 
ATOM      6  C   UNL     1      31.615 -11.195 -22.496  0.00  0.00    +0.099 C 
ENDROOT
BRANCH   4   9
ATOM      7 CL   UNL     1      34.646 -16.149 -22.436  0.00  0.00    -0.081 Cl
ATOM      8  N   UNL     1      32.983 -14.367 -25.586  0.00  0.00    -0.241 NA
ATOM      9  C   UNL     1      33.020 -12.758 -23.782  0.00  0.00    +0.022 C 
ATOM     10  C   UNL     1      33.621 -13.695 -22.949  0.00  0.00    +0.015 C 
ATOM     11  C   UNL     1      32.723 -13.140 -25.080  0.00  0.00    +0.099 C 
ATOM     12  C   UNL     1      33.904 -14.967 -23.433  0.00  0.00    +0.077 C 
ATOM     13  C   UNL     1      33.568 -15.250 -24.747  0.00  0.00    +0.110 C 
ENDBRANCH   4   9
BRANCH   3  15
ATOM     14  N   UNL     1      30.753  -6.998 -22.588  0.00  0.00    -0.242 NA
ATOM     15  C   UNL     1      31.654  -7.670 -21.838  0.00  0.00    +0.099 C 
ATOM     16  C   UNL     1      32.165  -7.202 -20.637  0.00  0.00    +0.021 C 
ATOM     17  C   UNL     1      31.723  -5.967 -20.178  0.00  0.00    +0.003 C 
ATOM     18  C   UNL     1      30.346  -5.801 -22.110  0.00  0.00    +0.099 C 
ATOM     19  C   UNL     1      30.796  -5.246 -20.923  0.00  0.00    +0.021 C 
ENDBRANCH   3  15
BRANCH   2  22
ATOM     20  O   UNL     1      35.260  -8.070 -23.631  0.00  0.00    -0.270 OA
ATOM     21  N   UNL     1      33.375  -6.734 -23.827  0.00  0.00    -0.295 N 
ATOM     22  C   UNL     1      34.026  -7.941 -23.552  0.00  0.00    +0.248 C 
ATOM     23  H   UNL     1      32.394  -6.704 -23.744  0.00  0.00    +0.150 HD
BRANCH  21  24
ATOM     24  C   UNL     1      34.065  -5.529 -24.228  0.00  0.00    +0.145 C 
BRANCH  24  26
ATOM     25  N   UNL     1      32.518  -3.656 -24.265  0.00  0.00    -0.372 NA
ATOM     26  C   UNL     1      33.169  -4.595 -24.988  0.00  0.00    +0.114 C 
ATOM     27  C   UNL     1      33.050  -4.736 -26.361  0.00  0.00    +0.086 C 
ATOM     28  C   UNL     1      32.210  -3.856 -27.036  0.00  0.00    +0.024 C 
ATOM     29  C   UNL     1      31.524  -2.876 -26.326  0.00  0.00    +0.200 C 
ATOM     30  C   UNL     1      31.712  -2.818 -24.954  0.00  0.00    +0.312 C 
BRANCH  29  31
ATOM     31  O   UNL     1      30.702  -2.010 -26.971  0.00  0.00    -0.466 OA
ATOM     32  C   UNL     1      30.949  -1.786 -28.359  0.00  0.00    +0.253 C 
ENDBRANCH  29  31
BRANCH  30  33
ATOM     33  O   UNL     1      31.055  -1.864 -24.223  0.00  0.00    -0.446 OA
ATOM     34  C   UNL     1      30.876  -2.129 -22.838  0.00  0.00    +0.255 C 
ENDBRANCH  30  33
ENDBRANCH  24  26
ENDBRANCH  21  24
ENDBRANCH   2  22
TORSDOF 7
ENDMDL
MODEL 5
REMARK VINA RESULT:     -10.2      3.555      8.970
REMARK  Name = 44633765
REMARK  7 active torsions:
REMARK  status: ('A' for Active; 'I' for Inactive)
REMARK    1  A    between atoms: C_2  and  C_22
REMARK    2  A    between atoms: C_3  and  C_15
REMARK    3  A    between atoms: C_4  and  C_9
REMARK    4  A    between atoms: N_21  and  C_24
REMARK    5  A    between atoms: C_24  and  C_26
REMARK    6  A    between atoms: C_29  and  O_31
REMARK    7  A    between atoms: C_30  and  O_33
REMARK                            x       y       z     vdW  Elec       q    Type
REMARK                         _______ _______ _______ _____ _____    ______ ____
ROOT
ATOM      1  N   UNL     1      36.221 -19.886 -19.274  0.00  0.00    -0.242 NA
ATOM      2  C   UNL     1      34.042 -20.931 -19.368  0.00  0.00    +0.072 C 
ATOM      3  C   UNL     1      35.293 -20.748 -18.800  0.00  0.00    +0.103 C 
ATOM      4  C   UNL     1      34.652 -19.285 -21.013  0.00  0.00    +0.021 C 
ATOM      5  C   UNL     1      33.724 -20.181 -20.494  0.00  0.00    +0.008 C 
ATOM      6  C   UNL     1      35.875 -19.176 -20.371  0.00  0.00    +0.099 C 
ENDROOT
BRANCH   4   9
ATOM      7 CL   UNL     1      34.472 -14.680 -23.368  0.00  0.00    -0.081 Cl
ATOM      8  N   UNL     1      33.559 -18.400 -24.464  0.00  0.00    -0.241 NA
ATOM      9  C   UNL     1      34.351 -18.493 -22.182  0.00  0.00    +0.022 C 
ATOM     10  C   UNL     1      34.545 -17.117 -22.185  0.00  0.00    +0.015 C 
ATOM     11  C   UNL     1      33.861 -19.082 -23.336  0.00  0.00    +0.099 C 
ATOM     12  C   UNL     1      34.247 -16.381 -23.326  0.00  0.00    +0.077 C 
ATOM     13  C   UNL     1      33.760 -17.064 -24.429  0.00  0.00    +0.110 C 
ENDBRANCH   4   9
BRANCH   3  15
ATOM     14  N   UNL     1      34.917 -22.511 -17.276  0.00  0.00    -0.242 NA
ATOM     15  C   UNL     1      35.717 -21.479 -17.626  0.00  0.00    +0.099 C 
ATOM     16  C   UNL     1      36.864 -21.119 -16.937  0.00  0.00    +0.021 C 
ATOM     17  C   UNL     1      37.212 -21.865 -15.817  0.00  0.00    +0.003 C 
ATOM     18  C   UNL     1      35.287 -23.213 -16.182  0.00  0.00    +0.099 C 
ATOM     19  C   UNL     1      36.413 -22.934 -15.425  0.00  0.00    +0.021 C 
ENDBRANCH   3  15
BRANCH   2  22
ATOM     20  O   UNL     1      33.154 -23.082 -19.081  0.00  0.00    -0.270 OA
ATOM     21  N   UNL     1      32.056 -21.336 -18.021  0.00  0.00    -0.295 N 
ATOM     22  C   UNL     1      33.064 -21.868 -18.832  0.00  0.00    +0.248 C 
ATOM     23  H   UNL     1      32.046 -20.363 -17.867  0.00  0.00    +0.150 HD
BRANCH  21  24
ATOM     24  C   UNL     1      31.028 -22.138 -17.397  0.00  0.00    +0.145 C 
BRANCH  24  26
ATOM     25  N   UNL     1      30.757 -23.717 -15.571  0.00  0.00    -0.372 NA
ATOM     26  C   UNL     1      31.468 -22.679 -16.068  0.00  0.00    +0.114 C 
ATOM     27  C   UNL     1      32.552 -22.104 -15.426  0.00  0.00    +0.086 C 
ATOM     28  C   UNL     1      32.933 -22.628 -14.195  0.00  0.00    +0.024 C 
ATOM     29  C   UNL     1      32.227 -23.695 -13.651  0.00  0.00    +0.200 C 
ATOM     30  C   UNL     1      31.156 -24.199 -14.373  0.00  0.00    +0.312 C 
BRANCH  29  31
ATOM     31  O   UNL     1      32.586 -24.216 -12.451  0.00  0.00    -0.466 OA
ATOM     32  C   UNL     1      33.944 -24.041 -12.043  0.00  0.00    +0.253 C 
ENDBRANCH  29  31
BRANCH  30  33
ATOM     33  O   UNL     1      30.440 -25.253 -13.869  0.00  0.00    -0.446 OA
ATOM     34  C   UNL     1      29.060 -25.309 -14.210  0.00  0.00    +0.255 C 
ENDBRANCH  30  33
ENDBRANCH  24  26
ENDBRANCH  21  24
ENDBRANCH   2  22
TORSDOF 7
ENDMDL
MODEL 6
REMARK VINA RESULT:     -10.1     12.104     16.504
REMARK  Name = 44633765
REMARK  7 active torsions:
REMARK  status: ('A' for Active; 'I' for Inactive)
REMARK    1  A    between atoms: C_2  and  C_22
REMARK    2  A    between atoms: C_3  and  C_15
REMARK    3  A    between atoms: C_4  and  C_9
REMARK    4  A    between atoms: N_21  and  C_24
REMARK    5  A    between atoms: C_24  and  C_26
REMARK    6  A    between atoms: C_29  and  O_31
REMARK    7  A    between atoms: C_30  and  O_33
REMARK                            x       y       z     vdW  Elec       q    Type
REMARK                         _______ _______ _______ _____ _____    ______ ____
ROOT
ATOM      1  N   UNL     1      31.269  -9.996 -22.044  0.00  0.00    -0.242 NA
ATOM      2  C   UNL     1      33.212  -9.101 -23.171  0.00  0.00    +0.072 C 
ATOM      3  C   UNL     1      32.075  -8.967 -22.391  0.00  0.00    +0.103 C 
ATOM      4  C   UNL     1      32.739 -11.456 -23.289  0.00  0.00    +0.021 C 
ATOM      5  C   UNL     1      33.543 -10.372 -23.624  0.00  0.00    +0.008 C 
ATOM      6  C   UNL     1      31.623 -11.216 -22.503  0.00  0.00    +0.099 C 
ENDROOT
BRANCH   4   9
ATOM      7 CL   UNL     1      34.627 -16.178 -22.327  0.00  0.00    -0.081 Cl
ATOM      8  N   UNL     1      33.073 -14.408 -25.540  0.00  0.00    -0.241 NA
ATOM      9  C   UNL     1      33.057 -12.789 -23.744  0.00  0.00    +0.022 C 
ATOM     10  C   UNL     1      33.627 -13.723 -22.887  0.00  0.00    +0.015 C 
ATOM     11  C   UNL     1      32.801 -13.178 -25.049  0.00  0.00    +0.099 C 
ATOM     12  C   UNL     1      33.921 -14.999 -23.355  0.00  0.00    +0.077 C 
ATOM     13  C   UNL     1      33.628 -15.289 -24.677  0.00  0.00    +0.110 C 
ENDBRANCH   4   9
BRANCH   3  15
ATOM     14  N   UNL     1      30.757  -7.025 -22.643  0.00  0.00    -0.242 NA
ATOM     15  C   UNL     1      31.648  -7.686 -21.871  0.00  0.00    +0.099 C 
ATOM     16  C   UNL     1      32.138  -7.206 -20.667  0.00  0.00    +0.021 C 
ATOM     17  C   UNL     1      31.685  -5.967 -20.227  0.00  0.00    +0.003 C 
ATOM     18  C   UNL     1      30.340  -5.824 -22.184  0.00  0.00    +0.099 C 
ATOM     19  C   UNL     1      30.769  -5.256 -20.995  0.00  0.00    +0.021 C 
ENDBRANCH   3  15
BRANCH   2  22
ATOM     20  O   UNL     1      35.289  -8.115 -23.634  0.00  0.00    -0.270 OA
ATOM     21  N   UNL     1      33.419  -6.749 -23.762  0.00  0.00    -0.295 N 
ATOM     22  C   UNL     1      34.059  -7.971 -23.528  0.00  0.00    +0.248 C 
ATOM     23  H   UNL     1      32.441  -6.708 -23.659  0.00  0.00    +0.150 HD
BRANCH  21  24
ATOM     24  C   UNL     1      34.118  -5.544 -24.147  0.00  0.00    +0.145 C 
BRANCH  24  26
ATOM     25  N   UNL     1      34.947  -4.490 -26.173  0.00  0.00    -0.372 NA
ATOM     26  C   UNL     1      33.987  -5.264 -25.616  0.00  0.00    +0.114 C 
ATOM     27  C   UNL     1      32.916  -5.795 -26.316  0.00  0.00    +0.086 C 
ATOM     28  C   UNL     1      32.824  -5.516 -27.675  0.00  0.00    +0.024 C 
ATOM     29  C   UNL     1      33.791  -4.724 -28.284  0.00  0.00    +0.200 C 
ATOM     30  C   UNL     1      34.824  -4.240 -27.496  0.00  0.00    +0.312 C 
BRANCH  29  31
ATOM     31  O   UNL     1      33.714  -4.443 -29.609  0.00  0.00    -0.466 OA
ATOM     32  C   UNL     1      32.861  -3.365 -30.000  0.00  0.00    +0.253 C 
ENDBRANCH  29  31
BRANCH  30  33
ATOM     33  O   UNL     1      35.796  -3.459 -28.062  0.00  0.00    -0.446 OA
ATOM     34  C   UNL     1      37.122  -3.975 -28.045  0.00  0.00    +0.255 C 
ENDBRANCH  30  33
ENDBRANCH  24  26
ENDBRANCH  21  24
ENDBRANCH   2  22
TORSDOF 7
ENDMDL
MODEL 7
REMARK VINA RESULT:     -10.0     12.541     16.816
REMARK  Name = 44633765
REMARK  7 active torsions:
REMARK  status: ('A' for Active; 'I' for Inactive)
REMARK    1  A    between atoms: C_2  and  C_22
REMARK    2  A    between atoms: C_3  and  C_15
REMARK    3  A    between atoms: C_4  and  C_9
REMARK    4  A    between atoms: N_21  and  C_24
REMARK    5  A    between atoms: C_24  and  C_26
REMARK    6  A    between atoms: C_29  and  O_31
REMARK    7  A    between atoms: C_30  and  O_33
REMARK                            x       y       z     vdW  Elec       q    Type
REMARK                         _______ _______ _______ _____ _____    ______ ____
ROOT
ATOM      1  N   UNL     1      31.125  -9.639 -21.904  0.00  0.00    -0.242 NA
ATOM      2  C   UNL     1      33.065  -8.748 -23.040  0.00  0.00    +0.072 C 
ATOM      3  C   UNL     1      31.928  -8.611 -22.259  0.00  0.00    +0.103 C 
ATOM      4  C   UNL     1      32.598 -11.105 -23.140  0.00  0.00    +0.021 C 
ATOM      5  C   UNL     1      33.399 -10.022 -23.484  0.00  0.00    +0.008 C 
ATOM      6  C   UNL     1      31.482 -10.862 -22.355  0.00  0.00    +0.099 C 
ENDROOT
BRANCH   4   9
ATOM      7 CL   UNL     1      34.585 -15.785 -22.175  0.00  0.00    -0.081 Cl
ATOM      8  N   UNL     1      32.894 -14.086 -25.357  0.00  0.00    -0.241 NA
ATOM      9  C   UNL     1      32.918 -12.440 -23.586  0.00  0.00    +0.022 C 
ATOM     10  C   UNL     1      33.532 -13.353 -22.736  0.00  0.00    +0.015 C 
ATOM     11  C   UNL     1      32.622 -12.853 -24.875  0.00  0.00    +0.099 C 
ATOM     12  C   UNL     1      33.828 -14.632 -23.194  0.00  0.00    +0.077 C 
ATOM     13  C   UNL     1      33.492 -14.946 -24.501  0.00  0.00    +0.110 C 
ENDBRANCH   4   9
BRANCH   3  15
ATOM     14  N   UNL     1      30.593  -6.681 -22.516  0.00  0.00    -0.242 NA
ATOM     15  C   UNL     1      31.498  -7.328 -21.748  0.00  0.00    +0.099 C 
ATOM     16  C   UNL     1      32.000  -6.830 -20.556  0.00  0.00    +0.021 C 
ATOM     17  C   UNL     1      31.544  -5.590 -20.124  0.00  0.00    +0.003 C 
ATOM     18  C   UNL     1      30.172  -5.478 -22.065  0.00  0.00    +0.099 C 
ATOM     19  C   UNL     1      30.612  -4.894 -20.888  0.00  0.00    +0.021 C 
ENDBRANCH   3  15
BRANCH   2  22
ATOM     20  O   UNL     1      35.130  -7.773 -23.572  0.00  0.00    -0.270 OA
ATOM     21  N   UNL     1      33.274  -6.383 -23.577  0.00  0.00    -0.295 N 
ATOM     22  C   UNL     1      33.909  -7.618 -23.405  0.00  0.00    +0.248 C 
ATOM     23  H   UNL     1      32.302  -6.334 -23.428  0.00  0.00    +0.150 HD
BRANCH  21  24
ATOM     24  C   UNL     1      33.970  -5.176 -23.962  0.00  0.00    +0.145 C 
BRANCH  24  26
ATOM     25  N   UNL     1      33.159  -3.597 -25.621  0.00  0.00    -0.372 NA
ATOM     26  C   UNL     1      33.711  -4.811 -25.395  0.00  0.00    +0.114 C 
ATOM     27  C   UNL     1      34.038  -5.712 -26.395  0.00  0.00    +0.086 C 
ATOM     28  C   UNL     1      33.784  -5.344 -27.712  0.00  0.00    +0.024 C 
ATOM     29  C   UNL     1      33.217  -4.104 -27.984  0.00  0.00    +0.200 C 
ATOM     30  C   UNL     1      32.926  -3.274 -26.912  0.00  0.00    +0.312 C 
BRANCH  29  31
ATOM     31  O   UNL     1      32.963  -3.731 -29.264  0.00  0.00    -0.466 OA
ATOM     32  C   UNL     1      34.040  -3.149 -30.000  0.00  0.00    +0.253 C 
ENDBRANCH  29  31
BRANCH  30  33
ATOM     33  O   UNL     1      32.370  -2.044 -27.143  0.00  0.00    -0.446 OA
ATOM     34  C   UNL     1      30.955  -1.950 -27.032  0.00  0.00    +0.255 C 
ENDBRANCH  30  33
ENDBRANCH  24  26
ENDBRANCH  21  24
ENDBRANCH   2  22
TORSDOF 7
ENDMDL
MODEL 8
REMARK VINA RESULT:     -10.0      3.381      8.414
REMARK  Name = 44633765
REMARK  7 active torsions:
REMARK  status: ('A' for Active; 'I' for Inactive)
REMARK    1  A    between atoms: C_2  and  C_22
REMARK    2  A    between atoms: C_3  and  C_15
REMARK    3  A    between atoms: C_4  and  C_9
REMARK    4  A    between atoms: N_21  and  C_24
REMARK    5  A    between atoms: C_24  and  C_26
REMARK    6  A    between atoms: C_29  and  O_31
REMARK    7  A    between atoms: C_30  and  O_33
REMARK                            x       y       z     vdW  Elec       q    Type
REMARK                         _______ _______ _______ _____ _____    ______ ____
ROOT
ATOM      1  N   UNL     1      37.460 -21.932 -16.030  0.00  0.00    -0.242 NA
ATOM      2  C   UNL     1      35.220 -22.785 -15.710  0.00  0.00    +0.072 C 
ATOM      3  C   UNL     1      36.549 -22.655 -15.340  0.00  0.00    +0.103 C 
ATOM      4  C   UNL     1      35.706 -21.379 -17.600  0.00  0.00    +0.021 C 
ATOM      5  C   UNL     1      34.799 -22.132 -16.862  0.00  0.00    +0.008 C 
ATOM      6  C   UNL     1      37.013 -21.312 -17.145  0.00  0.00    +0.099 C 
ENDROOT
BRANCH   4   9
ATOM      7 CL   UNL     1      31.983 -19.995 -20.918  0.00  0.00    -0.081 Cl
ATOM      8  N   UNL     1      35.908 -19.340 -20.713  0.00  0.00    -0.241 NA
ATOM      9  C   UNL     1      35.299 -20.689 -18.801  0.00  0.00    +0.022 C 
ATOM     10  C   UNL     1      33.972 -20.690 -19.215  0.00  0.00    +0.015 C 
ATOM     11  C   UNL     1      36.220 -20.005 -19.578  0.00  0.00    +0.099 C 
ATOM     12  C   UNL     1      33.611 -20.016 -20.376  0.00  0.00    +0.077 C 
ATOM     13  C   UNL     1      34.607 -19.363 -21.083  0.00  0.00    +0.110 C 
ENDBRANCH   4   9
BRANCH   3  15
ATOM     14  N   UNL     1      36.986 -22.567 -13.022  0.00  0.00    -0.242 NA
ATOM     15  C   UNL     1      37.082 -23.295 -14.157  0.00  0.00    +0.099 C 
ATOM     16  C   UNL     1      37.642 -24.561 -14.221  0.00  0.00    +0.021 C 
ATOM     17  C   UNL     1      38.136 -25.115 -13.046  0.00  0.00    +0.003 C 
ATOM     18  C   UNL     1      37.477 -23.138 -11.899  0.00  0.00    +0.099 C 
ATOM     19  C   UNL     1      38.056 -24.396 -11.858  0.00  0.00    +0.021 C 
ENDBRANCH   3  15
BRANCH   2  22
ATOM     20  O   UNL     1      34.369 -24.808 -14.885  0.00  0.00    -0.270 OA
ATOM     21  N   UNL     1      33.256 -22.867 -14.274  0.00  0.00    -0.295 N 
ATOM     22  C   UNL     1      34.263 -23.572 -14.944  0.00  0.00    +0.248 C 
ATOM     23  H   UNL     1      33.233 -21.887 -14.366  0.00  0.00    +0.150 HD
BRANCH  21  24
ATOM     24  C   UNL     1      32.249 -23.502 -13.455  0.00  0.00    +0.145 C 
BRANCH  24  26
ATOM     25  N   UNL     1      29.974 -24.327 -13.672  0.00  0.00    -0.372 NA
ATOM     26  C   UNL     1      30.884 -23.410 -14.073  0.00  0.00    +0.114 C 
ATOM     27  C   UNL     1      30.625 -22.417 -15.003  0.00  0.00    +0.086 C 
ATOM     28  C   UNL     1      29.350 -22.360 -15.558  0.00  0.00    +0.024 C 
ATOM     29  C   UNL     1      28.388 -23.286 -15.170  0.00  0.00    +0.200 C 
ATOM     30  C   UNL     1      28.747 -24.241 -14.232  0.00  0.00    +0.312 C 
BRANCH  29  31
ATOM     31  O   UNL     1      27.140 -23.243 -15.702  0.00  0.00    -0.466 OA
ATOM     32  C   UNL     1      26.715 -22.003 -16.270  0.00  0.00    +0.253 C 
ENDBRANCH  29  31
BRANCH  30  33
ATOM     33  O   UNL     1      27.823 -25.167 -13.824  0.00  0.00    -0.446 OA
ATOM     34  C   UNL     1      27.992 -26.494 -14.305  0.00  0.00    +0.255 C 
ENDBRANCH  30  33
ENDBRANCH  24  26
ENDBRANCH  21  24
ENDBRANCH   2  22
TORSDOF 7
ENDMDL
MODEL 9
REMARK VINA RESULT:      -9.9      9.167     13.003
REMARK  Name = 44633765
REMARK  7 active torsions:
REMARK  status: ('A' for Active; 'I' for Inactive)
REMARK    1  A    between atoms: C_2  and  C_22
REMARK    2  A    between atoms: C_3  and  C_15
REMARK    3  A    between atoms: C_4  and  C_9
REMARK    4  A    between atoms: N_21  and  C_24
REMARK    5  A    between atoms: C_24  and  C_26
REMARK    6  A    between atoms: C_29  and  O_31
REMARK    7  A    between atoms: C_30  and  O_33
REMARK                            x       y       z     vdW  Elec       q    Type
REMARK                         _______ _______ _______ _____ _____    ______ ____
ROOT
ATOM      1  N   UNL     1      32.408 -13.658 -20.183  0.00  0.00    -0.242 NA
ATOM      2  C   UNL     1      33.097 -12.760 -22.320  0.00  0.00    +0.072 C 
ATOM      3  C   UNL     1      32.454 -12.662 -21.097  0.00  0.00    +0.103 C 
ATOM      4  C   UNL     1      33.707 -15.006 -21.713  0.00  0.00    +0.021 C 
ATOM      5  C   UNL     1      33.733 -13.957 -22.626  0.00  0.00    +0.008 C 
ATOM      6  C   UNL     1      33.037 -14.807 -20.517  0.00  0.00    +0.099 C 
ENDROOT
BRANCH   4   9
ATOM      7 CL   UNL     1      36.437 -19.099 -20.109  0.00  0.00    -0.081 Cl
ATOM      8  N   UNL     1      34.942 -17.960 -23.621  0.00  0.00    -0.241 NA
ATOM      9  C   UNL     1      34.358 -16.262 -22.002  0.00  0.00    +0.022 C 
ATOM     10  C   UNL     1      35.007 -16.980 -21.005  0.00  0.00    +0.015 C 
ATOM     11  C   UNL     1      34.353 -16.791 -23.283  0.00  0.00    +0.099 C 
ATOM     12  C   UNL     1      35.625 -18.187 -21.313  0.00  0.00    +0.077 C 
ATOM     13  C   UNL     1      35.564 -18.629 -22.625  0.00  0.00    +0.110 C 
ENDBRANCH   4   9
BRANCH   3  15
ATOM     14  N   UNL     1      30.809 -11.028 -21.539  0.00  0.00    -0.242 NA
ATOM     15  C   UNL     1      31.766 -11.458 -20.686  0.00  0.00    +0.099 C 
ATOM     16  C   UNL     1      32.090 -10.819 -19.499  0.00  0.00    +0.021 C 
ATOM     17  C   UNL     1      31.389  -9.666 -19.167  0.00  0.00    +0.003 C 
ATOM     18  C   UNL     1      30.148  -9.904 -21.183  0.00  0.00    +0.099 C 
ATOM     19  C   UNL     1      30.398  -9.193 -20.020  0.00  0.00    +0.021 C 
ENDBRANCH   3  15
BRANCH   2  22
ATOM     20  O   UNL     1      32.697 -11.832 -24.436  0.00  0.00    -0.270 OA
ATOM     21  N   UNL     1      33.637 -10.444 -22.835  0.00  0.00    -0.295 N 
ATOM     22  C   UNL     1      33.128 -11.667 -23.282  0.00  0.00    +0.248 C 
ATOM     23  H   UNL     1      33.962 -10.385 -21.907  0.00  0.00    +0.150 HD
BRANCH  21  24
ATOM     24  C   UNL     1      33.712  -9.261 -23.662  0.00  0.00    +0.145 C 
BRANCH  24  26
ATOM     25  N   UNL     1      33.074  -7.411 -22.221  0.00  0.00    -0.372 NA
ATOM     26  C   UNL     1      32.715  -8.220 -23.244  0.00  0.00    +0.114 C 
ATOM     27  C   UNL     1      31.501  -8.138 -23.908  0.00  0.00    +0.086 C 
ATOM     28  C   UNL     1      30.598  -7.164 -23.495  0.00  0.00    +0.024 C 
ATOM     29  C   UNL     1      30.931  -6.314 -22.447  0.00  0.00    +0.200 C 
ATOM     30  C   UNL     1      32.171  -6.476 -21.849  0.00  0.00    +0.312 C 
BRANCH  29  31
ATOM     31  O   UNL     1      30.061  -5.358 -22.034  0.00  0.00    -0.466 OA
ATOM     32  C   UNL     1      30.172  -4.068 -22.637  0.00  0.00    +0.253 C 
ENDBRANCH  29  31
BRANCH  30  33
ATOM     33  O   UNL     1      32.535  -5.655 -20.815  0.00  0.00    -0.446 OA
ATOM     34  C   UNL     1      32.318  -6.148 -19.499  0.00  0.00    +0.255 C 
ENDBRANCH  30  33
ENDBRANCH  24  26
ENDBRANCH  21  24
ENDBRANCH   2  22
TORSDOF 7
ENDMDL
