MODEL 1
REMARK VINA RESULT:     -11.9      0.000      0.000
REMARK  Name = 447219
REMARK  7 active torsions:
REMARK  status: ('A' for Active; 'I' for Inactive)
REMARK    1  A    between atoms: N_2  and  C_11
REMARK    2  A    between atoms: N_3  and  C_24
REMARK    3  A    between atoms: C_11  and  C_14
REMARK    4  A    between atoms: N_13  and  C_16
REMARK    5  A    between atoms: C_16  and  C_19
REMARK    6  A    between atoms: C_24  and  C_27
REMARK    7  A    between atoms: C_27  and  C_29
REMARK                            x       y       z     vdW  Elec       q    Type
REMARK                         _______ _______ _______ _____ _____    ______ ____
ROOT
ATOM      1  O   UNL     1      35.473 -22.026 -18.625  0.00  0.00    -0.267 OA
ATOM      2  N   UNL     1      33.357 -22.327 -17.664  0.00  0.00    -0.246 N 
ATOM      3  N   UNL     1      34.622 -20.175 -20.386  0.00  0.00    -0.310 N 
ATOM      4  N   UNL     1      32.465 -20.397 -19.497  0.00  0.00    -0.224 NA
ATOM      5  C   UNL     1      32.027 -21.931 -17.696  0.00  0.00    +0.052 C 
ATOM      6  C   UNL     1      33.723 -20.731 -19.510  0.00  0.00    +0.183 C 
ATOM      7  C   UNL     1      34.278 -21.768 -18.549  0.00  0.00    +0.284 C 
ATOM      8  C   UNL     1      31.647 -21.006 -18.589  0.00  0.00    +0.111 C 
ATOM      9  C   UNL     1      31.042 -22.538 -16.739  0.00  0.00    +0.049 C 
ATOM     10  H   UNL     1      35.561 -20.466 -20.351  0.00  0.00    +0.149 HD
ENDROOT
BRANCH   2  11
ATOM     11  C   UNL     1      33.793 -23.332 -16.701  0.00  0.00    +0.183 C 
BRANCH  11  14
ATOM     12  O   UNL     1      34.238 -21.936 -14.781  0.00  0.00    -0.273 OA
ATOM     13  N   UNL     1      36.009 -23.002 -15.842  0.00  0.00    -0.298 N 
ATOM     14  C   UNL     1      34.672 -22.684 -15.654  0.00  0.00    +0.243 C 
ATOM     15  H   UNL     1      36.244 -23.615 -16.576  0.00  0.00    +0.150 HD
BRANCH  13  16
ATOM     16  C   UNL     1      37.073 -22.480 -15.016  0.00  0.00    +0.138 C 
BRANCH  16  19
ATOM     17  F   UNL     1      36.323 -24.071 -12.806  0.00  0.00    -0.203 F 
ATOM     18  N   UNL     1      39.126 -23.760 -15.097  0.00  0.00    -0.244 NA
ATOM     19  C   UNL     1      37.947 -23.573 -14.469  0.00  0.00    +0.106 C 
ATOM     20  C   UNL     1      37.507 -24.306 -13.385  0.00  0.00    +0.155 C 
ATOM     21  C   UNL     1      38.342 -25.310 -12.907  0.00  0.00    +0.033 C 
ATOM     22  C   UNL     1      39.910 -24.744 -14.603  0.00  0.00    +0.099 C 
ATOM     23  C   UNL     1      39.568 -25.540 -13.522  0.00  0.00    +0.023 C 
ENDBRANCH  16  19
ENDBRANCH  13  16
ENDBRANCH  11  14
ENDBRANCH   2  11
BRANCH   3  24
ATOM     24  C   UNL     1      34.240 -19.188 -21.347  0.00  0.00    +0.162 C 
BRANCH  24  27
ATOM     25  F   UNL     1      36.084 -18.529 -22.641  0.00  0.00    -0.196 F 
ATOM     26  F   UNL     1      36.237 -18.301 -20.489  0.00  0.00    -0.196 F 
ATOM     27  C   UNL     1      35.367 -18.173 -21.534  0.00  0.00    +0.316 C 
BRANCH  27  29
ATOM     28  N   UNL     1      34.477 -16.180 -20.487  0.00  0.00    -0.243 NA
ATOM     29  C   UNL     1      34.816 -16.772 -21.645  0.00  0.00    +0.121 C 
ATOM     30  C   UNL     1      34.700 -16.204 -22.894  0.00  0.00    +0.020 C 
ATOM     31  C   UNL     1      34.189 -14.913 -22.962  0.00  0.00    +0.003 C 
ATOM     32  C   UNL     1      33.984 -14.925 -20.593  0.00  0.00    +0.099 C 
ATOM     33  C   UNL     1      33.822 -14.254 -21.794  0.00  0.00    +0.021 C 
ENDBRANCH  27  29
ENDBRANCH  24  27
ENDBRANCH   3  24
TORSDOF 7
ENDMDL
MODEL 2
REMARK VINA RESULT:     -11.9      5.372     12.380
REMARK  Name = 447219
REMARK  7 active torsions:
REMARK  status: ('A' for Active; 'I' for Inactive)
REMARK    1  A    between atoms: N_2  and  C_11
REMARK    2  A    between atoms: N_3  and  C_24
REMARK    3  A    between atoms: C_11  and  C_14
REMARK    4  A    between atoms: N_13  and  C_16
REMARK    5  A    between atoms: C_16  and  C_19
REMARK    6  A    between atoms: C_24  and  C_27
REMARK    7  A    between atoms: C_27  and  C_29
REMARK                            x       y       z     vdW  Elec       q    Type
REMARK                         _______ _______ _______ _____ _____    ______ ____
ROOT
ATOM      1  O   UNL     1      34.304 -13.839 -21.520  0.00  0.00    -0.267 OA
ATOM      2  N   UNL     1      33.495 -13.264 -23.642  0.00  0.00    -0.246 N 
ATOM      3  N   UNL     1      34.399 -16.475 -22.058  0.00  0.00    -0.310 N 
ATOM      4  N   UNL     1      33.593 -16.010 -24.210  0.00  0.00    -0.224 NA
ATOM      5  C   UNL     1      33.112 -13.752 -24.883  0.00  0.00    +0.052 C 
ATOM      6  C   UNL     1      33.965 -15.608 -23.030  0.00  0.00    +0.183 C 
ATOM      7  C   UNL     1      33.939 -14.136 -22.650  0.00  0.00    +0.284 C 
ATOM      8  C   UNL     1      33.175 -15.072 -25.109  0.00  0.00    +0.111 C 
ATOM      9  C   UNL     1      32.636 -12.804 -25.946  0.00  0.00    +0.049 C 
ATOM     10  H   UNL     1      34.668 -16.114 -21.184  0.00  0.00    +0.149 HD
ENDROOT
BRANCH   2  11
ATOM     11  C   UNL     1      33.434 -11.831 -23.375  0.00  0.00    +0.183 C 
BRANCH  11  14
ATOM     12  O   UNL     1      31.397 -12.372 -22.195  0.00  0.00    -0.273 OA
ATOM     13  N   UNL     1      31.963 -10.141 -22.516  0.00  0.00    -0.298 N 
ATOM     14  C   UNL     1      32.163 -11.510 -22.618  0.00  0.00    +0.243 C 
ATOM     15  H   UNL     1      32.646  -9.540 -22.892  0.00  0.00    +0.150 HD
BRANCH  13  16
ATOM     16  C   UNL     1      30.802  -9.554 -21.886  0.00  0.00    +0.138 C 
BRANCH  16  19
ATOM     17  F   UNL     1      31.791  -9.003 -19.298  0.00  0.00    -0.203 F 
ATOM     18  N   UNL     1      30.817  -7.166 -22.277  0.00  0.00    -0.244 NA
ATOM     19  C   UNL     1      31.073  -8.158 -21.402  0.00  0.00    +0.106 C 
ATOM     20  C   UNL     1      31.557  -7.973 -20.121  0.00  0.00    +0.155 C 
ATOM     21  C   UNL     1      31.797  -6.667 -19.707  0.00  0.00    +0.033 C 
ATOM     22  C   UNL     1      31.062  -5.910 -21.839  0.00  0.00    +0.099 C 
ATOM     23  C   UNL     1      31.548  -5.611 -20.577  0.00  0.00    +0.023 C 
ENDBRANCH  16  19
ENDBRANCH  13  16
ENDBRANCH  11  14
ENDBRANCH   2  11
BRANCH   3  24
ATOM     24  C   UNL     1      34.475 -17.886 -22.276  0.00  0.00    +0.162 C 
BRANCH  24  27
ATOM     25  F   UNL     1      36.048 -17.511 -20.575  0.00  0.00    -0.196 F 
ATOM     26  F   UNL     1      36.541 -18.985 -22.089  0.00  0.00    -0.196 F 
ATOM     27  C   UNL     1      35.506 -18.508 -21.335  0.00  0.00    +0.316 C 
BRANCH  27  29
ATOM     28  N   UNL     1      35.722 -20.290 -19.711  0.00  0.00    -0.243 NA
ATOM     29  C   UNL     1      34.879 -19.587 -20.486  0.00  0.00    +0.121 C 
ATOM     30  C   UNL     1      33.517 -19.778 -20.560  0.00  0.00    +0.020 C 
ATOM     31  C   UNL     1      32.971 -20.780 -19.765  0.00  0.00    +0.003 C 
ATOM     32  C   UNL     1      35.155 -21.255 -18.953  0.00  0.00    +0.099 C 
ATOM     33  C   UNL     1      33.798 -21.537 -18.943  0.00  0.00    +0.021 C 
ENDBRANCH  27  29
ENDBRANCH  24  27
ENDBRANCH   3  24
TORSDOF 7
ENDMDL
MODEL 3
REMARK VINA RESULT:     -11.7      2.341      3.271
REMARK  Name = 447219
REMARK  7 active torsions:
REMARK  status: ('A' for Active; 'I' for Inactive)
REMARK    1  A    between atoms: N_2  and  C_11
REMARK    2  A    between atoms: N_3  and  C_24
REMARK    3  A    between atoms: C_11  and  C_14
REMARK    4  A    between atoms: N_13  and  C_16
REMARK    5  A    between atoms: C_16  and  C_19
REMARK    6  A    between atoms: C_24  and  C_27
REMARK    7  A    between atoms: C_27  and  C_29
REMARK                            x       y       z     vdW  Elec       q    Type
REMARK                         _______ _______ _______ _____ _____    ______ ____
ROOT
ATOM      1  O   UNL     1      33.728 -23.722 -15.909  0.00  0.00    -0.267 OA
ATOM      2  N   UNL     1      31.451 -23.506 -15.400  0.00  0.00    -0.246 N 
ATOM      3  N   UNL     1      33.603 -22.086 -18.044  0.00  0.00    -0.310 N 
ATOM      4  N   UNL     1      31.315 -21.799 -17.624  0.00  0.00    -0.224 NA
ATOM      5  C   UNL     1      30.254 -22.910 -15.773  0.00  0.00    +0.052 C 
ATOM      6  C   UNL     1      32.464 -22.330 -17.319  0.00  0.00    +0.183 C 
ATOM      7  C   UNL     1      32.614 -23.264 -16.129  0.00  0.00    +0.284 C 
ATOM      8  C   UNL     1      30.237 -22.102 -16.842  0.00  0.00    +0.111 C 
ATOM      9  C   UNL     1      29.007 -23.176 -14.981  0.00  0.00    +0.049 C 
ATOM     10  H   UNL     1      34.444 -22.516 -17.767  0.00  0.00    +0.149 HD
ENDROOT
BRANCH   2  11
ATOM     11  C   UNL     1      31.492 -24.389 -14.239  0.00  0.00    +0.183 C 
BRANCH  11  14
ATOM     12  O   UNL     1      31.864 -22.760 -12.494  0.00  0.00    -0.273 OA
ATOM     13  N   UNL     1      33.521 -24.320 -12.960  0.00  0.00    -0.298 N 
ATOM     14  C   UNL     1      32.278 -23.729 -13.127  0.00  0.00    +0.243 C 
ATOM     15  H   UNL     1      33.749 -25.094 -13.524  0.00  0.00    +0.150 HD
BRANCH  13  16
ATOM     16  C   UNL     1      34.498 -23.858 -12.001  0.00  0.00    +0.138 C 
BRANCH  16  19
ATOM     17  F   UNL     1      35.995 -22.533 -13.996  0.00  0.00    -0.203 F 
ATOM     18  N   UNL     1      36.403 -25.321 -11.704  0.00  0.00    -0.244 NA
ATOM     19  C   UNL     1      35.893 -24.271 -12.377  0.00  0.00    +0.106 C 
ATOM     20  C   UNL     1      36.558 -23.570 -13.364  0.00  0.00    +0.155 C 
ATOM     21  C   UNL     1      37.848 -23.980 -13.685  0.00  0.00    +0.033 C 
ATOM     22  C   UNL     1      37.658 -25.691 -12.044  0.00  0.00    +0.099 C 
ATOM     23  C   UNL     1      38.416 -25.059 -13.017  0.00  0.00    +0.023 C 
ENDBRANCH  16  19
ENDBRANCH  13  16
ENDBRANCH  11  14
ENDBRANCH   2  11
BRANCH   3  24
ATOM     24  C   UNL     1      33.610 -21.230 -19.188  0.00  0.00    +0.162 C 
BRANCH  24  27
ATOM     25  F   UNL     1      35.609 -22.035 -20.116  0.00  0.00    -0.196 F 
ATOM     26  F   UNL     1      35.763 -20.641 -18.461  0.00  0.00    -0.196 F 
ATOM     27  C   UNL     1      35.046 -20.905 -19.594  0.00  0.00    +0.316 C 
BRANCH  27  29
ATOM     28  N   UNL     1      36.175 -18.971 -20.514  0.00  0.00    -0.243 NA
ATOM     29  C   UNL     1      35.084 -19.754 -20.569  0.00  0.00    +0.121 C 
ATOM     30  C   UNL     1      34.023 -19.583 -21.432  0.00  0.00    +0.020 C 
ATOM     31  C   UNL     1      34.089 -18.513 -22.317  0.00  0.00    +0.003 C 
ATOM     32  C   UNL     1      36.203 -17.942 -21.390  0.00  0.00    +0.099 C 
ATOM     33  C   UNL     1      35.195 -17.672 -22.303  0.00  0.00    +0.021 C 
ENDBRANCH  27  29
ENDBRANCH  24  27
ENDBRANCH   3  24
TORSDOF 7
ENDMDL
MODEL 4
REMARK VINA RESULT:     -11.6      5.508     12.380
REMARK  Name = 447219
REMARK  7 active torsions:
REMARK  status: ('A' for Active; 'I' for Inactive)
REMARK    1  A    between atoms: N_2  and  C_11
REMARK    2  A    between atoms: N_3  and  C_24
REMARK    3  A    between atoms: C_11  and  C_14
REMARK    4  A    between atoms: N_13  and  C_16
REMARK    5  A    between atoms: C_16  and  C_19
REMARK    6  A    between atoms: C_24  and  C_27
REMARK    7  A    between atoms: C_27  and  C_29
REMARK                            x       y       z     vdW  Elec       q    Type
REMARK                         _______ _______ _______ _____ _____    ______ ____
ROOT
ATOM      1  O   UNL     1      33.555 -14.437 -24.045  0.00  0.00    -0.267 OA
ATOM      2  N   UNL     1      32.568 -13.125 -22.373  0.00  0.00    -0.246 N 
ATOM      3  N   UNL     1      34.778 -16.084 -22.300  0.00  0.00    -0.310 N 
ATOM      4  N   UNL     1      33.840 -14.838 -20.550  0.00  0.00    -0.224 NA
ATOM      5  C   UNL     1      32.428 -12.944 -21.005  0.00  0.00    +0.052 C 
ATOM      6  C   UNL     1      34.006 -15.054 -21.822  0.00  0.00    +0.183 C 
ATOM      7  C   UNL     1      33.349 -14.168 -22.868  0.00  0.00    +0.284 C 
ATOM      8  C   UNL     1      33.054 -13.787 -20.171  0.00  0.00    +0.111 C 
ATOM      9  C   UNL     1      31.585 -11.818 -20.481  0.00  0.00    +0.049 C 
ATOM     10  H   UNL     1      34.867 -16.199 -23.273  0.00  0.00    +0.149 HD
ENDROOT
BRANCH   2  11
ATOM     11  C   UNL     1      31.896 -12.219 -23.298  0.00  0.00    +0.183 C 
BRANCH  11  14
ATOM     12  O   UNL     1      33.911 -10.934 -23.656  0.00  0.00    -0.273 OA
ATOM     13  N   UNL     1      31.916  -9.820 -23.234  0.00  0.00    -0.298 N 
ATOM     14  C   UNL     1      32.702 -10.945 -23.436  0.00  0.00    +0.243 C 
ATOM     15  H   UNL     1      30.954  -9.947 -23.065  0.00  0.00    +0.150 HD
BRANCH  13  16
ATOM     16  C   UNL     1      32.437  -8.472 -23.258  0.00  0.00    +0.138 C 
BRANCH  16  19
ATOM     17  F   UNL     1      33.641  -5.986 -22.672  0.00  0.00    -0.203 F 
ATOM     18  N   UNL     1      31.509  -8.421 -21.024  0.00  0.00    -0.244 NA
ATOM     19  C   UNL     1      32.273  -7.784 -21.933  0.00  0.00    +0.106 C 
ATOM     20  C   UNL     1      32.895  -6.568 -21.726  0.00  0.00    +0.155 C 
ATOM     21  C   UNL     1      32.720  -5.959 -20.488  0.00  0.00    +0.033 C 
ATOM     22  C   UNL     1      31.363  -7.800 -19.832  0.00  0.00    +0.099 C 
ATOM     23  C   UNL     1      31.941  -6.580 -19.518  0.00  0.00    +0.023 C 
ENDBRANCH  16  19
ENDBRANCH  13  16
ENDBRANCH  11  14
ENDBRANCH   2  11
BRANCH   3  24
ATOM     24  C   UNL     1      35.454 -16.994 -21.431  0.00  0.00    +0.162 C 
BRANCH  24  27
ATOM     25  F   UNL     1      36.611 -18.729 -22.510  0.00  0.00    -0.196 F 
ATOM     26  F   UNL     1      34.540 -18.403 -23.071  0.00  0.00    -0.196 F 
ATOM     27  C   UNL     1      35.384 -18.411 -21.998  0.00  0.00    +0.316 C 
BRANCH  27  29
ATOM     28  N   UNL     1      35.926 -19.954 -20.212  0.00  0.00    -0.243 NA
ATOM     29  C   UNL     1      34.944 -19.394 -20.939  0.00  0.00    +0.121 C 
ATOM     30  C   UNL     1      33.599 -19.646 -20.790  0.00  0.00    +0.020 C 
ATOM     31  C   UNL     1      33.227 -20.556 -19.806  0.00  0.00    +0.003 C 
ATOM     32  C   UNL     1      35.526 -20.833 -19.266  0.00  0.00    +0.099 C 
ATOM     33  C   UNL     1      34.202 -21.165 -19.025  0.00  0.00    +0.021 C 
ENDBRANCH  27  29
ENDBRANCH  24  27
ENDBRANCH   3  24
TORSDOF 7
ENDMDL
MODEL 5
REMARK VINA RESULT:     -11.4      3.614      6.284
REMARK  Name = 447219
REMARK  7 active torsions:
REMARK  status: ('A' for Active; 'I' for Inactive)
REMARK    1  A    between atoms: N_2  and  C_11
REMARK    2  A    between atoms: N_3  and  C_24
REMARK    3  A    between atoms: C_11  and  C_14
REMARK    4  A    between atoms: N_13  and  C_16
REMARK    5  A    between atoms: C_16  and  C_19
REMARK    6  A    between atoms: C_24  and  C_27
REMARK    7  A    between atoms: C_27  and  C_29
REMARK                            x       y       z     vdW  Elec       q    Type
REMARK                         _______ _______ _______ _____ _____    ______ ____
ROOT
ATOM      1  O   UNL     1      34.929 -16.508 -20.256  0.00  0.00    -0.267 OA
ATOM      2  N   UNL     1      34.661 -17.889 -22.129  0.00  0.00    -0.246 N 
ATOM      3  N   UNL     1      34.130 -14.281 -21.542  0.00  0.00    -0.310 N 
ATOM      4  N   UNL     1      33.825 -15.572 -23.475  0.00  0.00    -0.224 NA
ATOM      5  C   UNL     1      34.287 -17.932 -23.465  0.00  0.00    +0.052 C 
ATOM      6  C   UNL     1      34.165 -15.473 -22.222  0.00  0.00    +0.183 C 
ATOM      7  C   UNL     1      34.628 -16.684 -21.429  0.00  0.00    +0.284 C 
ATOM      8  C   UNL     1      33.894 -16.800 -24.066  0.00  0.00    +0.111 C 
ATOM      9  C   UNL     1      34.325 -19.235 -24.211  0.00  0.00    +0.049 C 
ATOM     10  H   UNL     1      34.398 -14.266 -20.595  0.00  0.00    +0.149 HD
ENDROOT
BRANCH   2  11
ATOM     11  C   UNL     1      35.091 -19.109 -21.455  0.00  0.00    +0.183 C 
BRANCH  11  14
ATOM     12  O   UNL     1      32.741 -19.431 -21.002  0.00  0.00    -0.273 OA
ATOM     13  N   UNL     1      34.301 -20.737 -19.881  0.00  0.00    -0.298 N 
ATOM     14  C   UNL     1      33.903 -19.765 -20.786  0.00  0.00    +0.243 C 
ATOM     15  H   UNL     1      35.263 -20.924 -19.789  0.00  0.00    +0.150 HD
BRANCH  13  16
ATOM     16  C   UNL     1      33.374 -21.489 -19.065  0.00  0.00    +0.138 C 
BRANCH  16  19
ATOM     17  F   UNL     1      31.928 -22.856 -17.060  0.00  0.00    -0.203 F 
ATOM     18  N   UNL     1      35.320 -21.693 -17.641  0.00  0.00    -0.244 NA
ATOM     19  C   UNL     1      34.007 -21.959 -17.786  0.00  0.00    +0.106 C 
ATOM     20  C   UNL     1      33.230 -22.621 -16.855  0.00  0.00    +0.155 C 
ATOM     21  C   UNL     1      33.849 -23.043 -15.684  0.00  0.00    +0.033 C 
ATOM     22  C   UNL     1      35.887 -22.117 -16.489  0.00  0.00    +0.099 C 
ATOM     23  C   UNL     1      35.203 -22.791 -15.490  0.00  0.00    +0.023 C 
ENDBRANCH  16  19
ENDBRANCH  13  16
ENDBRANCH  11  14
ENDBRANCH   2  11
BRANCH   3  24
ATOM     24  C   UNL     1      33.716 -13.062 -22.161  0.00  0.00    +0.162 C 
BRANCH  24  27
ATOM     25  F   UNL     1      31.859 -13.503 -20.795  0.00  0.00    -0.196 F 
ATOM     26  F   UNL     1      31.535 -13.447 -22.940  0.00  0.00    -0.196 F 
ATOM     27  C   UNL     1      32.223 -12.835 -21.930  0.00  0.00    +0.316 C 
BRANCH  27  29
ATOM     28  N   UNL     1      32.292 -10.615 -22.893  0.00  0.00    -0.243 NA
ATOM     29  C   UNL     1      31.909 -11.361 -21.843  0.00  0.00    +0.121 C 
ATOM     30  C   UNL     1      31.266 -10.887 -20.720  0.00  0.00    +0.020 C 
ATOM     31  C   UNL     1      30.992  -9.525 -20.672  0.00  0.00    +0.003 C 
ATOM     32  C   UNL     1      32.008  -9.296 -22.810  0.00  0.00    +0.099 C 
ATOM     33  C   UNL     1      31.366  -8.707 -21.731  0.00  0.00    +0.021 C 
ENDBRANCH  27  29
ENDBRANCH  24  27
ENDBRANCH   3  24
TORSDOF 7
ENDMDL
MODEL 6
REMARK VINA RESULT:     -11.3      5.825     12.868
REMARK  Name = 447219
REMARK  7 active torsions:
REMARK  status: ('A' for Active; 'I' for Inactive)
REMARK    1  A    between atoms: N_2  and  C_11
REMARK    2  A    between atoms: N_3  and  C_24
REMARK    3  A    between atoms: C_11  and  C_14
REMARK    4  A    between atoms: N_13  and  C_16
REMARK    5  A    between atoms: C_16  and  C_19
REMARK    6  A    between atoms: C_24  and  C_27
REMARK    7  A    between atoms: C_27  and  C_29
REMARK                            x       y       z     vdW  Elec       q    Type
REMARK                         _______ _______ _______ _____ _____    ______ ____
ROOT
ATOM      1  O   UNL     1      33.388 -14.232 -23.956  0.00  0.00    -0.267 OA
ATOM      2  N   UNL     1      32.492 -12.920 -22.233  0.00  0.00    -0.246 N 
ATOM      3  N   UNL     1      34.550 -15.987 -22.276  0.00  0.00    -0.310 N 
ATOM      4  N   UNL     1      33.699 -14.747 -20.478  0.00  0.00    -0.224 NA
ATOM      5  C   UNL     1      32.379 -12.772 -20.858  0.00  0.00    +0.052 C 
ATOM      6  C   UNL     1      33.837 -14.934 -21.758  0.00  0.00    +0.183 C 
ATOM      7  C   UNL     1      33.212 -13.987 -22.769  0.00  0.00    +0.284 C 
ATOM      8  C   UNL     1      32.973 -13.669 -20.058  0.00  0.00    +0.111 C 
ATOM      9  C   UNL     1      31.601 -11.621 -20.290  0.00  0.00    +0.049 C 
ATOM     10  H   UNL     1      34.620 -16.078 -23.253  0.00  0.00    +0.149 HD
ENDROOT
BRANCH   2  11
ATOM     11  C   UNL     1      31.854 -11.955 -23.123  0.00  0.00    +0.183 C 
BRANCH  11  14
ATOM     12  O   UNL     1      33.924 -10.910 -23.799  0.00  0.00    -0.273 OA
ATOM     13  N   UNL     1      32.209  -9.589 -22.955  0.00  0.00    -0.298 N 
ATOM     14  C   UNL     1      32.786 -10.785 -23.354  0.00  0.00    +0.243 C 
ATOM     15  H   UNL     1      31.287  -9.606 -22.611  0.00  0.00    +0.150 HD
BRANCH  13  16
ATOM     16  C   UNL     1      32.895  -8.318 -23.016  0.00  0.00    +0.138 C 
BRANCH  16  19
ATOM     17  F   UNL     1      32.628  -7.358 -20.373  0.00  0.00    -0.203 F 
ATOM     18  N   UNL     1      31.302  -6.619 -23.673  0.00  0.00    -0.244 NA
ATOM     19  C   UNL     1      31.990  -7.174 -22.656  0.00  0.00    +0.106 C 
ATOM     20  C   UNL     1      31.917  -6.764 -21.339  0.00  0.00    +0.155 C 
ATOM     21  C   UNL     1      31.070  -5.702 -21.043  0.00  0.00    +0.033 C 
ATOM     22  C   UNL     1      30.489  -5.589 -23.347  0.00  0.00    +0.099 C 
ATOM     23  C   UNL     1      30.339  -5.097 -22.060  0.00  0.00    +0.023 C 
ENDBRANCH  16  19
ENDBRANCH  13  16
ENDBRANCH  11  14
ENDBRANCH   2  11
BRANCH   3  24
ATOM     24  C   UNL     1      35.191 -16.955 -21.443  0.00  0.00    +0.162 C 
BRANCH  24  27
ATOM     25  F   UNL     1      36.223 -18.645 -22.703  0.00  0.00    -0.196 F 
ATOM     26  F   UNL     1      34.108 -18.295 -23.038  0.00  0.00    -0.196 F 
ATOM     27  C   UNL     1      35.057 -18.348 -22.057  0.00  0.00    +0.316 C 
BRANCH  27  29
ATOM     28  N   UNL     1      33.413 -19.625 -20.821  0.00  0.00    -0.243 NA
ATOM     29  C   UNL     1      34.721 -19.372 -20.999  0.00  0.00    +0.121 C 
ATOM     30  C   UNL     1      35.751 -19.966 -20.304  0.00  0.00    +0.020 C 
ATOM     31  C   UNL     1      35.407 -20.905 -19.338  0.00  0.00    +0.003 C 
ATOM     32  C   UNL     1      33.119 -20.544 -19.873  0.00  0.00    +0.099 C 
ATOM     33  C   UNL     1      34.069 -21.206 -19.111  0.00  0.00    +0.021 C 
ENDBRANCH  27  29
ENDBRANCH  24  27
ENDBRANCH   3  24
TORSDOF 7
ENDMDL
MODEL 7
REMARK VINA RESULT:     -11.3      2.732      5.908
REMARK  Name = 447219
REMARK  7 active torsions:
REMARK  status: ('A' for Active; 'I' for Inactive)
REMARK    1  A    between atoms: N_2  and  C_11
REMARK    2  A    between atoms: N_3  and  C_24
REMARK    3  A    between atoms: C_11  and  C_14
REMARK    4  A    between atoms: N_13  and  C_16
REMARK    5  A    between atoms: C_16  and  C_19
REMARK    6  A    between atoms: C_24  and  C_27
REMARK    7  A    between atoms: C_27  and  C_29
REMARK                            x       y       z     vdW  Elec       q    Type
REMARK                         _______ _______ _______ _____ _____    ______ ____
ROOT
ATOM      1  O   UNL     1      33.694 -23.747 -15.850  0.00  0.00    -0.267 OA
ATOM      2  N   UNL     1      35.463 -23.659 -14.316  0.00  0.00    -0.246 N 
ATOM      3  N   UNL     1      34.814 -21.971 -17.537  0.00  0.00    -0.310 N 
ATOM      4  N   UNL     1      36.636 -21.809 -16.070  0.00  0.00    -0.224 NA
ATOM      5  C   UNL     1      36.696 -23.088 -14.034  0.00  0.00    +0.052 C 
ATOM      6  C   UNL     1      35.478 -22.313 -16.384  0.00  0.00    +0.183 C 
ATOM      7  C   UNL     1      34.781 -23.319 -15.484  0.00  0.00    +0.284 C 
ATOM      8  C   UNL     1      37.217 -22.209 -14.902  0.00  0.00    +0.111 C 
ATOM      9  C   UNL     1      37.423 -23.460 -12.774  0.00  0.00    +0.049 C 
ATOM     10  H   UNL     1      33.941 -22.385 -17.722  0.00  0.00    +0.149 HD
ENDROOT
BRANCH   2  11
ATOM     11  C   UNL     1      34.876 -24.617 -13.386  0.00  0.00    +0.183 C 
BRANCH  11  14
ATOM     12  O   UNL     1      33.585 -23.169 -11.947  0.00  0.00    -0.273 OA
ATOM     13  N   UNL     1      32.478 -24.673 -13.331  0.00  0.00    -0.298 N 
ATOM     14  C   UNL     1      33.600 -24.047 -12.807  0.00  0.00    +0.243 C 
ATOM     15  H   UNL     1      32.608 -25.366 -14.018  0.00  0.00    +0.150 HD
BRANCH  13  16
ATOM     16  C   UNL     1      31.129 -24.360 -12.918  0.00  0.00    +0.138 C 
BRANCH  16  19
ATOM     17  F   UNL     1      31.453 -21.889 -14.247  0.00  0.00    -0.203 F 
ATOM     18  N   UNL     1      29.321 -24.823 -14.459  0.00  0.00    -0.244 NA
ATOM     19  C   UNL     1      30.269 -23.944 -14.077  0.00  0.00    +0.106 C 
ATOM     20  C   UNL     1      30.493 -22.718 -14.674  0.00  0.00    +0.155 C 
ATOM     21  C   UNL     1      29.678 -22.367 -15.745  0.00  0.00    +0.033 C 
ATOM     22  C   UNL     1      28.549 -24.446 -15.503  0.00  0.00    +0.099 C 
ATOM     23  C   UNL     1      28.686 -23.242 -16.174  0.00  0.00    +0.023 C 
ENDBRANCH  16  19
ENDBRANCH  13  16
ENDBRANCH  11  14
ENDBRANCH   2  11
BRANCH   3  24
ATOM     24  C   UNL     1      35.350 -21.037 -18.476  0.00  0.00    +0.162 C 
BRANCH  24  27
ATOM     25  F   UNL     1      33.141 -20.580 -19.123  0.00  0.00    -0.196 F 
ATOM     26  F   UNL     1      34.246 -22.039 -20.289  0.00  0.00    -0.196 F 
ATOM     27  C   UNL     1      34.378 -20.845 -19.639  0.00  0.00    +0.316 C 
BRANCH  27  29
ATOM     28  N   UNL     1      36.074 -19.250 -20.304  0.00  0.00    -0.243 NA
ATOM     29  C   UNL     1      34.852 -19.747 -20.561  0.00  0.00    +0.121 C 
ATOM     30  C   UNL     1      34.022 -19.336 -21.581  0.00  0.00    +0.020 C 
ATOM     31  C   UNL     1      34.488 -18.324 -22.412  0.00  0.00    +0.003 C 
ATOM     32  C   UNL     1      36.493 -18.268 -21.134  0.00  0.00    +0.099 C 
ATOM     33  C   UNL     1      35.746 -17.773 -22.191  0.00  0.00    +0.021 C 
ENDBRANCH  27  29
ENDBRANCH  24  27
ENDBRANCH   3  24
TORSDOF 7
ENDMDL
MODEL 8
REMARK VINA RESULT:     -11.3      2.470      9.103
REMARK  Name = 447219
REMARK  7 active torsions:
REMARK  status: ('A' for Active; 'I' for Inactive)
REMARK    1  A    between atoms: N_2  and  C_11
REMARK    2  A    between atoms: N_3  and  C_24
REMARK    3  A    between atoms: C_11  and  C_14
REMARK    4  A    between atoms: N_13  and  C_16
REMARK    5  A    between atoms: C_16  and  C_19
REMARK    6  A    between atoms: C_24  and  C_27
REMARK    7  A    between atoms: C_27  and  C_29
REMARK                            x       y       z     vdW  Elec       q    Type
REMARK                         _______ _______ _______ _____ _____    ______ ____
ROOT
ATOM      1  O   UNL     1      34.092 -22.103 -15.345  0.00  0.00    -0.267 OA
ATOM      2  N   UNL     1      31.908 -22.918 -15.587  0.00  0.00    -0.246 N 
ATOM      3  N   UNL     1      34.451 -23.231 -12.926  0.00  0.00    -0.310 N 
ATOM      4  N   UNL     1      32.277 -24.097 -13.067  0.00  0.00    -0.224 NA
ATOM      5  C   UNL     1      30.903 -23.667 -14.994  0.00  0.00    +0.052 C 
ATOM      6  C   UNL     1      33.254 -23.404 -13.576  0.00  0.00    +0.183 C 
ATOM      7  C   UNL     1      33.127 -22.736 -14.936  0.00  0.00    +0.284 C 
ATOM      8  C   UNL     1      31.124 -24.212 -13.789  0.00  0.00    +0.111 C 
ATOM      9  C   UNL     1      29.593 -23.858 -15.703  0.00  0.00    +0.049 C 
ATOM     10  H   UNL     1      35.154 -22.696 -13.360  0.00  0.00    +0.149 HD
ENDROOT
BRANCH   2  11
ATOM     11  C   UNL     1      31.689 -22.316 -16.898  0.00  0.00    +0.183 C 
BRANCH  11  14
ATOM     12  O   UNL     1      33.090 -23.862 -18.116  0.00  0.00    -0.273 OA
ATOM     13  N   UNL     1      33.526 -21.584 -18.257  0.00  0.00    -0.298 N 
ATOM     14  C   UNL     1      32.820 -22.698 -17.827  0.00  0.00    +0.243 C 
ATOM     15  H   UNL     1      33.220 -20.696 -17.962  0.00  0.00    +0.150 HD
BRANCH  13  16
ATOM     16  C   UNL     1      34.688 -21.661 -19.113  0.00  0.00    +0.138 C 
BRANCH  16  19
ATOM     17  F   UNL     1      32.593 -20.456 -20.575  0.00  0.00    -0.203 F 
ATOM     18  N   UNL     1      36.115 -19.875 -19.904  0.00  0.00    -0.244 NA
ATOM     19  C   UNL     1      34.877 -20.406 -19.916  0.00  0.00    +0.106 C 
ATOM     20  C   UNL     1      33.801 -19.880 -20.604  0.00  0.00    +0.155 C 
ATOM     21  C   UNL     1      34.013 -18.716 -21.336  0.00  0.00    +0.033 C 
ATOM     22  C   UNL     1      36.283 -18.745 -20.628  0.00  0.00    +0.099 C 
ATOM     23  C   UNL     1      35.275 -18.132 -21.353  0.00  0.00    +0.023 C 
ENDBRANCH  16  19
ENDBRANCH  13  16
ENDBRANCH  11  14
ENDBRANCH   2  11
BRANCH   3  24
ATOM     24  C   UNL     1      34.710 -23.800 -11.642  0.00  0.00    +0.162 C 
BRANCH  24  27
ATOM     25  F   UNL     1      36.381 -24.135 -10.028  0.00  0.00    -0.196 F 
ATOM     26  F   UNL     1      36.515 -22.350 -11.254  0.00  0.00    -0.196 F 
ATOM     27  C   UNL     1      36.194 -23.677 -11.301  0.00  0.00    +0.316 C 
BRANCH  27  29
ATOM     28  N   UNL     1      36.447 -25.469 -12.909  0.00  0.00    -0.243 NA
ATOM     29  C   UNL     1      37.041 -24.428 -12.300  0.00  0.00    +0.121 C 
ATOM     30  C   UNL     1      38.335 -24.009 -12.518  0.00  0.00    +0.020 C 
ATOM     31  C   UNL     1      39.087 -24.723 -13.444  0.00  0.00    +0.003 C 
ATOM     32  C   UNL     1      37.210 -26.138 -13.803  0.00  0.00    +0.099 C 
ATOM     33  C   UNL     1      38.522 -25.809 -14.104  0.00  0.00    +0.021 C 
ENDBRANCH  27  29
ENDBRANCH  24  27
ENDBRANCH   3  24
TORSDOF 7
ENDMDL
MODEL 9
REMARK VINA RESULT:     -10.9      4.070     11.035
REMARK  Name = 447219
REMARK  7 active torsions:
REMARK  status: ('A' for Active; 'I' for Inactive)
REMARK    1  A    between atoms: N_2  and  C_11
REMARK    2  A    between atoms: N_3  and  C_24
REMARK    3  A    between atoms: C_11  and  C_14
REMARK    4  A    between atoms: N_13  and  C_16
REMARK    5  A    between atoms: C_16  and  C_19
REMARK    6  A    between atoms: C_24  and  C_27
REMARK    7  A    between atoms: C_27  and  C_29
REMARK                            x       y       z     vdW  Elec       q    Type
REMARK                         _______ _______ _______ _____ _____    ______ ____
ROOT
ATOM      1  O   UNL     1      34.553 -15.986 -20.306  0.00  0.00    -0.267 OA
ATOM      2  N   UNL     1      34.234 -15.556 -22.587  0.00  0.00    -0.246 N 
ATOM      3  N   UNL     1      34.470 -18.661 -20.601  0.00  0.00    -0.310 N 
ATOM      4  N   UNL     1      34.147 -18.343 -22.901  0.00  0.00    -0.224 NA
ATOM      5  C   UNL     1      34.048 -16.129 -23.836  0.00  0.00    +0.052 C 
ATOM      6  C   UNL     1      34.325 -17.859 -21.706  0.00  0.00    +0.183 C 
ATOM      7  C   UNL     1      34.383 -16.361 -21.459  0.00  0.00    +0.284 C 
ATOM      8  C   UNL     1      34.013 -17.466 -23.938  0.00  0.00    +0.111 C 
ATOM      9  C   UNL     1      33.889 -15.254 -25.046  0.00  0.00    +0.049 C 
ATOM     10  H   UNL     1      34.601 -18.239 -19.722  0.00  0.00    +0.149 HD
ENDROOT
BRANCH   2  11
ATOM     11  C   UNL     1      34.275 -14.104 -22.452  0.00  0.00    +0.183 C 
BRANCH  11  14
ATOM     12  O   UNL     1      32.022 -13.590 -23.157  0.00  0.00    -0.273 OA
ATOM     13  N   UNL     1      32.694 -13.026 -21.005  0.00  0.00    -0.298 N 
ATOM     14  C   UNL     1      32.871 -13.571 -22.268  0.00  0.00    +0.243 C 
ATOM     15  H   UNL     1      33.445 -13.066 -20.370  0.00  0.00    +0.150 HD
BRANCH  13  16
ATOM     16  C   UNL     1      31.464 -12.401 -20.575  0.00  0.00    +0.138 C 
BRANCH  16  19
ATOM     17  F   UNL     1      31.335 -10.420 -18.566  0.00  0.00    -0.203 F 
ATOM     18  N   UNL     1      31.490 -10.600 -22.191  0.00  0.00    -0.244 NA
ATOM     19  C   UNL     1      31.443 -10.931 -20.885  0.00  0.00    +0.106 C 
ATOM     20  C   UNL     1      31.379 -10.026 -19.844  0.00  0.00    +0.155 C 
ATOM     21  C   UNL     1      31.363  -8.673 -20.169  0.00  0.00    +0.033 C 
ATOM     22  C   UNL     1      31.472  -9.276 -22.467  0.00  0.00    +0.099 C 
ATOM     23  C   UNL     1      31.410  -8.283 -21.503  0.00  0.00    +0.023 C 
ENDBRANCH  16  19
ENDBRANCH  13  16
ENDBRANCH  11  14
ENDBRANCH   2  11
BRANCH   3  24
ATOM     24  C   UNL     1      34.435 -20.087 -20.685  0.00  0.00    +0.162 C 
BRANCH  24  27
ATOM     25  F   UNL     1      36.158 -19.696 -19.140  0.00  0.00    -0.196 F 
ATOM     26  F   UNL     1      36.257 -21.520 -20.311  0.00  0.00    -0.196 F 
ATOM     27  C   UNL     1      35.385 -20.697 -19.656  0.00  0.00    +0.316 C 
BRANCH  27  29
ATOM     28  N   UNL     1      35.330 -21.814 -17.509  0.00  0.00    -0.243 NA
ATOM     29  C   UNL     1      34.617 -21.428 -18.580  0.00  0.00    +0.121 C 
ATOM     30  C   UNL     1      33.270 -21.645 -18.762  0.00  0.00    +0.020 C 
ATOM     31  C   UNL     1      32.592 -22.320 -17.753  0.00  0.00    +0.003 C 
ATOM     32  C   UNL     1      34.637 -22.468 -16.549  0.00  0.00    +0.099 C 
ATOM     33  C   UNL     1      33.281 -22.743 -16.622  0.00  0.00    +0.021 C 
ENDBRANCH  27  29
ENDBRANCH  24  27
ENDBRANCH   3  24
TORSDOF 7
ENDMDL
