MODEL 1
REMARK VINA RESULT:     -12.9      0.000      0.000
REMARK  Name = 24180720
REMARK  6 active torsions:
REMARK  status: ('A' for Active; 'I' for Inactive)
REMARK    1  A    between atoms: C_2  and  C_6
REMARK    2  A    between atoms: C_2  and  C_21
REMARK    3  A    between atoms: C_10  and  C_14
REMARK    4  A    between atoms: C_22  and  N_27
REMARK    5  A    between atoms: N_27  and  S_29
REMARK    6  A    between atoms: S_29  and  C_32
REMARK                            x       y       z     vdW  Elec       q    Type
REMARK                         _______ _______ _______ _____ _____    ______ ____
ROOT
ATOM      1  O   UNL     1      34.286 -12.793 -21.337  0.00  0.00    -0.286 OA
ATOM      2  C   UNL     1      33.432 -12.763 -22.242  0.00  0.00    +0.201 C 
ENDROOT
BRANCH   2   6
ATOM      3  N   UNL     1      33.004 -14.616 -25.306  0.00  0.00    -0.297 N 
ATOM      4  N   UNL     1      33.630 -16.909 -24.911  0.00  0.00    -0.229 NA
ATOM      5  C   UNL     1      33.687 -15.116 -23.240  0.00  0.00    +0.036 C 
ATOM      6  C   UNL     1      33.360 -13.735 -23.295  0.00  0.00    +0.056 C 
ATOM      7  C   UNL     1      33.454 -15.636 -24.510  0.00  0.00    +0.132 C 
ATOM      8  C   UNL     1      34.158 -15.999 -22.255  0.00  0.00    +0.005 C 
ATOM      9  C   UNL     1      32.943 -13.456 -24.579  0.00  0.00    +0.066 C 
ATOM     10  C   UNL     1      34.358 -17.330 -22.618  0.00  0.00    +0.021 C 
ATOM     11  C   UNL     1      34.085 -17.714 -23.924  0.00  0.00    +0.100 C 
ATOM     12  H   UNL     1      32.762 -14.704 -26.256  0.00  0.00    +0.154 HD
BRANCH  10  14
ATOM     13  N   UNL     1      36.612 -19.027 -20.181  0.00  0.00    -0.242 NA
ATOM     14  C   UNL     1      34.841 -18.290 -21.653  0.00  0.00    +0.021 C 
ATOM     15  C   UNL     1      34.057 -19.372 -21.263  0.00  0.00    +0.003 C 
ATOM     16  C   UNL     1      36.100 -18.165 -21.087  0.00  0.00    +0.099 C 
ATOM     17  C   UNL     1      34.551 -20.281 -20.334  0.00  0.00    +0.021 C 
ATOM     18  C   UNL     1      35.822 -20.066 -19.827  0.00  0.00    +0.099 C 
ENDBRANCH  10  14
ENDBRANCH   2   6
BRANCH   2  21
ATOM     19  F   UNL     1      33.790 -10.385 -23.710  0.00  0.00    -0.203 F 
ATOM     20  F   UNL     1      31.100 -12.808 -20.641  0.00  0.00    -0.204 F 
ATOM     21  C   UNL     1      32.468 -11.621 -22.179  0.00  0.00    +0.095 C 
ATOM     22  C   UNL     1      31.802  -9.404 -22.872  0.00  0.00    +0.092 C 
ATOM     23  C   UNL     1      32.701 -10.469 -22.931  0.00  0.00    +0.160 C 
ATOM     24  C   UNL     1      31.336 -11.708 -21.369  0.00  0.00    +0.145 C 
ATOM     25  C   UNL     1      30.670  -9.491 -22.061  0.00  0.00    +0.020 C 
ATOM     26  C   UNL     1      30.437 -10.643 -21.310  0.00  0.00    +0.031 C 
BRANCH  22  27
ATOM     27  N   UNL     1      32.040  -8.223 -23.639  0.00  0.00    -0.217 N 
ATOM     28  H   UNL     1      31.544  -8.055 -24.474  0.00  0.00    +0.173 HD
BRANCH  27  29
ATOM     29  S   UNL     1      33.214  -7.103 -23.066  0.00  0.00    +0.054 S 
ATOM     30  O   UNL     1      32.936  -6.820 -21.669  0.00  0.00    -0.154 OA
ATOM     31  O   UNL     1      34.547  -7.488 -23.488  0.00  0.00    -0.154 OA
BRANCH  29  32
ATOM     32  C   UNL     1      32.745  -5.656 -23.989  0.00  0.00    +0.172 C 
ATOM     33  C   UNL     1      33.951  -4.825 -24.366  0.00  0.00    +0.029 C 
ENDBRANCH  29  32
ENDBRANCH  27  29
ENDBRANCH  22  27
ENDBRANCH   2  21
TORSDOF 6
ENDMDL
MODEL 2
REMARK VINA RESULT:     -12.7      3.952      7.069
REMARK  Name = 24180720
REMARK  6 active torsions:
REMARK  status: ('A' for Active; 'I' for Inactive)
REMARK    1  A    between atoms: C_2  and  C_6
REMARK    2  A    between atoms: C_2  and  C_21
REMARK    3  A    between atoms: C_10  and  C_14
REMARK    4  A    between atoms: C_22  and  N_27
REMARK    5  A    between atoms: N_27  and  S_29
REMARK    6  A    between atoms: S_29  and  C_32
REMARK                            x       y       z     vdW  Elec       q    Type
REMARK                         _______ _______ _______ _____ _____    ______ ____
ROOT
ATOM      1  O   UNL     1      36.084 -18.988 -20.651  0.00  0.00    -0.286 OA
ATOM      2  C   UNL     1      34.886 -18.866 -20.969  0.00  0.00    +0.201 C 
ENDROOT
BRANCH   2   6
ATOM      3  N   UNL     1      31.839 -20.641 -20.213  0.00  0.00    -0.297 N 
ATOM      4  N   UNL     1      32.239 -22.083 -18.325  0.00  0.00    -0.229 NA
ATOM      5  C   UNL     1      33.899 -20.599 -19.351  0.00  0.00    +0.036 C 
ATOM      6  C   UNL     1      33.840 -19.697 -20.446  0.00  0.00    +0.056 C 
ATOM      7  C   UNL     1      32.635 -21.171 -19.232  0.00  0.00    +0.132 C 
ATOM      8  C   UNL     1      34.882 -21.006 -18.434  0.00  0.00    +0.005 C 
ATOM      9  C   UNL     1      32.560 -19.744 -20.957  0.00  0.00    +0.066 C 
ATOM     10  C   UNL     1      34.524 -21.949 -17.474  0.00  0.00    +0.021 C 
ATOM     11  C   UNL     1      33.225 -22.438 -17.469  0.00  0.00    +0.100 C 
ATOM     12  H   UNL     1      30.893 -20.869 -20.360  0.00  0.00    +0.154 HD
BRANCH  10  14
ATOM     13  N   UNL     1      35.980 -23.770 -14.564  0.00  0.00    -0.242 NA
ATOM     14  C   UNL     1      35.488 -22.410 -16.501  0.00  0.00    +0.021 C 
ATOM     15  C   UNL     1      36.807 -21.969 -16.535  0.00  0.00    +0.003 C 
ATOM     16  C   UNL     1      35.129 -23.302 -15.504  0.00  0.00    +0.099 C 
ATOM     17  C   UNL     1      37.712 -22.427 -15.584  0.00  0.00    +0.021 C 
ATOM     18  C   UNL     1      37.253 -23.319 -14.628  0.00  0.00    +0.099 C 
ENDBRANCH  10  14
ENDBRANCH   2   6
BRANCH   2  21
ATOM     19  F   UNL     1      34.658 -16.152 -20.249  0.00  0.00    -0.203 F 
ATOM     20  F   UNL     1      34.509 -19.380 -23.724  0.00  0.00    -0.204 F 
ATOM     21  C   UNL     1      34.591 -17.788 -21.963  0.00  0.00    +0.095 C 
ATOM     22  C   UNL     1      34.215 -15.456 -22.471  0.00  0.00    +0.092 C 
ATOM     23  C   UNL     1      34.490 -16.461 -21.544  0.00  0.00    +0.160 C 
ATOM     24  C   UNL     1      34.416 -18.109 -23.309  0.00  0.00    +0.145 C 
ATOM     25  C   UNL     1      34.039 -15.778 -23.817  0.00  0.00    +0.020 C 
ATOM     26  C   UNL     1      34.140 -17.105 -24.236  0.00  0.00    +0.031 C 
BRANCH  22  27
ATOM     27  N   UNL     1      34.110 -14.098 -22.044  0.00  0.00    -0.217 N 
ATOM     28  H   UNL     1      34.617 -13.772 -21.265  0.00  0.00    +0.173 HD
BRANCH  27  29
ATOM     29  S   UNL     1      33.075 -13.045 -22.929  0.00  0.00    +0.054 S 
ATOM     30  O   UNL     1      33.806 -11.827 -23.229  0.00  0.00    -0.154 OA
ATOM     31  O   UNL     1      32.379 -13.763 -23.979  0.00  0.00    -0.154 OA
BRANCH  29  32
ATOM     32  C   UNL     1      31.888 -12.637 -21.668  0.00  0.00    +0.172 C 
ATOM     33  C   UNL     1      32.114 -13.449 -20.412  0.00  0.00    +0.029 C 
ENDBRANCH  29  32
ENDBRANCH  27  29
ENDBRANCH  22  27
ENDBRANCH   2  21
TORSDOF 6
ENDMDL
MODEL 3
REMARK VINA RESULT:     -12.3      6.849     11.162
REMARK  Name = 24180720
REMARK  6 active torsions:
REMARK  status: ('A' for Active; 'I' for Inactive)
REMARK    1  A    between atoms: C_2  and  C_6
REMARK    2  A    between atoms: C_2  and  C_21
REMARK    3  A    between atoms: C_10  and  C_14
REMARK    4  A    between atoms: C_22  and  N_27
REMARK    5  A    between atoms: N_27  and  S_29
REMARK    6  A    between atoms: S_29  and  C_32
REMARK                            x       y       z     vdW  Elec       q    Type
REMARK                         _______ _______ _______ _____ _____    ______ ____
ROOT
ATOM      1  O   UNL     1      33.147 -23.866 -18.972  0.00  0.00    -0.286 OA
ATOM      2  C   UNL     1      33.248 -22.874 -18.226  0.00  0.00    +0.201 C 
ENDROOT
BRANCH   2   6
ATOM      3  N   UNL     1      30.900 -22.258 -15.558  0.00  0.00    -0.297 N 
ATOM      4  N   UNL     1      31.911 -22.927 -13.476  0.00  0.00    -0.229 NA
ATOM      5  C   UNL     1      32.973 -23.081 -15.681  0.00  0.00    +0.036 C 
ATOM      6  C   UNL     1      32.535 -22.740 -16.988  0.00  0.00    +0.056 C 
ATOM      7  C   UNL     1      31.930 -22.767 -14.813  0.00  0.00    +0.132 C 
ATOM      8  C   UNL     1      34.140 -23.623 -15.121  0.00  0.00    +0.005 C 
ATOM      9  C   UNL     1      31.255 -22.236 -16.881  0.00  0.00    +0.066 C 
ATOM     10  C   UNL     1      34.173 -23.808 -13.740  0.00  0.00    +0.021 C 
ATOM     11  C   UNL     1      33.060 -23.452 -12.991  0.00  0.00    +0.100 C 
ATOM     12  H   UNL     1      30.036 -21.953 -15.198  0.00  0.00    +0.154 HD
BRANCH  10  14
ATOM     13  N   UNL     1      36.448 -25.075 -11.071  0.00  0.00    -0.242 NA
ATOM     14  C   UNL     1      35.345 -24.362 -13.101  0.00  0.00    +0.021 C 
ATOM     15  C   UNL     1      36.470 -24.707 -13.842  0.00  0.00    +0.003 C 
ATOM     16  C   UNL     1      35.385 -24.563 -11.731  0.00  0.00    +0.099 C 
ATOM     17  C   UNL     1      37.584 -25.235 -13.198  0.00  0.00    +0.021 C 
ATOM     18  C   UNL     1      37.523 -25.398 -11.824  0.00  0.00    +0.099 C 
ENDBRANCH  10  14
ENDBRANCH   2   6
BRANCH   2  21
ATOM     19  F   UNL     1      32.562 -21.119 -20.321  0.00  0.00    -0.203 F 
ATOM     20  F   UNL     1      35.810 -22.425 -17.116  0.00  0.00    -0.204 F 
ATOM     21  C   UNL     1      34.164 -21.795 -18.709  0.00  0.00    +0.095 C 
ATOM     22  C   UNL     1      34.621 -19.951 -20.203  0.00  0.00    +0.092 C 
ATOM     23  C   UNL     1      33.766 -20.957 -19.752  0.00  0.00    +0.160 C 
ATOM     24  C   UNL     1      35.416 -21.626 -18.118  0.00  0.00    +0.145 C 
ATOM     25  C   UNL     1      35.873 -19.783 -19.611  0.00  0.00    +0.020 C 
ATOM     26  C   UNL     1      36.270 -20.621 -18.569  0.00  0.00    +0.031 C 
BRANCH  22  27
ATOM     27  N   UNL     1      34.217 -19.093 -21.270  0.00  0.00    -0.217 N 
ATOM     28  H   UNL     1      33.418 -19.298 -21.809  0.00  0.00    +0.173 HD
BRANCH  27  29
ATOM     29  S   UNL     1      35.164 -17.691 -21.589  0.00  0.00    +0.054 S 
ATOM     30  O   UNL     1      34.916 -16.721 -20.538  0.00  0.00    -0.154 OA
ATOM     31  O   UNL     1      36.520 -18.053 -21.952  0.00  0.00    -0.154 OA
BRANCH  29  32
ATOM     32  C   UNL     1      34.349 -17.088 -23.051  0.00  0.00    +0.172 C 
ATOM     33  C   UNL     1      34.316 -15.577 -23.084  0.00  0.00    +0.029 C 
ENDBRANCH  29  32
ENDBRANCH  27  29
ENDBRANCH  22  27
ENDBRANCH   2  21
TORSDOF 6
ENDMDL
MODEL 4
REMARK VINA RESULT:     -11.4      4.795     10.143
REMARK  Name = 24180720
REMARK  6 active torsions:
REMARK  status: ('A' for Active; 'I' for Inactive)
REMARK    1  A    between atoms: C_2  and  C_6
REMARK    2  A    between atoms: C_2  and  C_21
REMARK    3  A    between atoms: C_10  and  C_14
REMARK    4  A    between atoms: C_22  and  N_27
REMARK    5  A    between atoms: N_27  and  S_29
REMARK    6  A    between atoms: S_29  and  C_32
REMARK                            x       y       z     vdW  Elec       q    Type
REMARK                         _______ _______ _______ _____ _____    ______ ____
ROOT
ATOM      1  O   UNL     1      34.641 -16.309 -20.292  0.00  0.00    -0.286 OA
ATOM      2  C   UNL     1      34.594 -17.176 -21.185  0.00  0.00    +0.201 C 
ENDROOT
BRANCH   2   6
ATOM      3  N   UNL     1      34.059 -17.158 -24.752  0.00  0.00    -0.297 N 
ATOM      4  N   UNL     1      33.199 -14.999 -25.388  0.00  0.00    -0.229 NA
ATOM      5  C   UNL     1      33.778 -15.677 -23.104  0.00  0.00    +0.036 C 
ATOM      6  C   UNL     1      34.288 -16.883 -22.556  0.00  0.00    +0.056 C 
ATOM      7  C   UNL     1      33.647 -15.881 -24.475  0.00  0.00    +0.132 C 
ATOM      8  C   UNL     1      33.406 -14.421 -22.599  0.00  0.00    +0.005 C 
ATOM      9  C   UNL     1      34.451 -17.777 -23.593  0.00  0.00    +0.066 C 
ATOM     10  C   UNL     1      32.935 -13.470 -23.503  0.00  0.00    +0.021 C 
ATOM     11  C   UNL     1      32.856 -13.808 -24.847  0.00  0.00    +0.100 C 
ATOM     12  H   UNL     1      34.072 -17.568 -25.646  0.00  0.00    +0.154 HD
BRANCH  10  14
ATOM     13  N   UNL     1      32.736  -9.756 -23.242  0.00  0.00    -0.242 NA
ATOM     14  C   UNL     1      32.537 -12.158 -23.048  0.00  0.00    +0.021 C 
ATOM     15  C   UNL     1      31.614 -12.006 -22.018  0.00  0.00    +0.003 C 
ATOM     16  C   UNL     1      33.064 -11.012 -23.621  0.00  0.00    +0.099 C 
ATOM     17  C   UNL     1      31.252 -10.729 -21.601  0.00  0.00    +0.021 C 
ATOM     18  C   UNL     1      31.836  -9.648 -22.239  0.00  0.00    +0.099 C 
ENDBRANCH  10  14
ENDBRANCH   2   6
BRANCH   2  21
ATOM     19  F   UNL     1      32.557 -18.934 -20.352  0.00  0.00    -0.203 F 
ATOM     20  F   UNL     1      37.197 -18.279 -21.103  0.00  0.00    -0.204 F 
ATOM     21  C   UNL     1      34.868 -18.576 -20.737  0.00  0.00    +0.095 C 
ATOM     22  C   UNL     1      34.071 -20.705 -19.918  0.00  0.00    +0.092 C 
ATOM     23  C   UNL     1      33.815 -19.399 -20.336  0.00  0.00    +0.160 C 
ATOM     24  C   UNL     1      36.176 -19.060 -20.721  0.00  0.00    +0.145 C 
ATOM     25  C   UNL     1      35.380 -21.188 -19.902  0.00  0.00    +0.020 C 
ATOM     26  C   UNL     1      36.432 -20.366 -20.303  0.00  0.00    +0.031 C 
BRANCH  22  27
ATOM     27  N   UNL     1      32.996 -21.549 -19.507  0.00  0.00    -0.217 N 
ATOM     28  H   UNL     1      32.138 -21.547 -19.991  0.00  0.00    +0.173 HD
BRANCH  27  29
ATOM     29  S   UNL     1      33.239 -22.569 -18.141  0.00  0.00    +0.054 S 
ATOM     30  O   UNL     1      33.146 -23.950 -18.579  0.00  0.00    -0.154 OA
ATOM     31  O   UNL     1      34.371 -22.120 -17.354  0.00  0.00    -0.154 OA
BRANCH  29  32
ATOM     32  C   UNL     1      31.759 -22.219 -17.219  0.00  0.00    +0.172 C 
ATOM     33  C   UNL     1      31.723 -22.985 -15.916  0.00  0.00    +0.029 C 
ENDBRANCH  29  32
ENDBRANCH  27  29
ENDBRANCH  22  27
ENDBRANCH   2  21
TORSDOF 6
ENDMDL
MODEL 5
REMARK VINA RESULT:     -11.0      4.971     10.225
REMARK  Name = 24180720
REMARK  6 active torsions:
REMARK  status: ('A' for Active; 'I' for Inactive)
REMARK    1  A    between atoms: C_2  and  C_6
REMARK    2  A    between atoms: C_2  and  C_21
REMARK    3  A    between atoms: C_10  and  C_14
REMARK    4  A    between atoms: C_22  and  N_27
REMARK    5  A    between atoms: N_27  and  S_29
REMARK    6  A    between atoms: S_29  and  C_32
REMARK                            x       y       z     vdW  Elec       q    Type
REMARK                         _______ _______ _______ _____ _____    ______ ____
ROOT
ATOM      1  O   UNL     1      35.689 -17.443 -20.459  0.00  0.00    -0.286 OA
ATOM      2  C   UNL     1      34.995 -18.269 -21.081  0.00  0.00    +0.201 C 
ENDROOT
BRANCH   2   6
ATOM      3  N   UNL     1      34.063 -18.512 -24.557  0.00  0.00    -0.297 N 
ATOM      4  N   UNL     1      33.246 -16.365 -25.285  0.00  0.00    -0.229 NA
ATOM      5  C   UNL     1      34.044 -16.886 -23.026  0.00  0.00    +0.036 C 
ATOM      6  C   UNL     1      34.551 -18.072 -22.431  0.00  0.00    +0.056 C 
ATOM      7  C   UNL     1      33.750 -17.194 -24.351  0.00  0.00    +0.132 C 
ATOM      8  C   UNL     1      33.795 -15.573 -22.596  0.00  0.00    +0.005 C 
ATOM      9  C   UNL     1      34.551 -19.056 -23.398  0.00  0.00    +0.066 C 
ATOM     10  C   UNL     1      33.274 -14.674 -23.524  0.00  0.00    +0.021 C 
ATOM     11  C   UNL     1      33.027 -15.115 -24.816  0.00  0.00    +0.100 C 
ATOM     12  H   UNL     1      33.954 -18.994 -25.408  0.00  0.00    +0.154 HD
BRANCH  10  14
ATOM     13  N   UNL     1      33.203 -10.947 -23.630  0.00  0.00    -0.242 NA
ATOM     14  C   UNL     1      32.996 -13.307 -23.146  0.00  0.00    +0.021 C 
ATOM     15  C   UNL     1      32.288 -13.014 -21.984  0.00  0.00    +0.003 C 
ATOM     16  C   UNL     1      33.427 -12.247 -23.927  0.00  0.00    +0.099 C 
ATOM     17  C   UNL     1      32.038 -11.689 -21.646  0.00  0.00    +0.021 C 
ATOM     18  C   UNL     1      32.512 -10.702 -22.494  0.00  0.00    +0.099 C 
ENDBRANCH  10  14
ENDBRANCH   2   6
BRANCH   2  21
ATOM     19  F   UNL     1      36.831 -19.667 -19.464  0.00  0.00    -0.203 F 
ATOM     20  F   UNL     1      32.401 -19.395 -21.145  0.00  0.00    -0.204 F 
ATOM     21  C   UNL     1      34.626 -19.503 -20.320  0.00  0.00    +0.095 C 
ATOM     22  C   UNL     1      35.238 -21.302 -18.827  0.00  0.00    +0.092 C 
ATOM     23  C   UNL     1      35.581 -20.151 -19.536  0.00  0.00    +0.160 C 
ATOM     24  C   UNL     1      33.328 -20.007 -20.395  0.00  0.00    +0.145 C 
ATOM     25  C   UNL     1      33.939 -21.805 -18.902  0.00  0.00    +0.020 C 
ATOM     26  C   UNL     1      32.984 -21.158 -19.686  0.00  0.00    +0.031 C 
BRANCH  22  27
ATOM     27  N   UNL     1      36.214 -21.967 -18.025  0.00  0.00    -0.217 N 
ATOM     28  H   UNL     1      36.730 -22.726 -18.382  0.00  0.00    +0.173 HD
BRANCH  27  29
ATOM     29  S   UNL     1      36.465 -21.405 -16.417  0.00  0.00    +0.054 S 
ATOM     30  O   UNL     1      37.090 -20.096 -16.481  0.00  0.00    -0.154 OA
ATOM     31  O   UNL     1      35.284 -21.618 -15.604  0.00  0.00    -0.154 OA
BRANCH  29  32
ATOM     32  C   UNL     1      37.715 -22.548 -15.876  0.00  0.00    +0.172 C 
ATOM     33  C   UNL     1      37.183 -23.493 -14.822  0.00  0.00    +0.029 C 
ENDBRANCH  29  32
ENDBRANCH  27  29
ENDBRANCH  22  27
ENDBRANCH   2  21
TORSDOF 6
ENDMDL
MODEL 6
REMARK VINA RESULT:     -11.0      7.969     11.809
REMARK  Name = 24180720
REMARK  6 active torsions:
REMARK  status: ('A' for Active; 'I' for Inactive)
REMARK    1  A    between atoms: C_2  and  C_6
REMARK    2  A    between atoms: C_2  and  C_21
REMARK    3  A    between atoms: C_10  and  C_14
REMARK    4  A    between atoms: C_22  and  N_27
REMARK    5  A    between atoms: N_27  and  S_29
REMARK    6  A    between atoms: S_29  and  C_32
REMARK                            x       y       z     vdW  Elec       q    Type
REMARK                         _______ _______ _______ _____ _____    ______ ____
ROOT
ATOM      1  O   UNL     1      33.218 -23.108 -19.394  0.00  0.00    -0.286 OA
ATOM      2  C   UNL     1      33.590 -22.443 -18.410  0.00  0.00    +0.201 C 
ENDROOT
BRANCH   2   6
ATOM      3  N   UNL     1      36.615 -20.561 -17.848  0.00  0.00    -0.297 N 
ATOM      4  N   UNL     1      36.834 -18.919 -19.597  0.00  0.00    -0.229 NA
ATOM      5  C   UNL     1      34.996 -20.528 -19.386  0.00  0.00    +0.036 C 
ATOM      6  C   UNL     1      34.710 -21.547 -18.438  0.00  0.00    +0.056 C 
ATOM      7  C   UNL     1      36.190 -19.932 -18.988  0.00  0.00    +0.132 C 
ATOM      8  C   UNL     1      34.380 -20.032 -20.545  0.00  0.00    +0.005 C 
ATOM      9  C   UNL     1      35.724 -21.544 -17.504  0.00  0.00    +0.066 C 
ATOM     10  C   UNL     1      35.006 -18.982 -21.215  0.00  0.00    +0.021 C 
ATOM     11  C   UNL     1      36.197 -18.481 -20.708  0.00  0.00    +0.100 C 
ATOM     12  H   UNL     1      37.436 -20.340 -17.351  0.00  0.00    +0.154 HD
BRANCH  10  14
ATOM     13  N   UNL     1      34.018 -16.492 -23.808  0.00  0.00    -0.242 NA
ATOM     14  C   UNL     1      34.424 -18.425 -22.415  0.00  0.00    +0.021 C 
ATOM     15  C   UNL     1      33.728 -19.228 -23.313  0.00  0.00    +0.003 C 
ATOM     16  C   UNL     1      34.538 -17.076 -22.706  0.00  0.00    +0.099 C 
ATOM     17  C   UNL     1      33.176 -18.663 -24.458  0.00  0.00    +0.021 C 
ATOM     18  C   UNL     1      33.348 -17.303 -24.658  0.00  0.00    +0.099 C 
ENDBRANCH  10  14
ENDBRANCH   2   6
BRANCH   2  21
ATOM     19  F   UNL     1      30.947 -21.514 -18.116  0.00  0.00    -0.203 F 
ATOM     20  F   UNL     1      34.615 -23.788 -16.142  0.00  0.00    -0.204 F 
ATOM     21  C   UNL     1      32.796 -22.646 -17.159  0.00  0.00    +0.095 C 
ATOM     22  C   UNL     1      30.750 -22.350 -15.908  0.00  0.00    +0.092 C 
ATOM     23  C   UNL     1      31.491 -22.161 -17.075  0.00  0.00    +0.160 C 
ATOM     24  C   UNL     1      33.361 -23.319 -16.075  0.00  0.00    +0.145 C 
ATOM     25  C   UNL     1      31.316 -23.023 -14.824  0.00  0.00    +0.020 C 
ATOM     26  C   UNL     1      32.621 -23.507 -14.908  0.00  0.00    +0.031 C 
BRANCH  22  27
ATOM     27  N   UNL     1      29.414 -21.854 -15.819  0.00  0.00    -0.217 N 
ATOM     28  H   UNL     1      29.239 -20.906 -15.619  0.00  0.00    +0.173 HD
BRANCH  27  29
ATOM     29  S   UNL     1      28.119 -22.959 -16.072  0.00  0.00    +0.054 S 
ATOM     30  O   UNL     1      27.977 -23.181 -17.500  0.00  0.00    -0.154 OA
ATOM     31  O   UNL     1      28.208 -24.080 -15.158  0.00  0.00    -0.154 OA
BRANCH  29  32
ATOM     32  C   UNL     1      26.743 -21.950 -15.568  0.00  0.00    +0.172 C 
ATOM     33  C   UNL     1      26.017 -21.367 -16.760  0.00  0.00    +0.029 C 
ENDBRANCH  29  32
ENDBRANCH  27  29
ENDBRANCH  22  27
ENDBRANCH   2  21
TORSDOF 6
ENDMDL
MODEL 7
REMARK VINA RESULT:     -11.0      9.035     14.016
REMARK  Name = 24180720
REMARK  6 active torsions:
REMARK  status: ('A' for Active; 'I' for Inactive)
REMARK    1  A    between atoms: C_2  and  C_6
REMARK    2  A    between atoms: C_2  and  C_21
REMARK    3  A    between atoms: C_10  and  C_14
REMARK    4  A    between atoms: C_22  and  N_27
REMARK    5  A    between atoms: N_27  and  S_29
REMARK    6  A    between atoms: S_29  and  C_32
REMARK                            x       y       z     vdW  Elec       q    Type
REMARK                         _______ _______ _______ _____ _____    ______ ____
ROOT
ATOM      1  O   UNL     1      37.707 -21.216 -16.312  0.00  0.00    -0.286 OA
ATOM      2  C   UNL     1      36.956 -22.107 -15.873  0.00  0.00    +0.201 C 
ENDROOT
BRANCH   2   6
ATOM      3  N   UNL     1      33.575 -23.174 -16.534  0.00  0.00    -0.297 N 
ATOM      4  N   UNL     1      32.808 -22.092 -18.546  0.00  0.00    -0.229 NA
ATOM      5  C   UNL     1      35.024 -21.802 -17.537  0.00  0.00    +0.036 C 
ATOM      6  C   UNL     1      35.636 -22.349 -16.378  0.00  0.00    +0.056 C 
ATOM      7  C   UNL     1      33.741 -22.337 -17.606  0.00  0.00    +0.132 C 
ATOM      8  C   UNL     1      35.407 -20.907 -18.549  0.00  0.00    +0.005 C 
ATOM      9  C   UNL     1      34.720 -23.190 -15.781  0.00  0.00    +0.066 C 
ATOM     10  C   UNL     1      34.479 -20.619 -19.547  0.00  0.00    +0.021 C 
ATOM     11  C   UNL     1      33.231 -21.225 -19.494  0.00  0.00    +0.100 C 
ATOM     12  H   UNL     1      32.759 -23.687 -16.336  0.00  0.00    +0.154 HD
BRANCH  10  14
ATOM     13  N   UNL     1      34.140 -18.567 -22.641  0.00  0.00    -0.242 NA
ATOM     14  C   UNL     1      34.810 -19.707 -20.618  0.00  0.00    +0.021 C 
ATOM     15  C   UNL     1      36.061 -19.102 -20.682  0.00  0.00    +0.003 C 
ATOM     16  C   UNL     1      33.894 -19.409 -21.613  0.00  0.00    +0.099 C 
ATOM     17  C   UNL     1      36.352 -18.230 -21.726  0.00  0.00    +0.021 C 
ATOM     18  C   UNL     1      35.366 -17.998 -22.671  0.00  0.00    +0.099 C 
ENDBRANCH  10  14
ENDBRANCH   2   6
BRANCH   2  21
ATOM     19  F   UNL     1      36.136 -21.783 -13.197  0.00  0.00    -0.203 F 
ATOM     20  F   UNL     1      38.923 -24.103 -16.259  0.00  0.00    -0.204 F 
ATOM     21  C   UNL     1      37.515 -22.924 -14.751  0.00  0.00    +0.095 C 
ATOM     22  C   UNL     1      37.589 -23.477 -12.400  0.00  0.00    +0.092 C 
ATOM     23  C   UNL     1      37.068 -22.716 -13.446  0.00  0.00    +0.160 C 
ATOM     24  C   UNL     1      38.484 -23.894 -15.010  0.00  0.00    +0.145 C 
ATOM     25  C   UNL     1      38.558 -24.447 -12.659  0.00  0.00    +0.020 C 
ATOM     26  C   UNL     1      39.005 -24.655 -13.964  0.00  0.00    +0.031 C 
BRANCH  22  27
ATOM     27  N   UNL     1      37.134 -23.265 -11.064  0.00  0.00    -0.217 N 
ATOM     28  H   UNL     1      37.581 -22.616 -10.474  0.00  0.00    +0.173 HD
BRANCH  27  29
ATOM     29  S   UNL     1      35.780 -24.175 -10.512  0.00  0.00    +0.054 S 
ATOM     30  O   UNL     1      35.858 -25.507 -11.085  0.00  0.00    -0.154 OA
ATOM     31  O   UNL     1      35.582 -23.997  -9.087  0.00  0.00    -0.154 OA
BRANCH  29  32
ATOM     32  C   UNL     1      34.465 -23.326 -11.357  0.00  0.00    +0.172 C 
ATOM     33  C   UNL     1      33.883 -24.172 -12.468  0.00  0.00    +0.029 C 
ENDBRANCH  29  32
ENDBRANCH  27  29
ENDBRANCH  22  27
ENDBRANCH   2  21
TORSDOF 6
ENDMDL
MODEL 8
REMARK VINA RESULT:     -10.9      7.229     11.297
REMARK  Name = 24180720
REMARK  6 active torsions:
REMARK  status: ('A' for Active; 'I' for Inactive)
REMARK    1  A    between atoms: C_2  and  C_6
REMARK    2  A    between atoms: C_2  and  C_21
REMARK    3  A    between atoms: C_10  and  C_14
REMARK    4  A    between atoms: C_22  and  N_27
REMARK    5  A    between atoms: N_27  and  S_29
REMARK    6  A    between atoms: S_29  and  C_32
REMARK                            x       y       z     vdW  Elec       q    Type
REMARK                         _______ _______ _______ _____ _____    ______ ____
ROOT
ATOM      1  O   UNL     1      33.301 -24.095 -18.394  0.00  0.00    -0.286 OA
ATOM      2  C   UNL     1      33.271 -23.013 -17.780  0.00  0.00    +0.201 C 
ENDROOT
BRANCH   2   6
ATOM      3  N   UNL     1      32.276 -22.509 -14.350  0.00  0.00    -0.297 N 
ATOM      4  N   UNL     1      34.105 -23.148 -12.918  0.00  0.00    -0.229 NA
ATOM      5  C   UNL     1      34.123 -23.245 -15.367  0.00  0.00    +0.036 C 
ATOM      6  C   UNL     1      33.155 -22.915 -16.353  0.00  0.00    +0.056 C 
ATOM      7  C   UNL     1      33.544 -22.980 -14.130  0.00  0.00    +0.132 C 
ATOM      8  C   UNL     1      35.435 -23.743 -15.374  0.00  0.00    +0.005 C 
ATOM      9  C   UNL     1      32.028 -22.465 -15.697  0.00  0.00    +0.066 C 
ATOM     10  C   UNL     1      36.064 -23.935 -14.146  0.00  0.00    +0.021 C 
ATOM     11  C   UNL     1      35.368 -23.629 -12.984  0.00  0.00    +0.100 C 
ATOM     12  H   UNL     1      31.641 -22.242 -13.647  0.00  0.00    +0.154 HD
BRANCH  10  14
ATOM     13  N   UNL     1      39.031 -25.884 -13.007  0.00  0.00    -0.242 NA
ATOM     14  C   UNL     1      37.415 -24.444 -14.083  0.00  0.00    +0.021 C 
ATOM     15  C   UNL     1      38.384 -24.018 -14.985  0.00  0.00    +0.003 C 
ATOM     16  C   UNL     1      37.787 -25.370 -13.122  0.00  0.00    +0.099 C 
ATOM     17  C   UNL     1      39.677 -24.524 -14.898  0.00  0.00    +0.021 C 
ATOM     18  C   UNL     1      39.947 -25.446 -13.901  0.00  0.00    +0.099 C 
ENDBRANCH  10  14
ENDBRANCH   2   6
BRANCH   2  21
ATOM     19  F   UNL     1      35.711 -21.984 -18.742  0.00  0.00    -0.203 F 
ATOM     20  F   UNL     1      30.990 -21.534 -18.560  0.00  0.00    -0.204 F 
ATOM     21  C   UNL     1      33.351 -21.787 -18.633  0.00  0.00    +0.095 C 
ATOM     22  C   UNL     1      34.665 -20.183 -19.874  0.00  0.00    +0.092 C 
ATOM     23  C   UNL     1      34.590 -21.326 -19.079  0.00  0.00    +0.160 C 
ATOM     24  C   UNL     1      32.187 -21.103 -18.982  0.00  0.00    +0.145 C 
ATOM     25  C   UNL     1      33.500 -19.499 -20.223  0.00  0.00    +0.020 C 
ATOM     26  C   UNL     1      32.261 -19.959 -19.777  0.00  0.00    +0.031 C 
BRANCH  22  27
ATOM     27  N   UNL     1      35.932 -19.709 -20.330  0.00  0.00    -0.217 N 
ATOM     28  H   UNL     1      36.764 -20.181 -20.093  0.00  0.00    +0.173 HD
BRANCH  27  29
ATOM     29  S   UNL     1      35.966 -18.293 -21.308  0.00  0.00    +0.054 S 
ATOM     30  O   UNL     1      35.325 -17.215 -20.577  0.00  0.00    -0.154 OA
ATOM     31  O   UNL     1      37.276 -18.104 -21.901  0.00  0.00    -0.154 OA
BRANCH  29  32
ATOM     32  C   UNL     1      34.846 -18.777 -22.602  0.00  0.00    +0.172 C 
ATOM     33  C   UNL     1      34.242 -17.574 -23.291  0.00  0.00    +0.029 C 
ENDBRANCH  29  32
ENDBRANCH  27  29
ENDBRANCH  22  27
ENDBRANCH   2  21
TORSDOF 6
ENDMDL
MODEL 9
REMARK VINA RESULT:     -10.8      8.026     12.355
REMARK  Name = 24180720
REMARK  6 active torsions:
REMARK  status: ('A' for Active; 'I' for Inactive)
REMARK    1  A    between atoms: C_2  and  C_6
REMARK    2  A    between atoms: C_2  and  C_21
REMARK    3  A    between atoms: C_10  and  C_14
REMARK    4  A    between atoms: C_22  and  N_27
REMARK    5  A    between atoms: N_27  and  S_29
REMARK    6  A    between atoms: S_29  and  C_32
REMARK                            x       y       z     vdW  Elec       q    Type
REMARK                         _______ _______ _______ _____ _____    ______ ____
ROOT
ATOM      1  O   UNL     1      33.389 -23.050 -19.475  0.00  0.00    -0.286 OA
ATOM      2  C   UNL     1      33.771 -22.384 -18.495  0.00  0.00    +0.201 C 
ENDROOT
BRANCH   2   6
ATOM      3  N   UNL     1      36.736 -20.390 -17.999  0.00  0.00    -0.297 N 
ATOM      4  N   UNL     1      36.865 -18.754 -19.763  0.00  0.00    -0.229 NA
ATOM      5  C   UNL     1      35.090 -20.427 -19.508  0.00  0.00    +0.036 C 
ATOM      6  C   UNL     1      34.857 -21.448 -18.549  0.00  0.00    +0.056 C 
ATOM      7  C   UNL     1      36.268 -19.786 -19.136  0.00  0.00    +0.132 C 
ATOM      8  C   UNL     1      34.437 -19.962 -20.660  0.00  0.00    +0.005 C 
ATOM      9  C   UNL     1      35.887 -21.402 -17.633  0.00  0.00    +0.066 C 
ATOM     10  C   UNL     1      35.013 -18.895 -21.348  0.00  0.00    +0.021 C 
ATOM     11  C   UNL     1      36.193 -18.348 -20.865  0.00  0.00    +0.100 C 
ATOM     12  H   UNL     1      37.556 -20.136 -17.518  0.00  0.00    +0.154 HD
BRANCH  10  14
ATOM     13  N   UNL     1      33.938 -16.471 -23.969  0.00  0.00    -0.242 NA
ATOM     14  C   UNL     1      34.390 -18.368 -22.541  0.00  0.00    +0.021 C 
ATOM     15  C   UNL     1      33.663 -19.193 -23.394  0.00  0.00    +0.003 C 
ATOM     16  C   UNL     1      34.496 -17.027 -22.871  0.00  0.00    +0.099 C 
ATOM     17  C   UNL     1      33.074 -18.657 -24.534  0.00  0.00    +0.021 C 
ATOM     18  C   UNL     1      33.239 -17.303 -24.774  0.00  0.00    +0.099 C 
ENDBRANCH  10  14
ENDBRANCH   2   6
BRANCH   2  21
ATOM     19  F   UNL     1      34.849 -23.883 -16.366  0.00  0.00    -0.203 F 
ATOM     20  F   UNL     1      31.168 -21.385 -18.020  0.00  0.00    -0.204 F 
ATOM     21  C   UNL     1      33.028 -22.629 -17.220  0.00  0.00    +0.095 C 
ATOM     22  C   UNL     1      32.922 -23.610 -15.015  0.00  0.00    +0.092 C 
ATOM     23  C   UNL     1      33.616 -23.381 -16.203  0.00  0.00    +0.160 C 
ATOM     24  C   UNL     1      31.745 -22.107 -17.050  0.00  0.00    +0.145 C 
ATOM     25  C   UNL     1      31.639 -23.088 -14.844  0.00  0.00    +0.020 C 
ATOM     26  C   UNL     1      31.051 -22.336 -15.862  0.00  0.00    +0.031 C 
BRANCH  22  27
ATOM     27  N   UNL     1      33.521 -24.379 -13.972  0.00  0.00    -0.217 N 
ATOM     28  H   UNL     1      33.284 -25.326 -13.842  0.00  0.00    +0.173 HD
BRANCH  27  29
ATOM     29  S   UNL     1      34.670 -23.606 -12.949  0.00  0.00    +0.054 S 
ATOM     30  O   UNL     1      35.259 -22.497 -13.676  0.00  0.00    -0.154 OA
ATOM     31  O   UNL     1      34.129 -23.410 -11.618  0.00  0.00    -0.154 OA
BRANCH  29  32
ATOM     32  C   UNL     1      35.910 -24.878 -12.852  0.00  0.00    +0.172 C 
ATOM     33  C   UNL     1      36.940 -24.732 -13.950  0.00  0.00    +0.029 C 
ENDBRANCH  29  32
ENDBRANCH  27  29
ENDBRANCH  22  27
ENDBRANCH   2  21
TORSDOF 6
ENDMDL
