MODEL 1
REMARK VINA RESULT:     -10.8      0.000      0.000
REMARK  Name = 6323185
REMARK  11 active torsions:
REMARK  status: ('A' for Active; 'I' for Inactive)
REMARK    1  A    between atoms: C_3  and  C_10
REMARK    2  A    between atoms: C_7  and  C_24
REMARK    3  A    between atoms: N_9  and  C_12
REMARK    4  A    between atoms: C_12  and  C_13
REMARK    5  A    between atoms: C_12  and  C_17
REMARK    6  A    between atoms: C_13  and  O_15
REMARK    7  A    between atoms: C_17  and  C_18
REMARK    8  A    between atoms: C_24  and  N_27
REMARK    9  A    between atoms: C_28  and  O_30
REMARK   10  A    between atoms: O_30  and  C_31
REMARK   11  A    between atoms: C_31  and  C_32
REMARK                            x       y       z     vdW  Elec       q    Type
REMARK                         _______ _______ _______ _____ _____    ______ ____
ROOT
ATOM      1  O   UNL     1      34.622 -22.389 -16.708  0.00  0.00    -0.273 OA
ATOM      2  N   UNL     1      32.377 -22.524 -16.165  0.00  0.00    -0.272 N 
ATOM      3  C   UNL     1      32.546 -22.386 -14.724  0.00  0.00    +0.152 C 
ATOM      4  C   UNL     1      31.148 -22.077 -14.198  0.00  0.00    +0.031 C 
ATOM      5  C   UNL     1      30.230 -22.766 -15.205  0.00  0.00    +0.024 C 
ATOM      6  C   UNL     1      30.963 -22.587 -16.526  0.00  0.00    +0.094 C 
ATOM      7  C   UNL     1      33.440 -22.441 -17.050  0.00  0.00    +0.244 C 
ENDROOT
BRANCH   3  10
ATOM      8  O   UNL     1      32.346 -24.700 -14.176  0.00  0.00    -0.273 OA
ATOM      9  N   UNL     1      34.369 -23.619 -13.780  0.00  0.00    -0.302 N 
ATOM     10  C   UNL     1      33.055 -23.698 -14.211  0.00  0.00    +0.241 C 
ATOM     11  H   UNL     1      34.836 -22.757 -13.861  0.00  0.00    +0.150 HD
BRANCH   9  12
ATOM     12  C   UNL     1      35.087 -24.742 -13.221  0.00  0.00    +0.103 C 
BRANCH  12  13
ATOM     13  C   UNL     1      36.012 -24.281 -12.076  0.00  0.00    +0.129 C 
ATOM     14  C   UNL     1      35.995 -22.770 -11.866  0.00  0.00    +0.033 C 
BRANCH  13  15
ATOM     15  O   UNL     1      35.635 -24.925 -10.860  0.00  0.00    -0.383 OA
ATOM     16  H   UNL     1      34.753 -24.620 -10.594  0.00  0.00    +0.210 HD
ENDBRANCH  13  15
ENDBRANCH  12  13
BRANCH  12  17
ATOM     17  C   UNL     1      35.832 -25.473 -14.355  0.00  0.00    +0.048 C 
BRANCH  17  18
ATOM     18  C   UNL     1      37.302 -25.145 -14.432  0.00  0.00    -0.020 C 
ATOM     19  C   UNL     1      37.719 -23.947 -15.013  0.00  0.00    -0.004 C 
ATOM     20  C   UNL     1      38.244 -26.039 -13.924  0.00  0.00    -0.004 C 
ATOM     21  C   UNL     1      39.079 -23.644 -15.086  0.00  0.00    -0.000 C 
ATOM     22  C   UNL     1      39.603 -25.736 -13.996  0.00  0.00    -0.000 C 
ATOM     23  C   UNL     1      40.021 -24.539 -14.577  0.00  0.00    -0.000 C 
ENDBRANCH  17  18
ENDBRANCH  12  17
ENDBRANCH   9  12
ENDBRANCH   3  10
BRANCH   7  24
ATOM     24  C   UNL     1      33.068 -22.428 -18.511  0.00  0.00    +0.151 C 
ATOM     25  C   UNL     1      33.525 -23.698 -19.191  0.00  0.00    +0.031 C 
BRANCH  24  27
ATOM     26  O   UNL     1      31.959 -20.411 -20.282  0.00  0.00    -0.226 OA
ATOM     27  N   UNL     1      33.720 -21.266 -19.034  0.00  0.00    -0.264 N 
ATOM     28  C   UNL     1      33.116 -20.347 -19.879  0.00  0.00    +0.402 C 
ATOM     29  H   UNL     1      34.658 -21.108 -18.777  0.00  0.00    +0.153 HD
BRANCH  28  30
ATOM     30  O   UNL     1      33.997 -19.354 -20.202  0.00  0.00    -0.430 OA
BRANCH  30  31
ATOM     31  C   UNL     1      34.595 -19.447 -21.500  0.00  0.00    +0.237 C 
BRANCH  31  32
ATOM     32  C   UNL     1      34.445 -18.130 -22.203  0.00  0.00    +0.021 C 
ATOM     33  C   UNL     1      34.731 -16.943 -21.529  0.00  0.00    -0.001 C 
ATOM     34  C   UNL     1      34.020 -18.093 -23.531  0.00  0.00    -0.001 C 
ATOM     35  C   UNL     1      34.592 -15.719 -22.182  0.00  0.00    -0.000 C 
ATOM     36  C   UNL     1      33.882 -16.867 -24.184  0.00  0.00    -0.000 C 
ATOM     37  C   UNL     1      34.168 -15.681 -23.510  0.00  0.00    -0.000 C 
ENDBRANCH  31  32
ENDBRANCH  30  31
ENDBRANCH  28  30
ENDBRANCH  24  27
ENDBRANCH   7  24
TORSDOF 11
ENDMDL
MODEL 2
REMARK VINA RESULT:     -10.1      7.876     15.260
REMARK  Name = 6323185
REMARK  11 active torsions:
REMARK  status: ('A' for Active; 'I' for Inactive)
REMARK    1  A    between atoms: C_3  and  C_10
REMARK    2  A    between atoms: C_7  and  C_24
REMARK    3  A    between atoms: N_9  and  C_12
REMARK    4  A    between atoms: C_12  and  C_13
REMARK    5  A    between atoms: C_12  and  C_17
REMARK    6  A    between atoms: C_13  and  O_15
REMARK    7  A    between atoms: C_17  and  C_18
REMARK    8  A    between atoms: C_24  and  N_27
REMARK    9  A    between atoms: C_28  and  O_30
REMARK   10  A    between atoms: O_30  and  C_31
REMARK   11  A    between atoms: C_31  and  C_32
REMARK                            x       y       z     vdW  Elec       q    Type
REMARK                         _______ _______ _______ _____ _____    ______ ____
ROOT
ATOM      1  O   UNL     1      33.488 -11.821 -23.629  0.00  0.00    -0.273 OA
ATOM      2  N   UNL     1      31.902 -11.065 -22.124  0.00  0.00    -0.272 N 
ATOM      3  C   UNL     1      31.440  -9.936 -22.922  0.00  0.00    +0.152 C 
ATOM      4  C   UNL     1      30.128  -9.512 -22.272  0.00  0.00    +0.031 C 
ATOM      5  C   UNL     1      30.312  -9.909 -20.810  0.00  0.00    +0.024 C 
ATOM      6  C   UNL     1      31.123 -11.194 -20.896  0.00  0.00    +0.094 C 
ATOM      7  C   UNL     1      32.850 -11.964 -22.585  0.00  0.00    +0.244 C 
ENDROOT
BRANCH   3  10
ATOM      8  O   UNL     1      33.613  -9.015 -23.276  0.00  0.00    -0.273 OA
ATOM      9  N   UNL     1      32.022  -7.747 -22.146  0.00  0.00    -0.302 N 
ATOM     10  C   UNL     1      32.483  -8.866 -22.819  0.00  0.00    +0.241 C 
ATOM     11  H   UNL     1      31.092  -7.744 -21.826  0.00  0.00    +0.150 HD
BRANCH   9  12
ATOM     12  C   UNL     1      32.841  -6.583 -21.893  0.00  0.00    +0.103 C 
BRANCH  12  13
ATOM     13  C   UNL     1      32.881  -6.262 -20.385  0.00  0.00    +0.129 C 
ATOM     14  C   UNL     1      31.885  -5.181 -19.977  0.00  0.00    +0.033 C 
BRANCH  13  15
ATOM     15  O   UNL     1      32.621  -7.445 -19.632  0.00  0.00    -0.383 OA
ATOM     16  H   UNL     1      33.239  -7.495 -18.885  0.00  0.00    +0.210 HD
ENDBRANCH  13  15
ENDBRANCH  12  13
BRANCH  12  17
ATOM     17  C   UNL     1      32.325  -5.414 -22.755  0.00  0.00    +0.048 C 
BRANCH  17  18
ATOM     18  C   UNL     1      32.841  -5.424 -24.173  0.00  0.00    -0.020 C 
ATOM     19  C   UNL     1      34.149  -5.022 -24.442  0.00  0.00    -0.004 C 
ATOM     20  C   UNL     1      32.010  -5.837 -25.214  0.00  0.00    -0.004 C 
ATOM     21  C   UNL     1      34.626  -5.031 -25.752  0.00  0.00    -0.000 C 
ATOM     22  C   UNL     1      32.485  -5.846 -26.525  0.00  0.00    -0.000 C 
ATOM     23  C   UNL     1      33.793  -5.443 -26.794  0.00  0.00    -0.000 C 
ENDBRANCH  17  18
ENDBRANCH  12  17
ENDBRANCH   9  12
ENDBRANCH   3  10
BRANCH   7  24
ATOM     24  C   UNL     1      33.082 -13.168 -21.708  0.00  0.00    +0.151 C 
ATOM     25  C   UNL     1      33.960 -12.812 -20.530  0.00  0.00    +0.031 C 
BRANCH  24  27
ATOM     26  O   UNL     1      34.369 -15.666 -20.972  0.00  0.00    -0.226 OA
ATOM     27  N   UNL     1      33.698 -14.127 -22.575  0.00  0.00    -0.264 N 
ATOM     28  C   UNL     1      34.294 -15.301 -22.141  0.00  0.00    +0.402 C 
ATOM     29  H   UNL     1      33.698 -13.941 -23.542  0.00  0.00    +0.153 HD
BRANCH  28  30
ATOM     30  O   UNL     1      34.789 -15.999 -23.206  0.00  0.00    -0.430 OA
BRANCH  30  31
ATOM     31  C   UNL     1      34.269 -17.323 -23.380  0.00  0.00    +0.237 C 
BRANCH  31  32
ATOM     32  C   UNL     1      34.780 -18.198 -22.274  0.00  0.00    +0.021 C 
ATOM     33  C   UNL     1      36.119 -18.131 -21.893  0.00  0.00    -0.001 C 
ATOM     34  C   UNL     1      33.914 -19.080 -21.627  0.00  0.00    -0.001 C 
ATOM     35  C   UNL     1      36.594 -18.945 -20.865  0.00  0.00    -0.000 C 
ATOM     36  C   UNL     1      34.389 -19.894 -20.598  0.00  0.00    -0.000 C 
ATOM     37  C   UNL     1      35.728 -19.827 -20.216  0.00  0.00    -0.000 C 
ENDBRANCH  31  32
ENDBRANCH  30  31
ENDBRANCH  28  30
ENDBRANCH  24  27
ENDBRANCH   7  24
TORSDOF 11
ENDMDL
MODEL 3
REMARK VINA RESULT:     -10.0      6.379     13.910
REMARK  Name = 6323185
REMARK  11 active torsions:
REMARK  status: ('A' for Active; 'I' for Inactive)
REMARK    1  A    between atoms: C_3  and  C_10
REMARK    2  A    between atoms: C_7  and  C_24
REMARK    3  A    between atoms: N_9  and  C_12
REMARK    4  A    between atoms: C_12  and  C_13
REMARK    5  A    between atoms: C_12  and  C_17
REMARK    6  A    between atoms: C_13  and  O_15
REMARK    7  A    between atoms: C_17  and  C_18
REMARK    8  A    between atoms: C_24  and  N_27
REMARK    9  A    between atoms: C_28  and  O_30
REMARK   10  A    between atoms: O_30  and  C_31
REMARK   11  A    between atoms: C_31  and  C_32
REMARK                            x       y       z     vdW  Elec       q    Type
REMARK                         _______ _______ _______ _____ _____    ______ ____
ROOT
ATOM      1  O   UNL     1      32.472 -13.673 -24.588  0.00  0.00    -0.273 OA
ATOM      2  N   UNL     1      33.022 -13.743 -22.342  0.00  0.00    -0.272 N 
ATOM      3  C   UNL     1      31.937 -12.888 -21.878  0.00  0.00    +0.152 C 
ATOM      4  C   UNL     1      31.893 -13.102 -20.369  0.00  0.00    +0.031 C 
ATOM      5  C   UNL     1      33.338 -13.447 -20.017  0.00  0.00    +0.024 C 
ATOM      6  C   UNL     1      33.807 -14.252 -21.220  0.00  0.00    +0.094 C 
ATOM      7  C   UNL     1      33.155 -14.124 -23.667  0.00  0.00    +0.244 C 
ENDROOT
BRANCH   3  10
ATOM      8  O   UNL     1      33.209 -11.223 -23.019  0.00  0.00    -0.273 OA
ATOM      9  N   UNL     1      31.530 -10.551 -21.554  0.00  0.00    -0.302 N 
ATOM     10  C   UNL     1      32.303 -11.479 -22.230  0.00  0.00    +0.241 C 
ATOM     11  H   UNL     1      30.830 -10.880 -20.945  0.00  0.00    +0.150 HD
BRANCH   9  12
ATOM     12  C   UNL     1      31.699  -9.123 -21.701  0.00  0.00    +0.103 C 
BRANCH  12  13
ATOM     13  C   UNL     1      31.350  -8.395 -20.386  0.00  0.00    +0.129 C 
ATOM     14  C   UNL     1      31.228  -9.340 -19.194  0.00  0.00    +0.033 C 
BRANCH  13  15
ATOM     15  O   UNL     1      32.340  -7.409 -20.101  0.00  0.00    -0.383 OA
ATOM     16  H   UNL     1      33.101  -7.831 -19.671  0.00  0.00    +0.210 HD
ENDBRANCH  13  15
ENDBRANCH  12  13
BRANCH  12  17
ATOM     17  C   UNL     1      30.869  -8.643 -22.907  0.00  0.00    +0.048 C 
BRANCH  17  18
ATOM     18  C   UNL     1      31.582  -7.643 -23.783  0.00  0.00    -0.020 C 
ATOM     19  C   UNL     1      32.944  -7.402 -23.600  0.00  0.00    -0.004 C 
ATOM     20  C   UNL     1      30.880  -6.960 -24.775  0.00  0.00    -0.004 C 
ATOM     21  C   UNL     1      33.603  -6.477 -24.408  0.00  0.00    -0.000 C 
ATOM     22  C   UNL     1      31.538  -6.035 -25.585  0.00  0.00    -0.000 C 
ATOM     23  C   UNL     1      32.900  -5.793 -25.401  0.00  0.00    -0.000 C 
ENDBRANCH  17  18
ENDBRANCH  12  17
ENDBRANCH   9  12
ENDBRANCH   3  10
BRANCH   7  24
ATOM     24  C   UNL     1      34.225 -15.150 -23.944  0.00  0.00    +0.151 C 
ATOM     25  C   UNL     1      33.828 -16.040 -25.099  0.00  0.00    +0.031 C 
BRANCH  24  27
ATOM     26  O   UNL     1      34.603 -18.008 -23.595  0.00  0.00    -0.226 OA
ATOM     27  N   UNL     1      34.349 -15.875 -22.716  0.00  0.00    -0.264 N 
ATOM     28  C   UNL     1      34.528 -17.248 -22.636  0.00  0.00    +0.402 C 
ATOM     29  H   UNL     1      34.304 -15.367 -21.873  0.00  0.00    +0.153 HD
BRANCH  28  30
ATOM     30  O   UNL     1      34.610 -17.636 -21.328  0.00  0.00    -0.430 OA
BRANCH  30  31
ATOM     31  C   UNL     1      35.470 -18.750 -21.061  0.00  0.00    +0.237 C 
BRANCH  31  32
ATOM     32  C   UNL     1      34.695 -19.797 -20.315  0.00  0.00    +0.021 C 
ATOM     33  C   UNL     1      35.367 -20.741 -19.538  0.00  0.00    -0.001 C 
ATOM     34  C   UNL     1      33.303 -19.827 -20.400  0.00  0.00    -0.001 C 
ATOM     35  C   UNL     1      34.646 -21.714 -18.846  0.00  0.00    -0.000 C 
ATOM     36  C   UNL     1      32.583 -20.800 -19.706  0.00  0.00    -0.000 C 
ATOM     37  C   UNL     1      33.254 -21.744 -18.929  0.00  0.00    -0.000 C 
ENDBRANCH  31  32
ENDBRANCH  30  31
ENDBRANCH  28  30
ENDBRANCH  24  27
ENDBRANCH   7  24
TORSDOF 11
ENDMDL
MODEL 4
REMARK VINA RESULT:      -9.6      6.823     14.581
REMARK  Name = 6323185
REMARK  11 active torsions:
REMARK  status: ('A' for Active; 'I' for Inactive)
REMARK    1  A    between atoms: C_3  and  C_10
REMARK    2  A    between atoms: C_7  and  C_24
REMARK    3  A    between atoms: N_9  and  C_12
REMARK    4  A    between atoms: C_12  and  C_13
REMARK    5  A    between atoms: C_12  and  C_17
REMARK    6  A    between atoms: C_13  and  O_15
REMARK    7  A    between atoms: C_17  and  C_18
REMARK    8  A    between atoms: C_24  and  N_27
REMARK    9  A    between atoms: C_28  and  O_30
REMARK   10  A    between atoms: O_30  and  C_31
REMARK   11  A    between atoms: C_31  and  C_32
REMARK                            x       y       z     vdW  Elec       q    Type
REMARK                         _______ _______ _______ _____ _____    ______ ____
ROOT
ATOM      1  O   UNL     1      32.776 -14.050 -24.714  0.00  0.00    -0.273 OA
ATOM      2  N   UNL     1      33.130 -13.615 -22.469  0.00  0.00    -0.272 N 
ATOM      3  C   UNL     1      32.033 -12.669 -22.308  0.00  0.00    +0.152 C 
ATOM      4  C   UNL     1      31.855 -12.535 -20.800  0.00  0.00    +0.031 C 
ATOM      5  C   UNL     1      33.254 -12.804 -20.252  0.00  0.00    +0.024 C 
ATOM      6  C   UNL     1      33.802 -13.863 -21.197  0.00  0.00    +0.094 C 
ATOM      7  C   UNL     1      33.365 -14.287 -23.658  0.00  0.00    +0.244 C 
ENDROOT
BRANCH   3  10
ATOM      8  O   UNL     1      33.476 -11.303 -23.630  0.00  0.00    -0.273 OA
ATOM      9  N   UNL     1      31.624 -10.329 -22.611  0.00  0.00    -0.302 N 
ATOM     10  C   UNL     1      32.467 -11.379 -22.934  0.00  0.00    +0.241 C 
ATOM     11  H   UNL     1      30.842 -10.515 -22.042  0.00  0.00    +0.150 HD
BRANCH   9  12
ATOM     12  C   UNL     1      31.835  -8.975 -23.070  0.00  0.00    +0.103 C 
BRANCH  12  13
ATOM     13  C   UNL     1      33.087  -8.364 -22.408  0.00  0.00    +0.129 C 
ATOM     14  C   UNL     1      33.998  -7.647 -23.400  0.00  0.00    +0.033 C 
BRANCH  13  15
ATOM     15  O   UNL     1      32.697  -7.449 -21.386  0.00  0.00    -0.383 OA
ATOM     16  H   UNL     1      31.760  -7.223 -21.496  0.00  0.00    +0.210 HD
ENDBRANCH  13  15
ENDBRANCH  12  13
BRANCH  12  17
ATOM     17  C   UNL     1      30.551  -8.159 -22.823  0.00  0.00    +0.048 C 
BRANCH  17  18
ATOM     18  C   UNL     1      30.611  -6.748 -23.354  0.00  0.00    -0.020 C 
ATOM     19  C   UNL     1      30.972  -6.517 -24.681  0.00  0.00    -0.004 C 
ATOM     20  C   UNL     1      30.304  -5.675 -22.518  0.00  0.00    -0.004 C 
ATOM     21  C   UNL     1      31.028  -5.213 -25.172  0.00  0.00    -0.000 C 
ATOM     22  C   UNL     1      30.359  -4.370 -23.008  0.00  0.00    -0.000 C 
ATOM     23  C   UNL     1      30.722  -4.139 -24.335  0.00  0.00    -0.000 C 
ENDBRANCH  17  18
ENDBRANCH  12  17
ENDBRANCH   9  12
ENDBRANCH   3  10
BRANCH   7  24
ATOM     24  C   UNL     1      34.426 -15.357 -23.601  0.00  0.00    +0.151 C 
ATOM     25  C   UNL     1      34.503 -16.106 -24.910  0.00  0.00    +0.031 C 
BRANCH  24  27
ATOM     26  O   UNL     1      35.967 -17.453 -22.310  0.00  0.00    -0.226 OA
ATOM     27  N   UNL     1      34.025 -16.198 -22.514  0.00  0.00    -0.264 N 
ATOM     28  C   UNL     1      34.825 -17.181 -21.953  0.00  0.00    +0.402 C 
ATOM     29  H   UNL     1      33.122 -16.071 -22.141  0.00  0.00    +0.153 HD
BRANCH  28  30
ATOM     30  O   UNL     1      34.158 -17.809 -20.939  0.00  0.00    -0.430 OA
BRANCH  30  31
ATOM     31  C   UNL     1      33.502 -19.033 -21.288  0.00  0.00    +0.237 C 
BRANCH  31  32
ATOM     32  C   UNL     1      33.784 -20.058 -20.230  0.00  0.00    +0.021 C 
ATOM     33  C   UNL     1      32.731 -20.714 -19.594  0.00  0.00    -0.001 C 
ATOM     34  C   UNL     1      35.102 -20.356 -19.882  0.00  0.00    -0.001 C 
ATOM     35  C   UNL     1      32.994 -21.668 -18.610  0.00  0.00    -0.000 C 
ATOM     36  C   UNL     1      35.365 -21.310 -18.898  0.00  0.00    -0.000 C 
ATOM     37  C   UNL     1      34.312 -21.966 -18.262  0.00  0.00    -0.000 C 
ENDBRANCH  31  32
ENDBRANCH  30  31
ENDBRANCH  28  30
ENDBRANCH  24  27
ENDBRANCH   7  24
TORSDOF 11
ENDMDL
MODEL 5
REMARK VINA RESULT:      -9.3      2.705      6.219
REMARK  Name = 6323185
REMARK  11 active torsions:
REMARK  status: ('A' for Active; 'I' for Inactive)
REMARK    1  A    between atoms: C_3  and  C_10
REMARK    2  A    between atoms: C_7  and  C_24
REMARK    3  A    between atoms: N_9  and  C_12
REMARK    4  A    between atoms: C_12  and  C_13
REMARK    5  A    between atoms: C_12  and  C_17
REMARK    6  A    between atoms: C_13  and  O_15
REMARK    7  A    between atoms: C_17  and  C_18
REMARK    8  A    between atoms: C_24  and  N_27
REMARK    9  A    between atoms: C_28  and  O_30
REMARK   10  A    between atoms: O_30  and  C_31
REMARK   11  A    between atoms: C_31  and  C_32
REMARK                            x       y       z     vdW  Elec       q    Type
REMARK                         _______ _______ _______ _____ _____    ______ ____
ROOT
ATOM      1  O   UNL     1      33.677 -22.481 -19.373  0.00  0.00    -0.273 OA
ATOM      2  N   UNL     1      34.616 -22.385 -17.260  0.00  0.00    -0.272 N 
ATOM      3  C   UNL     1      33.778 -23.415 -16.659  0.00  0.00    +0.152 C 
ATOM      4  C   UNL     1      34.481 -23.774 -15.355  0.00  0.00    +0.031 C 
ATOM      5  C   UNL     1      35.198 -22.482 -14.971  0.00  0.00    +0.024 C 
ATOM      6  C   UNL     1      35.618 -21.904 -16.314  0.00  0.00    +0.094 C 
ATOM      7  C   UNL     1      34.539 -22.054 -18.604  0.00  0.00    +0.244 C 
ENDROOT
BRANCH   3  10
ATOM      8  O   UNL     1      31.974 -21.931 -17.149  0.00  0.00    -0.273 OA
ATOM      9  N   UNL     1      31.818 -23.319 -15.287  0.00  0.00    -0.302 N 
ATOM     10  C   UNL     1      32.432 -22.803 -16.415  0.00  0.00    +0.241 C 
ATOM     11  H   UNL     1      32.286 -24.020 -14.778  0.00  0.00    +0.150 HD
BRANCH   9  12
ATOM     12  C   UNL     1      30.522 -22.880 -14.821  0.00  0.00    +0.103 C 
BRANCH  12  13
ATOM     13  C   UNL     1      30.451 -22.928 -13.281  0.00  0.00    +0.129 C 
ATOM     14  C   UNL     1      30.119 -24.316 -12.741  0.00  0.00    +0.033 C 
BRANCH  13  15
ATOM     15  O   UNL     1      31.692 -22.497 -12.726  0.00  0.00    -0.383 OA
ATOM     16  H   UNL     1      32.140 -21.909 -13.355  0.00  0.00    +0.210 HD
ENDBRANCH  13  15
ENDBRANCH  12  13
BRANCH  12  17
ATOM     17  C   UNL     1      29.432 -23.722 -15.512  0.00  0.00    +0.048 C 
BRANCH  17  18
ATOM     18  C   UNL     1      28.184 -22.947 -15.855  0.00  0.00    -0.020 C 
ATOM     19  C   UNL     1      27.464 -22.304 -14.848  0.00  0.00    -0.004 C 
ATOM     20  C   UNL     1      27.752 -22.872 -17.179  0.00  0.00    -0.004 C 
ATOM     21  C   UNL     1      26.309 -21.588 -15.165  0.00  0.00    -0.000 C 
ATOM     22  C   UNL     1      26.598 -22.156 -17.497  0.00  0.00    -0.000 C 
ATOM     23  C   UNL     1      25.877 -21.515 -16.490  0.00  0.00    -0.000 C 
ENDBRANCH  17  18
ENDBRANCH  12  17
ENDBRANCH   9  12
ENDBRANCH   3  10
BRANCH   7  24
ATOM     24  C   UNL     1      35.595 -21.097 -19.097  0.00  0.00    +0.151 C 
ATOM     25  C   UNL     1      36.308 -20.441 -17.938  0.00  0.00    +0.031 C 
BRANCH  24  27
ATOM     26  O   UNL     1      36.650 -18.794 -20.518  0.00  0.00    -0.226 OA
ATOM     27  N   UNL     1      34.874 -20.153 -19.897  0.00  0.00    -0.264 N 
ATOM     28  C   UNL     1      35.457 -19.075 -20.546  0.00  0.00    +0.402 C 
ATOM     29  H   UNL     1      33.902 -20.278 -19.994  0.00  0.00    +0.153 HD
BRANCH  28  30
ATOM     30  O   UNL     1      34.507 -18.365 -21.224  0.00  0.00    -0.430 OA
BRANCH  30  31
ATOM     31  C   UNL     1      34.988 -17.545 -22.296  0.00  0.00    +0.237 C 
BRANCH  31  32
ATOM     32  C   UNL     1      34.517 -16.137 -22.084  0.00  0.00    +0.021 C 
ATOM     33  C   UNL     1      34.383 -15.275 -23.172  0.00  0.00    -0.001 C 
ATOM     34  C   UNL     1      34.211 -15.690 -20.798  0.00  0.00    -0.001 C 
ATOM     35  C   UNL     1      33.945 -13.965 -22.974  0.00  0.00    -0.000 C 
ATOM     36  C   UNL     1      33.772 -14.380 -20.601  0.00  0.00    -0.000 C 
ATOM     37  C   UNL     1      33.638 -13.518 -21.689  0.00  0.00    -0.000 C 
ENDBRANCH  31  32
ENDBRANCH  30  31
ENDBRANCH  28  30
ENDBRANCH  24  27
ENDBRANCH   7  24
TORSDOF 11
ENDMDL
MODEL 6
REMARK VINA RESULT:      -9.2      2.373     10.078
REMARK  Name = 6323185
REMARK  11 active torsions:
REMARK  status: ('A' for Active; 'I' for Inactive)
REMARK    1  A    between atoms: C_3  and  C_10
REMARK    2  A    between atoms: C_7  and  C_24
REMARK    3  A    between atoms: N_9  and  C_12
REMARK    4  A    between atoms: C_12  and  C_13
REMARK    5  A    between atoms: C_12  and  C_17
REMARK    6  A    between atoms: C_13  and  O_15
REMARK    7  A    between atoms: C_17  and  C_18
REMARK    8  A    between atoms: C_24  and  N_27
REMARK    9  A    between atoms: C_28  and  O_30
REMARK   10  A    between atoms: O_30  and  C_31
REMARK   11  A    between atoms: C_31  and  C_32
REMARK                            x       y       z     vdW  Elec       q    Type
REMARK                         _______ _______ _______ _____ _____    ______ ____
ROOT
ATOM      1  O   UNL     1      36.602 -20.363 -18.976  0.00  0.00    -0.273 OA
ATOM      2  N   UNL     1      34.756 -21.517 -18.192  0.00  0.00    -0.272 N 
ATOM      3  C   UNL     1      34.158 -21.779 -19.495  0.00  0.00    +0.152 C 
ATOM      4  C   UNL     1      33.111 -22.856 -19.231  0.00  0.00    +0.031 C 
ATOM      5  C   UNL     1      32.693 -22.598 -17.786  0.00  0.00    +0.024 C 
ATOM      6  C   UNL     1      33.986 -22.148 -17.123  0.00  0.00    +0.094 C 
ATOM      7  C   UNL     1      35.981 -20.885 -18.048  0.00  0.00    +0.244 C 
ENDROOT
BRANCH   3  10
ATOM      8  O   UNL     1      32.419 -20.147 -19.583  0.00  0.00    -0.273 OA
ATOM      9  N   UNL     1      34.343 -19.813 -20.850  0.00  0.00    -0.302 N 
ATOM     10  C   UNL     1      33.534 -20.499 -19.959  0.00  0.00    +0.241 C 
ATOM     11  H   UNL     1      35.220 -20.197 -21.075  0.00  0.00    +0.150 HD
BRANCH   9  12
ATOM     12  C   UNL     1      33.961 -18.561 -21.462  0.00  0.00    +0.103 C 
BRANCH  12  13
ATOM     13  C   UNL     1      33.989 -18.675 -23.000  0.00  0.00    +0.129 C 
ATOM     14  C   UNL     1      34.942 -19.757 -23.501  0.00  0.00    +0.033 C 
BRANCH  13  15
ATOM     15  O   UNL     1      32.677 -18.946 -23.489  0.00  0.00    -0.383 OA
ATOM     16  H   UNL     1      32.183 -19.451 -22.824  0.00  0.00    +0.210 HD
ENDBRANCH  13  15
ENDBRANCH  12  13
BRANCH  12  17
ATOM     17  C   UNL     1      34.868 -17.441 -20.914  0.00  0.00    +0.048 C 
BRANCH  17  18
ATOM     18  C   UNL     1      34.462 -16.056 -21.350  0.00  0.00    -0.020 C 
ATOM     19  C   UNL     1      34.551 -15.694 -22.694  0.00  0.00    -0.004 C 
ATOM     20  C   UNL     1      33.998 -15.136 -20.410  0.00  0.00    -0.004 C 
ATOM     21  C   UNL     1      34.177 -14.413 -23.098  0.00  0.00    -0.000 C 
ATOM     22  C   UNL     1      33.623 -13.855 -20.812  0.00  0.00    -0.000 C 
ATOM     23  C   UNL     1      33.713 -13.493 -22.156  0.00  0.00    -0.000 C 
ENDBRANCH  17  18
ENDBRANCH  12  17
ENDBRANCH   9  12
ENDBRANCH   3  10
BRANCH   7  24
ATOM     24  C   UNL     1      36.535 -20.853 -16.646  0.00  0.00    +0.151 C 
ATOM     25  C   UNL     1      37.718 -19.917 -16.559  0.00  0.00    +0.031 C 
BRANCH  24  27
ATOM     26  O   UNL     1      37.262 -22.023 -14.090  0.00  0.00    -0.226 OA
ATOM     27  N   UNL     1      36.894 -22.212 -16.374  0.00  0.00    -0.264 N 
ATOM     28  C   UNL     1      37.230 -22.692 -15.117  0.00  0.00    +0.402 C 
ATOM     29  H   UNL     1      36.903 -22.846 -17.127  0.00  0.00    +0.153 HD
BRANCH  28  30
ATOM     30  O   UNL     1      37.522 -24.025 -15.186  0.00  0.00    -0.430 OA
BRANCH  30  31
ATOM     31  C   UNL     1      36.462 -24.916 -14.820  0.00  0.00    +0.237 C 
BRANCH  31  32
ATOM     32  C   UNL     1      36.061 -24.642 -13.401  0.00  0.00    +0.021 C 
ATOM     33  C   UNL     1      36.929 -24.958 -12.356  0.00  0.00    -0.001 C 
ATOM     34  C   UNL     1      34.819 -24.069 -13.126  0.00  0.00    -0.001 C 
ATOM     35  C   UNL     1      36.555 -24.703 -11.037  0.00  0.00    -0.000 C 
ATOM     36  C   UNL     1      34.446 -23.814 -11.805  0.00  0.00    -0.000 C 
ATOM     37  C   UNL     1      35.314 -24.131 -10.761  0.00  0.00    -0.000 C 
ENDBRANCH  31  32
ENDBRANCH  30  31
ENDBRANCH  28  30
ENDBRANCH  24  27
ENDBRANCH   7  24
TORSDOF 11
ENDMDL
MODEL 7
REMARK VINA RESULT:      -9.2      6.454     10.847
REMARK  Name = 6323185
REMARK  11 active torsions:
REMARK  status: ('A' for Active; 'I' for Inactive)
REMARK    1  A    between atoms: C_3  and  C_10
REMARK    2  A    between atoms: C_7  and  C_24
REMARK    3  A    between atoms: N_9  and  C_12
REMARK    4  A    between atoms: C_12  and  C_13
REMARK    5  A    between atoms: C_12  and  C_17
REMARK    6  A    between atoms: C_13  and  O_15
REMARK    7  A    between atoms: C_17  and  C_18
REMARK    8  A    between atoms: C_24  and  N_27
REMARK    9  A    between atoms: C_28  and  O_30
REMARK   10  A    between atoms: O_30  and  C_31
REMARK   11  A    between atoms: C_31  and  C_32
REMARK                            x       y       z     vdW  Elec       q    Type
REMARK                         _______ _______ _______ _____ _____    ______ ____
ROOT
ATOM      1  O   UNL     1      34.465 -13.210 -23.779  0.00  0.00    -0.273 OA
ATOM      2  N   UNL     1      33.083 -13.566 -21.958  0.00  0.00    -0.272 N 
ATOM      3  C   UNL     1      34.068 -14.253 -21.133  0.00  0.00    +0.152 C 
ATOM      4  C   UNL     1      33.469 -14.252 -19.731  0.00  0.00    +0.031 C 
ATOM      5  C   UNL     1      31.964 -14.245 -19.988  0.00  0.00    +0.024 C 
ATOM      6  C   UNL     1      31.827 -13.383 -21.235  0.00  0.00    +0.094 C 
ATOM      7  C   UNL     1      33.393 -13.034 -23.199  0.00  0.00    +0.244 C 
ENDROOT
BRANCH   3  10
ATOM      8  O   UNL     1      33.854 -15.931 -22.816  0.00  0.00    -0.273 OA
ATOM      9  N   UNL     1      34.746 -16.518 -20.748  0.00  0.00    -0.302 N 
ATOM     10  C   UNL     1      34.209 -15.643 -21.676  0.00  0.00    +0.241 C 
ATOM     11  H   UNL     1      34.993 -16.167 -19.863  0.00  0.00    +0.150 HD
BRANCH   9  12
ATOM     12  C   UNL     1      34.963 -17.921 -21.017  0.00  0.00    +0.103 C 
BRANCH  12  13
ATOM     13  C   UNL     1      35.717 -18.110 -22.349  0.00  0.00    +0.129 C 
ATOM     14  C   UNL     1      37.157 -18.578 -22.159  0.00  0.00    +0.033 C 
BRANCH  13  15
ATOM     15  O   UNL     1      35.025 -19.051 -23.168  0.00  0.00    -0.383 OA
ATOM     16  H   UNL     1      34.108 -19.132 -22.862  0.00  0.00    +0.210 HD
ENDBRANCH  13  15
ENDBRANCH  12  13
BRANCH  12  17
ATOM     17  C   UNL     1      33.607 -18.653 -20.970  0.00  0.00    +0.048 C 
BRANCH  17  18
ATOM     18  C   UNL     1      33.607 -19.887 -20.103  0.00  0.00    -0.020 C 
ATOM     19  C   UNL     1      32.407 -20.378 -19.590  0.00  0.00    -0.004 C 
ATOM     20  C   UNL     1      34.807 -20.537 -19.815  0.00  0.00    -0.004 C 
ATOM     21  C   UNL     1      32.406 -21.519 -18.787  0.00  0.00    -0.000 C 
ATOM     22  C   UNL     1      34.808 -21.678 -19.013  0.00  0.00    -0.000 C 
ATOM     23  C   UNL     1      33.608 -22.169 -18.498  0.00  0.00    -0.000 C 
ENDBRANCH  17  18
ENDBRANCH  12  17
ENDBRANCH   9  12
ENDBRANCH   3  10
BRANCH   7  24
ATOM     24  C   UNL     1      32.307 -12.205 -23.839  0.00  0.00    +0.151 C 
ATOM     25  C   UNL     1      32.199 -12.511 -25.314  0.00  0.00    +0.031 C 
BRANCH  24  27
ATOM     26  O   UNL     1      30.899 -10.197 -22.283  0.00  0.00    -0.226 OA
ATOM     27  N   UNL     1      32.702 -10.851 -23.591  0.00  0.00    -0.264 N 
ATOM     28  C   UNL     1      31.967  -9.952 -22.833  0.00  0.00    +0.402 C 
ATOM     29  H   UNL     1      33.548 -10.538 -23.985  0.00  0.00    +0.153 HD
BRANCH  28  30
ATOM     30  O   UNL     1      32.606  -8.745 -22.785  0.00  0.00    -0.430 OA
BRANCH  30  31
ATOM     31  C   UNL     1      31.967  -7.672 -23.487  0.00  0.00    +0.237 C 
BRANCH  31  32
ATOM     32  C   UNL     1      31.486  -6.656 -22.494  0.00  0.00    +0.021 C 
ATOM     33  C   UNL     1      30.434  -5.802 -22.824  0.00  0.00    -0.001 C 
ATOM     34  C   UNL     1      32.091  -6.566 -21.240  0.00  0.00    -0.001 C 
ATOM     35  C   UNL     1      29.987  -4.857 -21.900  0.00  0.00    -0.000 C 
ATOM     36  C   UNL     1      31.643  -5.621 -20.316  0.00  0.00    -0.000 C 
ATOM     37  C   UNL     1      30.591  -4.767 -20.646  0.00  0.00    -0.000 C 
ENDBRANCH  31  32
ENDBRANCH  30  31
ENDBRANCH  28  30
ENDBRANCH  24  27
ENDBRANCH   7  24
TORSDOF 11
ENDMDL
MODEL 8
REMARK VINA RESULT:      -8.6      2.299      9.668
REMARK  Name = 6323185
REMARK  11 active torsions:
REMARK  status: ('A' for Active; 'I' for Inactive)
REMARK    1  A    between atoms: C_3  and  C_10
REMARK    2  A    between atoms: C_7  and  C_24
REMARK    3  A    between atoms: N_9  and  C_12
REMARK    4  A    between atoms: C_12  and  C_13
REMARK    5  A    between atoms: C_12  and  C_17
REMARK    6  A    between atoms: C_13  and  O_15
REMARK    7  A    between atoms: C_17  and  C_18
REMARK    8  A    between atoms: C_24  and  N_27
REMARK    9  A    between atoms: C_28  and  O_30
REMARK   10  A    between atoms: O_30  and  C_31
REMARK   11  A    between atoms: C_31  and  C_32
REMARK                            x       y       z     vdW  Elec       q    Type
REMARK                         _______ _______ _______ _____ _____    ______ ____
ROOT
ATOM      1  O   UNL     1      36.534 -20.475 -18.554  0.00  0.00    -0.273 OA
ATOM      2  N   UNL     1      34.611 -21.689 -18.128  0.00  0.00    -0.272 N 
ATOM      3  C   UNL     1      34.193 -21.834 -19.517  0.00  0.00    +0.152 C 
ATOM      4  C   UNL     1      33.131 -22.927 -19.491  0.00  0.00    +0.031 C 
ATOM      5  C   UNL     1      32.522 -22.797 -18.097  0.00  0.00    +0.024 C 
ATOM      6  C   UNL     1      33.711 -22.410 -17.231  0.00  0.00    +0.094 C 
ATOM      7  C   UNL     1      35.799 -21.075 -17.768  0.00  0.00    +0.244 C 
ENDROOT
BRANCH   3  10
ATOM      8  O   UNL     1      32.593 -20.065 -19.456  0.00  0.00    -0.273 OA
ATOM      9  N   UNL     1      34.378 -19.920 -20.943  0.00  0.00    -0.302 N 
ATOM     10  C   UNL     1      33.624 -20.516 -19.946  0.00  0.00    +0.241 C 
ATOM     11  H   UNL     1      35.189 -20.380 -21.255  0.00  0.00    +0.150 HD
BRANCH   9  12
ATOM     12  C   UNL     1      34.030 -18.652 -21.546  0.00  0.00    +0.103 C 
BRANCH  12  13
ATOM     13  C   UNL     1      34.141 -18.731 -23.083  0.00  0.00    +0.129 C 
ATOM     14  C   UNL     1      34.839 -19.999 -23.566  0.00  0.00    +0.033 C 
BRANCH  13  15
ATOM     15  O   UNL     1      32.842 -18.662 -23.666  0.00  0.00    -0.383 OA
ATOM     16  H   UNL     1      32.457 -19.552 -23.702  0.00  0.00    +0.210 HD
ENDBRANCH  13  15
ENDBRANCH  12  13
BRANCH  12  17
ATOM     17  C   UNL     1      34.905 -17.547 -20.923  0.00  0.00    +0.048 C 
BRANCH  17  18
ATOM     18  C   UNL     1      34.505 -16.150 -21.328  0.00  0.00    -0.020 C 
ATOM     19  C   UNL     1      34.042 -15.251 -20.366  0.00  0.00    -0.004 C 
ATOM     20  C   UNL     1      34.599 -15.756 -22.662  0.00  0.00    -0.004 C 
ATOM     21  C   UNL     1      33.672 -13.960 -20.740  0.00  0.00    -0.000 C 
ATOM     22  C   UNL     1      34.230 -14.464 -23.037  0.00  0.00    -0.000 C 
ATOM     23  C   UNL     1      33.766 -13.566 -22.076  0.00  0.00    -0.000 C 
ENDBRANCH  17  18
ENDBRANCH  12  17
ENDBRANCH   9  12
ENDBRANCH   3  10
BRANCH   7  24
ATOM     24  C   UNL     1      36.161 -21.168 -16.307  0.00  0.00    +0.151 C 
ATOM     25  C   UNL     1      37.635 -21.454 -16.137  0.00  0.00    +0.031 C 
BRANCH  24  27
ATOM     26  O   UNL     1      36.226 -22.366 -13.662  0.00  0.00    -0.226 OA
ATOM     27  N   UNL     1      35.339 -22.226 -15.803  0.00  0.00    -0.264 N 
ATOM     28  C   UNL     1      35.435 -22.744 -14.520  0.00  0.00    +0.402 C 
ATOM     29  H   UNL     1      34.663 -22.612 -16.405  0.00  0.00    +0.153 HD
BRANCH  28  30
ATOM     30  O   UNL     1      34.518 -23.741 -14.346  0.00  0.00    -0.430 OA
BRANCH  30  31
ATOM     31  C   UNL     1      33.648 -23.599 -13.216  0.00  0.00    +0.237 C 
BRANCH  31  32
ATOM     32  C   UNL     1      32.225 -23.609 -13.692  0.00  0.00    +0.021 C 
ATOM     33  C   UNL     1      31.450 -24.760 -13.551  0.00  0.00    -0.001 C 
ATOM     34  C   UNL     1      31.676 -22.466 -14.274  0.00  0.00    -0.001 C 
ATOM     35  C   UNL     1      30.127 -24.769 -13.993  0.00  0.00    -0.000 C 
ATOM     36  C   UNL     1      30.352 -22.476 -14.716  0.00  0.00    -0.000 C 
ATOM     37  C   UNL     1      29.578 -23.626 -14.575  0.00  0.00    -0.000 C 
ENDBRANCH  31  32
ENDBRANCH  30  31
ENDBRANCH  28  30
ENDBRANCH  24  27
ENDBRANCH   7  24
TORSDOF 11
ENDMDL
MODEL 9
REMARK VINA RESULT:      -8.6      7.759     14.882
REMARK  Name = 6323185
REMARK  11 active torsions:
REMARK  status: ('A' for Active; 'I' for Inactive)
REMARK    1  A    between atoms: C_3  and  C_10
REMARK    2  A    between atoms: C_7  and  C_24
REMARK    3  A    between atoms: N_9  and  C_12
REMARK    4  A    between atoms: C_12  and  C_13
REMARK    5  A    between atoms: C_12  and  C_17
REMARK    6  A    between atoms: C_13  and  O_15
REMARK    7  A    between atoms: C_17  and  C_18
REMARK    8  A    between atoms: C_24  and  N_27
REMARK    9  A    between atoms: C_28  and  O_30
REMARK   10  A    between atoms: O_30  and  C_31
REMARK   11  A    between atoms: C_31  and  C_32
REMARK                            x       y       z     vdW  Elec       q    Type
REMARK                         _______ _______ _______ _____ _____    ______ ____
ROOT
ATOM      1  O   UNL     1      31.770 -11.707 -25.083  0.00  0.00    -0.273 OA
ATOM      2  N   UNL     1      32.617 -12.341 -23.025  0.00  0.00    -0.272 N 
ATOM      3  C   UNL     1      31.758 -11.483 -22.220  0.00  0.00    +0.152 C 
ATOM      4  C   UNL     1      31.899 -12.017 -20.799  0.00  0.00    +0.031 C 
ATOM      5  C   UNL     1      33.306 -12.609 -20.779  0.00  0.00    +0.024 C 
ATOM      6  C   UNL     1      33.465 -13.178 -22.181  0.00  0.00    +0.094 C 
ATOM      7  C   UNL     1      32.497 -12.432 -24.403  0.00  0.00    +0.244 C 
ENDROOT
BRANCH   3  10
ATOM      8  O   UNL     1      33.285  -9.828 -23.013  0.00  0.00    -0.273 OA
ATOM      9  N   UNL     1      31.546  -9.176 -21.611  0.00  0.00    -0.302 N 
ATOM     10  C   UNL     1      32.289 -10.086 -22.343  0.00  0.00    +0.241 C 
ATOM     11  H   UNL     1      30.763  -9.504 -21.112  0.00  0.00    +0.150 HD
BRANCH   9  12
ATOM     12  C   UNL     1      31.863  -7.767 -21.544  0.00  0.00    +0.103 C 
BRANCH  12  13
ATOM     13  C   UNL     1      32.134  -7.338 -20.088  0.00  0.00    +0.129 C 
ATOM     14  C   UNL     1      31.422  -6.045 -19.704  0.00  0.00    +0.033 C 
BRANCH  13  15
ATOM     15  O   UNL     1      31.733  -8.375 -19.195  0.00  0.00    -0.383 OA
ATOM     16  H   UNL     1      30.981  -8.856 -19.576  0.00  0.00    +0.210 HD
ENDBRANCH  13  15
ENDBRANCH  12  13
BRANCH  12  17
ATOM     17  C   UNL     1      30.730  -6.969 -22.218  0.00  0.00    +0.048 C 
BRANCH  17  18
ATOM     18  C   UNL     1      31.175  -6.166 -23.415  0.00  0.00    -0.020 C 
ATOM     19  C   UNL     1      31.218  -6.760 -24.677  0.00  0.00    -0.004 C 
ATOM     20  C   UNL     1      31.543  -4.830 -23.260  0.00  0.00    -0.004 C 
ATOM     21  C   UNL     1      31.630  -6.017 -25.783  0.00  0.00    -0.000 C 
ATOM     22  C   UNL     1      31.954  -4.086 -24.366  0.00  0.00    -0.000 C 
ATOM     23  C   UNL     1      31.999  -4.680 -25.627  0.00  0.00    -0.000 C 
ENDBRANCH  17  18
ENDBRANCH  12  17
ENDBRANCH   9  12
ENDBRANCH   3  10
BRANCH   7  24
ATOM     24  C   UNL     1      33.341 -13.496 -25.059  0.00  0.00    +0.151 C 
ATOM     25  C   UNL     1      33.087 -13.539 -26.548  0.00  0.00    +0.031 C 
BRANCH  24  27
ATOM     26  O   UNL     1      34.624 -16.096 -25.234  0.00  0.00    -0.226 OA
ATOM     27  N   UNL     1      32.956 -14.710 -24.405  0.00  0.00    -0.264 N 
ATOM     28  C   UNL     1      33.627 -15.916 -24.543  0.00  0.00    +0.402 C 
ATOM     29  H   UNL     1      32.164 -14.687 -23.820  0.00  0.00    +0.153 HD
BRANCH  28  30
ATOM     30  O   UNL     1      33.015 -16.882 -23.796  0.00  0.00    -0.430 OA
BRANCH  30  31
ATOM     31  C   UNL     1      33.547 -18.205 -23.931  0.00  0.00    +0.237 C 
BRANCH  31  32
ATOM     32  C   UNL     1      34.346 -18.538 -22.706  0.00  0.00    +0.021 C 
ATOM     33  C   UNL     1      35.605 -17.969 -22.517  0.00  0.00    -0.001 C 
ATOM     34  C   UNL     1      33.829 -19.418 -21.754  0.00  0.00    -0.001 C 
ATOM     35  C   UNL     1      36.347 -18.279 -21.378  0.00  0.00    -0.000 C 
ATOM     36  C   UNL     1      34.572 -19.728 -20.614  0.00  0.00    -0.000 C 
ATOM     37  C   UNL     1      35.831 -19.158 -20.426  0.00  0.00    -0.000 C 
ENDBRANCH  31  32
ENDBRANCH  30  31
ENDBRANCH  28  30
ENDBRANCH  24  27
ENDBRANCH   7  24
TORSDOF 11
ENDMDL
