MODEL 1
REMARK VINA RESULT:     -12.5      0.000      0.000
REMARK  Name = 15942657
REMARK  6 active torsions:
REMARK  status: ('A' for Active; 'I' for Inactive)
REMARK    1  A    between atoms: C_2  and  C_8
REMARK    2  A    between atoms: C_3  and  N_17
REMARK    3  A    between atoms: C_11  and  O_14
REMARK    4  A    between atoms: C_18  and  C_21
REMARK    5  A    between atoms: C_22  and  C_26
REMARK    6  A    between atoms: C_26  and  O_27
REMARK                            x       y       z     vdW  Elec       q    Type
REMARK                         _______ _______ _______ _____ _____    ______ ____
ROOT
ATOM      1  F   UNL     1      33.232 -21.403 -19.083  0.00  0.00    -0.203 F 
ATOM      2  C   UNL     1      34.776 -18.941 -21.268  0.00  0.00    +0.002 C 
ATOM      3  C   UNL     1      35.483 -20.650 -19.179  0.00  0.00    +0.078 C 
ATOM      4  C   UNL     1      33.812 -19.763 -20.683  0.00  0.00    +0.031 C 
ATOM      5  C   UNL     1      36.093 -18.973 -20.808  0.00  0.00    +0.001 C 
ATOM      6  C   UNL     1      34.167 -20.617 -19.638  0.00  0.00    +0.153 C 
ATOM      7  C   UNL     1      36.447 -19.828 -19.763  0.00  0.00    +0.017 C 
ENDROOT
BRANCH   2   8
ATOM      8  C   UNL     1      34.410 -18.056 -22.352  0.00  0.00    +0.003 C 
ATOM      9  C   UNL     1      34.660 -16.687 -22.249  0.00  0.00    +0.037 C 
ATOM     10  C   UNL     1      33.807 -18.571 -23.500  0.00  0.00    +0.000 C 
ATOM     11  C   UNL     1      34.307 -15.834 -23.296  0.00  0.00    +0.139 C 
ATOM     12  C   UNL     1      33.454 -17.717 -24.545  0.00  0.00    +0.003 C 
ATOM     13  C   UNL     1      33.704 -16.349 -24.443  0.00  0.00    +0.037 C 
BRANCH  11  14
ATOM     14  O   UNL     1      34.551 -14.499 -23.196  0.00  0.00    -0.471 OA
ATOM     15  C   UNL     1      33.778 -13.766 -22.247  0.00  0.00    +0.252 C 
ENDBRANCH  11  14
ENDBRANCH   2   8
BRANCH   3  17
ATOM     16  O   UNL     1      36.984 -20.080 -16.673  0.00  0.00    -0.270 OA
ATOM     17  N   UNL     1      35.838 -21.502 -18.133  0.00  0.00    -0.279 N 
ATOM     18  C   UNL     1      36.552 -21.192 -16.960  0.00  0.00    +0.250 C 
ATOM     19  H   UNL     1      35.554 -22.440 -18.227  0.00  0.00    +0.155 HD
BRANCH  18  21
ATOM     20  S   UNL     1      36.196 -24.239 -14.456  0.00  0.00    -0.080 S 
ATOM     21  C   UNL     1      36.729 -22.317 -16.026  0.00  0.00    +0.066 C 
ATOM     22  C   UNL     1      35.670 -22.991 -15.503  0.00  0.00    +0.109 C 
ATOM     23  C   UNL     1      37.983 -22.788 -15.598  0.00  0.00    +0.012 C 
ATOM     24  C   UNL     1      37.841 -23.847 -14.729  0.00  0.00    +0.036 C 
BRANCH  22  26
ATOM     25  O   UNL     1      33.595 -23.124 -16.696  0.00  0.00    -0.245 OA
ATOM     26  C   UNL     1      34.265 -22.811 -15.695  0.00  0.00    +0.344 C 
BRANCH  26  27
ATOM     27  O   UNL     1      33.648 -22.223 -14.620  0.00  0.00    -0.477 OA
ATOM     28  H   UNL     1      32.723 -22.313 -14.504  0.00  0.00    +0.295 HD
ENDBRANCH  26  27
ENDBRANCH  22  26
ENDBRANCH  18  21
ENDBRANCH   3  17
TORSDOF 6
ENDMDL
MODEL 2
REMARK VINA RESULT:     -12.0      7.251     12.391
REMARK  Name = 15942657
REMARK  6 active torsions:
REMARK  status: ('A' for Active; 'I' for Inactive)
REMARK    1  A    between atoms: C_2  and  C_8
REMARK    2  A    between atoms: C_3  and  N_17
REMARK    3  A    between atoms: C_11  and  O_14
REMARK    4  A    between atoms: C_18  and  C_21
REMARK    5  A    between atoms: C_22  and  C_26
REMARK    6  A    between atoms: C_26  and  O_27
REMARK                            x       y       z     vdW  Elec       q    Type
REMARK                         _______ _______ _______ _____ _____    ______ ____
ROOT
ATOM      1  F   UNL     1      31.318 -11.211 -20.154  0.00  0.00    -0.203 F 
ATOM      2  C   UNL     1      33.160 -13.206 -22.572  0.00  0.00    +0.002 C 
ATOM      3  C   UNL     1      32.198 -10.604 -22.275  0.00  0.00    +0.078 C 
ATOM      4  C   UNL     1      32.465 -12.847 -21.416  0.00  0.00    +0.031 C 
ATOM      5  C   UNL     1      33.372 -12.264 -23.579  0.00  0.00    +0.001 C 
ATOM      6  C   UNL     1      31.984 -11.545 -21.269  0.00  0.00    +0.153 C 
ATOM      7  C   UNL     1      32.892 -10.963 -23.431  0.00  0.00    +0.017 C 
ENDROOT
BRANCH   2   8
ATOM      8  C   UNL     1      33.659 -14.555 -22.726  0.00  0.00    +0.003 C 
ATOM      9  C   UNL     1      34.224 -15.218 -21.635  0.00  0.00    +0.037 C 
ATOM     10  C   UNL     1      33.574 -15.194 -23.963  0.00  0.00    +0.000 C 
ATOM     11  C   UNL     1      34.704 -16.519 -21.783  0.00  0.00    +0.139 C 
ATOM     12  C   UNL     1      34.055 -16.495 -24.110  0.00  0.00    +0.003 C 
ATOM     13  C   UNL     1      34.620 -17.157 -23.021  0.00  0.00    +0.037 C 
BRANCH  11  14
ATOM     14  O   UNL     1      35.255 -17.166 -20.720  0.00  0.00    -0.471 OA
ATOM     15  C   UNL     1      36.089 -18.288 -21.005  0.00  0.00    +0.252 C 
ENDBRANCH  11  14
ENDBRANCH   2   8
BRANCH   3  17
ATOM     16  O   UNL     1      33.459  -8.006 -22.994  0.00  0.00    -0.270 OA
ATOM     17  N   UNL     1      31.716  -9.303 -22.129  0.00  0.00    -0.279 N 
ATOM     18  C   UNL     1      32.347  -8.096 -22.484  0.00  0.00    +0.250 C 
ATOM     19  H   UNL     1      30.822  -9.217 -21.728  0.00  0.00    +0.155 HD
BRANCH  18  21
ATOM     20  S   UNL     1      30.416  -4.962 -21.024  0.00  0.00    -0.080 S 
ATOM     21  C   UNL     1      31.549  -6.883 -22.236  0.00  0.00    +0.066 C 
ATOM     22  C   UNL     1      31.392  -6.367 -20.987  0.00  0.00    +0.109 C 
ATOM     23  C   UNL     1      30.889  -6.161 -23.247  0.00  0.00    +0.012 C 
ATOM     24  C   UNL     1      30.223  -5.076 -22.722  0.00  0.00    +0.036 C 
BRANCH  22  26
ATOM     25  O   UNL     1      31.647  -7.882 -19.147  0.00  0.00    -0.245 OA
ATOM     26  C   UNL     1      31.900  -6.810 -19.727  0.00  0.00    +0.344 C 
BRANCH  26  27
ATOM     27  O   UNL     1      32.755  -5.908 -19.147  0.00  0.00    -0.477 OA
ATOM     28  H   UNL     1      33.309  -5.375 -19.684  0.00  0.00    +0.295 HD
ENDBRANCH  26  27
ENDBRANCH  22  26
ENDBRANCH  18  21
ENDBRANCH   3  17
TORSDOF 6
ENDMDL
MODEL 3
REMARK VINA RESULT:     -11.7      6.376     11.280
REMARK  Name = 15942657
REMARK  6 active torsions:
REMARK  status: ('A' for Active; 'I' for Inactive)
REMARK    1  A    between atoms: C_2  and  C_8
REMARK    2  A    between atoms: C_3  and  N_17
REMARK    3  A    between atoms: C_11  and  O_14
REMARK    4  A    between atoms: C_18  and  C_21
REMARK    5  A    between atoms: C_22  and  C_26
REMARK    6  A    between atoms: C_26  and  O_27
REMARK                            x       y       z     vdW  Elec       q    Type
REMARK                         _______ _______ _______ _____ _____    ______ ____
ROOT
ATOM      1  F   UNL     1      32.704 -12.481 -24.940  0.00  0.00    -0.203 F 
ATOM      2  C   UNL     1      33.882 -14.949 -22.543  0.00  0.00    +0.002 C 
ATOM      3  C   UNL     1      33.099 -12.272 -22.607  0.00  0.00    +0.078 C 
ATOM      4  C   UNL     1      33.480 -14.368 -23.747  0.00  0.00    +0.031 C 
ATOM      5  C   UNL     1      33.894 -14.190 -21.373  0.00  0.00    +0.001 C 
ATOM      6  C   UNL     1      33.089 -13.029 -23.778  0.00  0.00    +0.153 C 
ATOM      7  C   UNL     1      33.501 -12.852 -21.404  0.00  0.00    +0.017 C 
ENDROOT
BRANCH   2   8
ATOM      8  C   UNL     1      34.287 -16.337 -22.511  0.00  0.00    +0.003 C 
ATOM      9  C   UNL     1      35.001 -16.830 -21.418  0.00  0.00    +0.037 C 
ATOM     10  C   UNL     1      33.963 -17.184 -23.571  0.00  0.00    +0.000 C 
ATOM     11  C   UNL     1      35.390 -18.169 -21.386  0.00  0.00    +0.139 C 
ATOM     12  C   UNL     1      34.354 -18.522 -23.539  0.00  0.00    +0.003 C 
ATOM     13  C   UNL     1      35.067 -19.015 -22.447  0.00  0.00    +0.037 C 
BRANCH  11  14
ATOM     14  O   UNL     1      36.087 -18.650 -20.320  0.00  0.00    -0.471 OA
ATOM     15  C   UNL     1      35.819 -19.994 -19.923  0.00  0.00    +0.252 C 
ENDBRANCH  11  14
ENDBRANCH   2   8
BRANCH   3  17
ATOM     16  O   UNL     1      30.539 -11.006 -21.773  0.00  0.00    -0.270 OA
ATOM     17  N   UNL     1      32.710 -10.932 -22.637  0.00  0.00    -0.279 N 
ATOM     18  C   UNL     1      31.484 -10.372 -22.231  0.00  0.00    +0.250 C 
ATOM     19  H   UNL     1      33.377 -10.298 -22.986  0.00  0.00    +0.155 HD
BRANCH  18  21
ATOM     20  S   UNL     1      31.298  -6.449 -21.725  0.00  0.00    -0.080 S 
ATOM     21  C   UNL     1      31.402  -8.906 -22.352  0.00  0.00    +0.066 C 
ATOM     22  C   UNL     1      31.404  -8.093 -21.262  0.00  0.00    +0.109 C 
ATOM     23  C   UNL     1      31.314  -8.227 -23.580  0.00  0.00    +0.012 C 
ATOM     24  C   UNL     1      31.250  -6.865 -23.386  0.00  0.00    +0.036 C 
BRANCH  22  26
ATOM     25  O   UNL     1      30.760  -9.198 -19.234  0.00  0.00    -0.245 OA
ATOM     26  C   UNL     1      31.479  -8.405 -19.869  0.00  0.00    +0.344 C 
BRANCH  26  27
ATOM     27  O   UNL     1      32.475  -7.719 -19.220  0.00  0.00    -0.477 OA
ATOM     28  H   UNL     1      33.271  -8.157 -18.988  0.00  0.00    +0.295 HD
ENDBRANCH  26  27
ENDBRANCH  22  26
ENDBRANCH  18  21
ENDBRANCH   3  17
TORSDOF 6
ENDMDL
MODEL 4
REMARK VINA RESULT:     -11.6      3.738      5.000
REMARK  Name = 15942657
REMARK  6 active torsions:
REMARK  status: ('A' for Active; 'I' for Inactive)
REMARK    1  A    between atoms: C_2  and  C_8
REMARK    2  A    between atoms: C_3  and  N_17
REMARK    3  A    between atoms: C_11  and  O_14
REMARK    4  A    between atoms: C_18  and  C_21
REMARK    5  A    between atoms: C_22  and  C_26
REMARK    6  A    between atoms: C_26  and  O_27
REMARK                            x       y       z     vdW  Elec       q    Type
REMARK                         _______ _______ _______ _____ _____    ______ ____
ROOT
ATOM      1  F   UNL     1      34.715 -22.559 -17.038  0.00  0.00    -0.203 F 
ATOM      2  C   UNL     1      33.926 -20.332 -19.802  0.00  0.00    +0.002 C 
ATOM      3  C   UNL     1      32.606 -21.871 -17.886  0.00  0.00    +0.078 C 
ATOM      4  C   UNL     1      34.661 -21.077 -18.878  0.00  0.00    +0.031 C 
ATOM      5  C   UNL     1      32.532 -20.357 -19.767  0.00  0.00    +0.001 C 
ATOM      6  C   UNL     1      33.999 -21.847 -17.921  0.00  0.00    +0.153 C 
ATOM      7  C   UNL     1      31.871 -21.126 -18.809  0.00  0.00    +0.017 C 
ENDROOT
BRANCH   2   8
ATOM      8  C   UNL     1      34.611 -19.533 -20.794  0.00  0.00    +0.003 C 
ATOM      9  C   UNL     1      33.928 -19.095 -21.930  0.00  0.00    +0.037 C 
ATOM     10  C   UNL     1      35.954 -19.200 -20.616  0.00  0.00    +0.000 C 
ATOM     11  C   UNL     1      34.589 -18.324 -22.886  0.00  0.00    +0.139 C 
ATOM     12  C   UNL     1      36.614 -18.429 -21.573  0.00  0.00    +0.003 C 
ATOM     13  C   UNL     1      35.932 -17.991 -22.708  0.00  0.00    +0.037 C 
BRANCH  11  14
ATOM     14  O   UNL     1      33.924 -17.896 -23.993  0.00  0.00    -0.471 OA
ATOM     15  C   UNL     1      33.973 -16.500 -24.282  0.00  0.00    +0.252 C 
ENDBRANCH  11  14
ENDBRANCH   2   8
BRANCH   3  17
ATOM     16  O   UNL     1      29.818 -21.668 -16.864  0.00  0.00    -0.270 OA
ATOM     17  N   UNL     1      31.943 -22.641 -16.930  0.00  0.00    -0.279 N 
ATOM     18  C   UNL     1      30.619 -22.513 -16.473  0.00  0.00    +0.250 C 
ATOM     19  H   UNL     1      32.468 -23.368 -16.523  0.00  0.00    +0.155 HD
BRANCH  18  21
ATOM     20  S   UNL     1      28.755 -25.119 -14.146  0.00  0.00    -0.080 S 
ATOM     21  C   UNL     1      30.205 -23.518 -15.478  0.00  0.00    +0.066 C 
ATOM     22  C   UNL     1      28.921 -23.958 -15.393  0.00  0.00    +0.109 C 
ATOM     23  C   UNL     1      31.081 -24.102 -14.546  0.00  0.00    +0.012 C 
ATOM     24  C   UNL     1      30.416 -25.005 -13.746  0.00  0.00    +0.036 C 
BRANCH  22  26
ATOM     25  O   UNL     1      27.298 -24.208 -17.139  0.00  0.00    -0.245 OA
ATOM     26  C   UNL     1      27.764 -23.607 -16.154  0.00  0.00    +0.344 C 
BRANCH  26  27
ATOM     27  O   UNL     1      27.145 -22.471 -15.695  0.00  0.00    -0.477 OA
ATOM     28  H   UNL     1      26.362 -22.164 -16.108  0.00  0.00    +0.295 HD
ENDBRANCH  26  27
ENDBRANCH  22  26
ENDBRANCH  18  21
ENDBRANCH   3  17
TORSDOF 6
ENDMDL
MODEL 5
REMARK VINA RESULT:     -11.4      1.469      2.165
REMARK  Name = 15942657
REMARK  6 active torsions:
REMARK  status: ('A' for Active; 'I' for Inactive)
REMARK    1  A    between atoms: C_2  and  C_8
REMARK    2  A    between atoms: C_3  and  N_17
REMARK    3  A    between atoms: C_11  and  O_14
REMARK    4  A    between atoms: C_18  and  C_21
REMARK    5  A    between atoms: C_22  and  C_26
REMARK    6  A    between atoms: C_26  and  O_27
REMARK                            x       y       z     vdW  Elec       q    Type
REMARK                         _______ _______ _______ _____ _____    ______ ____
ROOT
ATOM      1  F   UNL     1      32.302 -21.461 -18.582  0.00  0.00    -0.203 F 
ATOM      2  C   UNL     1      34.440 -19.524 -20.795  0.00  0.00    +0.002 C 
ATOM      3  C   UNL     1      34.670 -21.289 -18.646  0.00  0.00    +0.078 C 
ATOM      4  C   UNL     1      33.294 -20.065 -20.210  0.00  0.00    +0.031 C 
ATOM      5  C   UNL     1      35.701 -19.865 -20.304  0.00  0.00    +0.001 C 
ATOM      6  C   UNL     1      33.410 -20.947 -19.136  0.00  0.00    +0.153 C 
ATOM      7  C   UNL     1      35.816 -20.749 -19.230  0.00  0.00    +0.017 C 
ENDROOT
BRANCH   2   8
ATOM      8  C   UNL     1      34.321 -18.610 -21.909  0.00  0.00    +0.003 C 
ATOM      9  C   UNL     1      34.575 -17.250 -21.726  0.00  0.00    +0.037 C 
ATOM     10  C   UNL     1      33.952 -19.087 -23.167  0.00  0.00    +0.000 C 
ATOM     11  C   UNL     1      34.462 -16.369 -22.802  0.00  0.00    +0.139 C 
ATOM     12  C   UNL     1      33.838 -18.206 -24.242  0.00  0.00    +0.003 C 
ATOM     13  C   UNL     1      34.092 -16.847 -24.059  0.00  0.00    +0.037 C 
BRANCH  11  14
ATOM     14  O   UNL     1      34.710 -15.043 -22.625  0.00  0.00    -0.471 OA
ATOM     15  C   UNL     1      33.942 -14.366 -21.631  0.00  0.00    +0.252 C 
ENDBRANCH  11  14
ENDBRANCH   2   8
BRANCH   3  17
ATOM     16  O   UNL     1      36.077 -20.955 -16.045  0.00  0.00    -0.270 OA
ATOM     17  N   UNL     1      34.787 -22.170 -17.571  0.00  0.00    -0.279 N 
ATOM     18  C   UNL     1      35.465 -21.973 -16.353  0.00  0.00    +0.250 C 
ATOM     19  H   UNL     1      34.340 -23.040 -17.676  0.00  0.00    +0.155 HD
BRANCH  18  21
ATOM     20  S   UNL     1      36.026 -24.936 -13.787  0.00  0.00    -0.080 S 
ATOM     21  C   UNL     1      35.364 -23.090 -15.399  0.00  0.00    +0.066 C 
ATOM     22  C   UNL     1      36.466 -23.670 -14.851  0.00  0.00    +0.109 C 
ATOM     23  C   UNL     1      34.145 -23.650 -14.975  0.00  0.00    +0.012 C 
ATOM     24  C   UNL     1      34.359 -24.678 -14.084  0.00  0.00    +0.036 C 
BRANCH  22  26
ATOM     25  O   UNL     1      38.790 -23.670 -14.262  0.00  0.00    -0.245 OA
ATOM     26  C   UNL     1      37.855 -23.385 -15.032  0.00  0.00    +0.344 C 
BRANCH  26  27
ATOM     27  O   UNL     1      38.116 -22.721 -16.204  0.00  0.00    -0.477 OA
ATOM     28  H   UNL     1      37.570 -22.007 -16.470  0.00  0.00    +0.295 HD
ENDBRANCH  26  27
ENDBRANCH  22  26
ENDBRANCH  18  21
ENDBRANCH   3  17
TORSDOF 6
ENDMDL
MODEL 6
REMARK VINA RESULT:     -11.3      3.017      4.572
REMARK  Name = 15942657
REMARK  6 active torsions:
REMARK  status: ('A' for Active; 'I' for Inactive)
REMARK    1  A    between atoms: C_2  and  C_8
REMARK    2  A    between atoms: C_3  and  N_17
REMARK    3  A    between atoms: C_11  and  O_14
REMARK    4  A    between atoms: C_18  and  C_21
REMARK    5  A    between atoms: C_22  and  C_26
REMARK    6  A    between atoms: C_26  and  O_27
REMARK                            x       y       z     vdW  Elec       q    Type
REMARK                         _______ _______ _______ _____ _____    ______ ____
ROOT
ATOM      1  F   UNL     1      34.830 -22.555 -17.049  0.00  0.00    -0.203 F 
ATOM      2  C   UNL     1      33.939 -20.356 -19.804  0.00  0.00    +0.002 C 
ATOM      3  C   UNL     1      32.691 -21.912 -17.855  0.00  0.00    +0.078 C 
ATOM      4  C   UNL     1      34.708 -21.082 -18.894  0.00  0.00    +0.031 C 
ATOM      5  C   UNL     1      32.547 -20.408 -19.740  0.00  0.00    +0.001 C 
ATOM      6  C   UNL     1      34.082 -21.861 -17.919  0.00  0.00    +0.153 C 
ATOM      7  C   UNL     1      31.922 -21.186 -18.765  0.00  0.00    +0.017 C 
ENDROOT
BRANCH   2   8
ATOM      8  C   UNL     1      34.587 -19.548 -20.815  0.00  0.00    +0.003 C 
ATOM      9  C   UNL     1      33.881 -19.156 -21.952  0.00  0.00    +0.037 C 
ATOM     10  C   UNL     1      35.917 -19.161 -20.652  0.00  0.00    +0.000 C 
ATOM     11  C   UNL     1      34.506 -18.375 -22.926  0.00  0.00    +0.139 C 
ATOM     12  C   UNL     1      36.541 -18.383 -21.625  0.00  0.00    +0.003 C 
ATOM     13  C   UNL     1      35.836 -17.990 -22.762  0.00  0.00    +0.037 C 
BRANCH  11  14
ATOM     14  O   UNL     1      33.818 -17.992 -24.035  0.00  0.00    -0.471 OA
ATOM     15  C   UNL     1      33.857 -16.607 -24.377  0.00  0.00    +0.252 C 
ENDBRANCH  11  14
ENDBRANCH   2   8
BRANCH   3  17
ATOM     16  O   UNL     1      29.928 -21.747 -16.760  0.00  0.00    -0.270 OA
ATOM     17  N   UNL     1      32.064 -22.691 -16.881  0.00  0.00    -0.279 N 
ATOM     18  C   UNL     1      30.750 -22.580 -16.390  0.00  0.00    +0.250 C 
ATOM     19  H   UNL     1      32.609 -23.410 -16.488  0.00  0.00    +0.155 HD
BRANCH  18  21
ATOM     20  S   UNL     1      30.388 -24.983 -13.263  0.00  0.00    -0.080 S 
ATOM     21  C   UNL     1      30.376 -23.590 -15.385  0.00  0.00    +0.066 C 
ATOM     22  C   UNL     1      31.059 -23.731 -14.217  0.00  0.00    +0.109 C 
ATOM     23  C   UNL     1      29.300 -24.484 -15.537  0.00  0.00    +0.012 C 
ATOM     24  C   UNL     1      29.189 -25.311 -14.442  0.00  0.00    +0.036 C 
BRANCH  22  26
ATOM     25  O   UNL     1      33.318 -22.930 -14.229  0.00  0.00    -0.245 OA
ATOM     26  C   UNL     1      32.191 -23.020 -13.710  0.00  0.00    +0.344 C 
BRANCH  26  27
ATOM     27  O   UNL     1      31.937 -22.391 -12.518  0.00  0.00    -0.477 OA
ATOM     28  H   UNL     1      31.680 -21.489 -12.509  0.00  0.00    +0.295 HD
ENDBRANCH  26  27
ENDBRANCH  22  26
ENDBRANCH  18  21
ENDBRANCH   3  17
TORSDOF 6
ENDMDL
MODEL 7
REMARK VINA RESULT:     -11.0      5.917      9.649
REMARK  Name = 15942657
REMARK  6 active torsions:
REMARK  status: ('A' for Active; 'I' for Inactive)
REMARK    1  A    between atoms: C_2  and  C_8
REMARK    2  A    between atoms: C_3  and  N_17
REMARK    3  A    between atoms: C_11  and  O_14
REMARK    4  A    between atoms: C_18  and  C_21
REMARK    5  A    between atoms: C_22  and  C_26
REMARK    6  A    between atoms: C_26  and  O_27
REMARK                            x       y       z     vdW  Elec       q    Type
REMARK                         _______ _______ _______ _____ _____    ______ ____
ROOT
ATOM      1  F   UNL     1      31.449 -13.288 -20.820  0.00  0.00    -0.203 F 
ATOM      2  C   UNL     1      31.929 -10.178 -22.642  0.00  0.00    +0.002 C 
ATOM      3  C   UNL     1      32.856 -12.809 -22.672  0.00  0.00    +0.078 C 
ATOM      4  C   UNL     1      31.451 -11.097 -21.707  0.00  0.00    +0.031 C 
ATOM      5  C   UNL     1      32.871 -10.575 -23.591  0.00  0.00    +0.001 C 
ATOM      6  C   UNL     1      31.915 -12.413 -21.723  0.00  0.00    +0.153 C 
ATOM      7  C   UNL     1      33.335 -11.891 -23.607  0.00  0.00    +0.017 C 
ENDROOT
BRANCH   2   8
ATOM      8  C   UNL     1      31.448  -8.814 -22.626  0.00  0.00    +0.003 C 
ATOM      9  C   UNL     1      31.564  -8.047 -21.466  0.00  0.00    +0.037 C 
ATOM     10  C   UNL     1      30.869  -8.265 -23.770  0.00  0.00    +0.000 C 
ATOM     11  C   UNL     1      31.101  -6.731 -21.451  0.00  0.00    +0.139 C 
ATOM     12  C   UNL     1      30.406  -6.950 -23.754  0.00  0.00    +0.003 C 
ATOM     13  C   UNL     1      30.521  -6.183 -22.596  0.00  0.00    +0.037 C 
BRANCH  11  14
ATOM     14  O   UNL     1      31.214  -5.982 -20.321  0.00  0.00    -0.471 OA
ATOM     15  C   UNL     1      32.430  -6.099 -19.583  0.00  0.00    +0.252 C 
ENDBRANCH  11  14
ENDBRANCH   2   8
BRANCH   3  17
ATOM     16  O   UNL     1      34.296 -14.354 -20.576  0.00  0.00    -0.270 OA
ATOM     17  N   UNL     1      33.322 -14.124 -22.689  0.00  0.00    -0.279 N 
ATOM     18  C   UNL     1      34.002 -14.821 -21.672  0.00  0.00    +0.250 C 
ATOM     19  H   UNL     1      33.155 -14.630 -23.517  0.00  0.00    +0.155 HD
BRANCH  18  21
ATOM     20  S   UNL     1      34.658 -18.371 -23.299  0.00  0.00    -0.080 S 
ATOM     21  C   UNL     1      34.324 -16.223 -21.989  0.00  0.00    +0.066 C 
ATOM     22  C   UNL     1      34.215 -16.718 -23.251  0.00  0.00    +0.109 C 
ATOM     23  C   UNL     1      34.765 -17.158 -21.036  0.00  0.00    +0.012 C 
ATOM     24  C   UNL     1      34.988 -18.386 -21.618  0.00  0.00    +0.036 C 
BRANCH  22  26
ATOM     25  O   UNL     1      34.464 -15.289 -25.159  0.00  0.00    -0.245 OA
ATOM     26  C   UNL     1      33.807 -16.087 -24.466  0.00  0.00    +0.344 C 
BRANCH  26  27
ATOM     27  O   UNL     1      32.540 -16.443 -24.856  0.00  0.00    -0.477 OA
ATOM     28  H   UNL     1      32.411 -16.912 -25.657  0.00  0.00    +0.295 HD
ENDBRANCH  26  27
ENDBRANCH  22  26
ENDBRANCH  18  21
ENDBRANCH   3  17
TORSDOF 6
ENDMDL
MODEL 8
REMARK VINA RESULT:     -11.0      3.211      8.942
REMARK  Name = 15942657
REMARK  6 active torsions:
REMARK  status: ('A' for Active; 'I' for Inactive)
REMARK    1  A    between atoms: C_2  and  C_8
REMARK    2  A    between atoms: C_3  and  N_17
REMARK    3  A    between atoms: C_11  and  O_14
REMARK    4  A    between atoms: C_18  and  C_21
REMARK    5  A    between atoms: C_22  and  C_26
REMARK    6  A    between atoms: C_26  and  O_27
REMARK                            x       y       z     vdW  Elec       q    Type
REMARK                         _______ _______ _______ _____ _____    ______ ____
ROOT
ATOM      1  F   UNL     1      32.266 -21.287 -19.416  0.00  0.00    -0.203 F 
ATOM      2  C   UNL     1      35.029 -22.055 -17.181  0.00  0.00    +0.002 C 
ATOM      3  C   UNL     1      34.538 -20.602 -19.512  0.00  0.00    +0.078 C 
ATOM      4  C   UNL     1      33.746 -22.030 -17.731  0.00  0.00    +0.031 C 
ATOM      5  C   UNL     1      36.065 -21.353 -17.798  0.00  0.00    +0.001 C 
ATOM      6  C   UNL     1      33.502 -21.304 -18.897  0.00  0.00    +0.153 C 
ATOM      7  C   UNL     1      35.820 -20.626 -18.963  0.00  0.00    +0.017 C 
ENDROOT
BRANCH   2   8
ATOM      8  C   UNL     1      35.283 -22.807 -15.972  0.00  0.00    +0.003 C 
ATOM      9  C   UNL     1      36.565 -22.833 -15.424  0.00  0.00    +0.037 C 
ATOM     10  C   UNL     1      34.245 -23.505 -15.354  0.00  0.00    +0.000 C 
ATOM     11  C   UNL     1      36.810 -23.558 -14.257  0.00  0.00    +0.139 C 
ATOM     12  C   UNL     1      34.491 -24.230 -14.188  0.00  0.00    +0.003 C 
ATOM     13  C   UNL     1      35.772 -24.256 -13.640  0.00  0.00    +0.037 C 
BRANCH  11  14
ATOM     14  O   UNL     1      38.060 -23.584 -13.721  0.00  0.00    -0.471 OA
ATOM     15  C   UNL     1      38.484 -24.806 -13.119  0.00  0.00    +0.252 C 
ENDBRANCH  11  14
ENDBRANCH   2   8
BRANCH   3  17
ATOM     16  O   UNL     1      35.999 -18.276 -20.657  0.00  0.00    -0.270 OA
ATOM     17  N   UNL     1      34.295 -19.877 -20.679  0.00  0.00    -0.279 N 
ATOM     18  C   UNL     1      35.013 -18.778 -21.187  0.00  0.00    +0.250 C 
ATOM     19  H   UNL     1      33.524 -20.170 -21.215  0.00  0.00    +0.155 HD
BRANCH  18  21
ATOM     20  S   UNL     1      33.721 -16.643 -24.262  0.00  0.00    -0.080 S 
ATOM     21  C   UNL     1      34.522 -18.258 -22.475  0.00  0.00    +0.066 C 
ATOM     22  C   UNL     1      34.281 -16.933 -22.670  0.00  0.00    +0.109 C 
ATOM     23  C   UNL     1      34.262 -19.065 -23.597  0.00  0.00    +0.012 C 
ATOM     24  C   UNL     1      33.814 -18.307 -24.656  0.00  0.00    +0.036 C 
BRANCH  22  26
ATOM     25  O   UNL     1      34.451 -15.847 -20.541  0.00  0.00    -0.245 OA
ATOM     26  C   UNL     1      34.423 -15.821 -21.785  0.00  0.00    +0.344 C 
BRANCH  26  27
ATOM     27  O   UNL     1      34.537 -14.623 -22.443  0.00  0.00    -0.477 OA
ATOM     28  H   UNL     1      34.724 -13.840 -21.963  0.00  0.00    +0.295 HD
ENDBRANCH  26  27
ENDBRANCH  22  26
ENDBRANCH  18  21
ENDBRANCH   3  17
TORSDOF 6
ENDMDL
MODEL 9
REMARK VINA RESULT:     -10.9      5.858      9.600
REMARK  Name = 15942657
REMARK  6 active torsions:
REMARK  status: ('A' for Active; 'I' for Inactive)
REMARK    1  A    between atoms: C_2  and  C_8
REMARK    2  A    between atoms: C_3  and  N_17
REMARK    3  A    between atoms: C_11  and  O_14
REMARK    4  A    between atoms: C_18  and  C_21
REMARK    5  A    between atoms: C_22  and  C_26
REMARK    6  A    between atoms: C_26  and  O_27
REMARK                            x       y       z     vdW  Elec       q    Type
REMARK                         _______ _______ _______ _____ _____    ______ ____
ROOT
ATOM      1  F   UNL     1      31.527 -13.414 -20.737  0.00  0.00    -0.203 F 
ATOM      2  C   UNL     1      32.048 -10.282 -22.507  0.00  0.00    +0.002 C 
ATOM      3  C   UNL     1      32.907 -12.934 -22.609  0.00  0.00    +0.078 C 
ATOM      4  C   UNL     1      31.566 -11.207 -21.581  0.00  0.00    +0.031 C 
ATOM      5  C   UNL     1      32.959 -10.683 -23.484  0.00  0.00    +0.001 C 
ATOM      6  C   UNL     1      31.996 -12.534 -21.632  0.00  0.00    +0.153 C 
ATOM      7  C   UNL     1      33.389 -12.010 -23.536  0.00  0.00    +0.017 C 
ENDROOT
BRANCH   2   8
ATOM      8  C   UNL     1      31.601  -8.907 -22.455  0.00  0.00    +0.003 C 
ATOM      9  C   UNL     1      31.264  -8.238 -23.632  0.00  0.00    +0.037 C 
ATOM     10  C   UNL     1      31.506  -8.250 -21.227  0.00  0.00    +0.000 C 
ATOM     11  C   UNL     1      30.832  -6.912 -23.580  0.00  0.00    +0.139 C 
ATOM     12  C   UNL     1      31.076  -6.925 -21.177  0.00  0.00    +0.003 C 
ATOM     13  C   UNL     1      30.738  -6.256 -22.353  0.00  0.00    +0.037 C 
BRANCH  11  14
ATOM     14  O   UNL     1      30.503  -6.258 -24.728  0.00  0.00    -0.471 OA
ATOM     15  C   UNL     1      31.571  -5.675 -25.472  0.00  0.00    +0.252 C 
ENDBRANCH  11  14
ENDBRANCH   2   8
BRANCH   3  17
ATOM     16  O   UNL     1      34.356 -14.554 -20.576  0.00  0.00    -0.270 OA
ATOM     17  N   UNL     1      33.339 -14.260 -22.661  0.00  0.00    -0.279 N 
ATOM     18  C   UNL     1      34.024 -14.992 -21.674  0.00  0.00    +0.250 C 
ATOM     19  H   UNL     1      33.140 -14.745 -23.494  0.00  0.00    +0.155 HD
BRANCH  18  21
ATOM     20  S   UNL     1      34.571 -18.521 -23.385  0.00  0.00    -0.080 S 
ATOM     21  C   UNL     1      34.303 -16.395 -22.024  0.00  0.00    +0.066 C 
ATOM     22  C   UNL     1      34.179 -16.857 -23.297  0.00  0.00    +0.109 C 
ATOM     23  C   UNL     1      34.715 -17.367 -21.094  0.00  0.00    +0.012 C 
ATOM     24  C   UNL     1      34.901 -18.587 -21.705  0.00  0.00    +0.036 C 
BRANCH  22  26
ATOM     25  O   UNL     1      34.470 -15.387 -25.168  0.00  0.00    -0.245 OA
ATOM     26  C   UNL     1      33.791 -16.185 -24.497  0.00  0.00    +0.344 C 
BRANCH  26  27
ATOM     27  O   UNL     1      32.517 -16.499 -24.898  0.00  0.00    -0.477 OA
ATOM     28  H   UNL     1      32.288 -16.460 -25.806  0.00  0.00    +0.295 HD
ENDBRANCH  26  27
ENDBRANCH  22  26
ENDBRANCH  18  21
ENDBRANCH   3  17
TORSDOF 6
ENDMDL
