MODEL 1
REMARK VINA RESULT:     -13.3      0.000      0.000
REMARK  Name = 24883488
REMARK  8 active torsions:
REMARK  status: ('A' for Active; 'I' for Inactive)
REMARK    1  A    between atoms: N_2  and  C_11
REMARK    2  A    between atoms: C_3  and  C_19
REMARK    3  A    between atoms: C_19  and  C_20
REMARK    4  A    between atoms: C_20  and  C_23
REMARK    5  A    between atoms: N_22  and  C_25
REMARK    6  A    between atoms: C_27  and  O_31
REMARK    7  A    between atoms: O_31  and  C_32
REMARK    8  A    between atoms: C_32  and  C_34
REMARK                            x       y       z     vdW  Elec       q    Type
REMARK                         _______ _______ _______ _____ _____    ______ ____
ROOT
ATOM      1  O   UNL     1      32.674 -20.225 -19.986  0.00  0.00    -0.275 OA
ATOM      2  N   UNL     1      34.802 -19.508 -20.695  0.00  0.00    -0.284 N 
ATOM      3  C   UNL     1      33.899 -20.303 -19.979  0.00  0.00    +0.227 C 
ATOM      4  H   UNL     1      35.756 -19.700 -20.545  0.00  0.00    +0.155 HD
ENDROOT
BRANCH   2  11
ATOM      5  O   UNL     1      34.244 -14.439 -20.397  0.00  0.00    -0.282 OA
ATOM      6  O   UNL     1      33.502 -15.591 -25.555  0.00  0.00    -0.270 OA
ATOM      7  O   UNL     1      33.714 -12.498 -22.127  0.00  0.00    -0.266 OA
ATOM      8  N   UNL     1      33.604 -14.047 -23.853  0.00  0.00    -0.246 N 
ATOM      9  C   UNL     1      34.164 -16.131 -22.047  0.00  0.00    +0.049 C 
ATOM     10  C   UNL     1      33.968 -16.415 -23.398  0.00  0.00    +0.057 C 
ATOM     11  C   UNL     1      34.523 -18.478 -21.594  0.00  0.00    +0.050 C 
ATOM     12  C   UNL     1      34.441 -17.161 -21.141  0.00  0.00    +0.018 C 
ATOM     13  C   UNL     1      34.050 -17.738 -23.846  0.00  0.00    +0.006 C 
ATOM     14  C   UNL     1      34.328 -18.767 -22.944  0.00  0.00    +0.015 C 
ATOM     15  C   UNL     1      34.079 -14.745 -21.567  0.00  0.00    +0.249 C 
ATOM     16  C   UNL     1      33.673 -15.337 -24.366  0.00  0.00    +0.252 C 
ATOM     17  C   UNL     1      33.780 -13.646 -22.542  0.00  0.00    +0.291 C 
ATOM     18  H   UNL     1      33.408 -13.333 -24.502  0.00  0.00    +0.158 HD
ENDBRANCH   2  11
BRANCH   3  19
ATOM     19  C   UNL     1      34.600 -21.323 -19.097  0.00  0.00    +0.095 C 
BRANCH  19  20
ATOM     20  C   UNL     1      36.043 -20.912 -18.814  0.00  0.00    +0.095 C 
BRANCH  20  23
ATOM     21  O   UNL     1      37.072 -20.216 -16.772  0.00  0.00    -0.275 OA
ATOM     22  N   UNL     1      35.792 -22.186 -16.785  0.00  0.00    -0.284 N 
ATOM     23  C   UNL     1      36.380 -21.056 -17.339  0.00  0.00    +0.227 C 
ATOM     24  H   UNL     1      35.247 -22.735 -17.396  0.00  0.00    +0.155 HD
BRANCH  22  25
ATOM     25  C   UNL     1      35.881 -22.642 -15.451  0.00  0.00    +0.053 C 
ATOM     26  C   UNL     1      37.111 -23.048 -14.932  0.00  0.00    +0.052 C 
ATOM     27  C   UNL     1      37.199 -23.498 -13.615  0.00  0.00    +0.140 C 
ATOM     28  C   UNL     1      34.739 -22.687 -14.651  0.00  0.00    +0.015 C 
ATOM     29  C   UNL     1      36.056 -23.542 -12.815  0.00  0.00    +0.037 C 
ATOM     30  C   UNL     1      34.826 -23.137 -13.334  0.00  0.00    +0.004 C 
BRANCH  27  31
ATOM     31  O   UNL     1      38.399 -23.894 -13.109  0.00  0.00    -0.472 OA
BRANCH  31  32
ATOM     32  C   UNL     1      38.796 -25.240 -13.360  0.00  0.00    +0.243 C 
BRANCH  32  34
ATOM     33  F   UNL     1      39.819 -25.098 -15.455  0.00  0.00    -0.230 F 
ATOM     34  C   UNL     1      40.098 -25.230 -14.128  0.00  0.00    +0.240 C 
ENDBRANCH  32  34
ENDBRANCH  31  32
ENDBRANCH  27  31
ENDBRANCH  22  25
ENDBRANCH  20  23
ENDBRANCH  19  20
ENDBRANCH   3  19
TORSDOF 8
ENDMDL
MODEL 2
REMARK VINA RESULT:     -13.0      1.628      2.923
REMARK  Name = 24883488
REMARK  8 active torsions:
REMARK  status: ('A' for Active; 'I' for Inactive)
REMARK    1  A    between atoms: N_2  and  C_11
REMARK    2  A    between atoms: C_3  and  C_19
REMARK    3  A    between atoms: C_19  and  C_20
REMARK    4  A    between atoms: C_20  and  C_23
REMARK    5  A    between atoms: N_22  and  C_25
REMARK    6  A    between atoms: C_27  and  O_31
REMARK    7  A    between atoms: O_31  and  C_32
REMARK    8  A    between atoms: C_32  and  C_34
REMARK                            x       y       z     vdW  Elec       q    Type
REMARK                         _______ _______ _______ _____ _____    ______ ____
ROOT
ATOM      1  O   UNL     1      36.801 -17.998 -21.909  0.00  0.00    -0.275 OA
ATOM      2  N   UNL     1      34.818 -17.524 -20.732  0.00  0.00    -0.284 N 
ATOM      3  C   UNL     1      35.965 -18.262 -21.052  0.00  0.00    +0.227 C 
ATOM      4  H   UNL     1      34.245 -17.905 -20.028  0.00  0.00    +0.155 HD
ENDROOT
BRANCH   2  11
ATOM      5  O   UNL     1      33.669 -15.849 -25.420  0.00  0.00    -0.282 OA
ATOM      6  O   UNL     1      32.854 -11.647 -22.233  0.00  0.00    -0.270 OA
ATOM      7  O   UNL     1      32.841 -13.548 -26.446  0.00  0.00    -0.266 OA
ATOM      8  N   UNL     1      32.847 -12.586 -24.333  0.00  0.00    -0.246 N 
ATOM      9  C   UNL     1      33.726 -15.012 -23.209  0.00  0.00    +0.049 C 
ATOM     10  C   UNL     1      33.508 -13.904 -22.391  0.00  0.00    +0.057 C 
ATOM     11  C   UNL     1      34.384 -16.319 -21.285  0.00  0.00    +0.050 C 
ATOM     12  C   UNL     1      34.165 -16.222 -22.659  0.00  0.00    +0.018 C 
ATOM     13  C   UNL     1      33.730 -14.008 -21.012  0.00  0.00    +0.006 C 
ATOM     14  C   UNL     1      34.166 -15.215 -20.463  0.00  0.00    +0.015 C 
ATOM     15  C   UNL     1      33.496 -14.913 -24.656  0.00  0.00    +0.249 C 
ATOM     16  C   UNL     1      33.046 -12.620 -22.957  0.00  0.00    +0.252 C 
ATOM     17  C   UNL     1      33.028 -13.614 -25.240  0.00  0.00    +0.291 C 
ATOM     18  H   UNL     1      32.539 -11.728 -24.705  0.00  0.00    +0.158 HD
ENDBRANCH   2  11
BRANCH   3  19
ATOM     19  C   UNL     1      36.087 -19.529 -20.220  0.00  0.00    +0.095 C 
BRANCH  19  20
ATOM     20  C   UNL     1      34.750 -20.260 -20.125  0.00  0.00    +0.095 C 
BRANCH  20  23
ATOM     21  O   UNL     1      34.391 -22.524 -19.448  0.00  0.00    -0.275 OA
ATOM     22  N   UNL     1      35.432 -21.041 -17.951  0.00  0.00    -0.284 N 
ATOM     23  C   UNL     1      34.820 -21.416 -19.141  0.00  0.00    +0.227 C 
ATOM     24  H   UNL     1      35.735 -20.106 -17.895  0.00  0.00    +0.155 HD
BRANCH  22  25
ATOM     25  C   UNL     1      35.673 -21.844 -16.813  0.00  0.00    +0.053 C 
ATOM     26  C   UNL     1      36.982 -22.117 -16.416  0.00  0.00    +0.052 C 
ATOM     27  C   UNL     1      37.219 -22.910 -15.292  0.00  0.00    +0.140 C 
ATOM     28  C   UNL     1      34.601 -22.362 -16.087  0.00  0.00    +0.015 C 
ATOM     29  C   UNL     1      36.146 -23.428 -14.566  0.00  0.00    +0.037 C 
ATOM     30  C   UNL     1      34.837 -23.154 -14.963  0.00  0.00    +0.004 C 
BRANCH  27  31
ATOM     31  O   UNL     1      38.496 -23.177 -14.904  0.00  0.00    -0.472 OA
BRANCH  31  32
ATOM     32  C   UNL     1      38.682 -24.242 -13.973  0.00  0.00    +0.243 C 
BRANCH  32  34
ATOM     33  F   UNL     1      39.853 -25.198 -15.754  0.00  0.00    -0.230 F 
ATOM     34  C   UNL     1      39.881 -25.058 -14.400  0.00  0.00    +0.240 C 
ENDBRANCH  32  34
ENDBRANCH  31  32
ENDBRANCH  27  31
ENDBRANCH  22  25
ENDBRANCH  20  23
ENDBRANCH  19  20
ENDBRANCH   3  19
TORSDOF 8
ENDMDL
MODEL 3
REMARK VINA RESULT:     -12.8      2.276      3.115
REMARK  Name = 24883488
REMARK  8 active torsions:
REMARK  status: ('A' for Active; 'I' for Inactive)
REMARK    1  A    between atoms: N_2  and  C_11
REMARK    2  A    between atoms: C_3  and  C_19
REMARK    3  A    between atoms: C_19  and  C_20
REMARK    4  A    between atoms: C_20  and  C_23
REMARK    5  A    between atoms: N_22  and  C_25
REMARK    6  A    between atoms: C_27  and  O_31
REMARK    7  A    between atoms: O_31  and  C_32
REMARK    8  A    between atoms: C_32  and  C_34
REMARK                            x       y       z     vdW  Elec       q    Type
REMARK                         _______ _______ _______ _____ _____    ______ ____
ROOT
ATOM      1  O   UNL     1      32.846 -20.282 -19.799  0.00  0.00    -0.275 OA
ATOM      2  N   UNL     1      34.951 -19.626 -20.624  0.00  0.00    -0.284 N 
ATOM      3  C   UNL     1      34.067 -20.390 -19.853  0.00  0.00    +0.227 C 
ATOM      4  H   UNL     1      35.907 -19.838 -20.520  0.00  0.00    +0.155 HD
ENDROOT
BRANCH   2  11
ATOM      5  O   UNL     1      34.258 -14.574 -20.314  0.00  0.00    -0.282 OA
ATOM      6  O   UNL     1      33.579 -15.728 -25.480  0.00  0.00    -0.270 OA
ATOM      7  O   UNL     1      33.688 -12.642 -22.040  0.00  0.00    -0.266 OA
ATOM      8  N   UNL     1      33.630 -14.187 -23.773  0.00  0.00    -0.246 N 
ATOM      9  C   UNL     1      34.233 -16.262 -21.969  0.00  0.00    +0.049 C 
ATOM     10  C   UNL     1      34.053 -16.546 -23.323  0.00  0.00    +0.057 C 
ATOM     11  C   UNL     1      34.651 -18.600 -21.522  0.00  0.00    +0.050 C 
ATOM     12  C   UNL     1      34.532 -17.287 -21.065  0.00  0.00    +0.018 C 
ATOM     13  C   UNL     1      34.173 -17.865 -23.775  0.00  0.00    +0.006 C 
ATOM     14  C   UNL     1      34.472 -18.889 -22.874  0.00  0.00    +0.015 C 
ATOM     15  C   UNL     1      34.109 -14.881 -21.486  0.00  0.00    +0.249 C 
ATOM     16  C   UNL     1      33.736 -15.473 -24.289  0.00  0.00    +0.252 C 
ATOM     17  C   UNL     1      33.787 -13.786 -22.459  0.00  0.00    +0.291 C 
ATOM     18  H   UNL     1      33.419 -13.476 -24.420  0.00  0.00    +0.158 HD
ENDBRANCH   2  11
BRANCH   3  19
ATOM     19  C   UNL     1      34.789 -21.416 -18.994  0.00  0.00    +0.095 C 
BRANCH  19  20
ATOM     20  C   UNL     1      36.088 -20.848 -18.427  0.00  0.00    +0.095 C 
BRANCH  20  23
ATOM     21  O   UNL     1      37.241 -20.856 -16.334  0.00  0.00    -0.275 OA
ATOM     22  N   UNL     1      35.374 -22.257 -16.608  0.00  0.00    -0.284 N 
ATOM     23  C   UNL     1      36.321 -21.319 -17.001  0.00  0.00    +0.227 C 
ATOM     24  H   UNL     1      34.692 -22.492 -17.278  0.00  0.00    +0.155 HD
BRANCH  22  25
ATOM     25  C   UNL     1      35.273 -22.913 -15.360  0.00  0.00    +0.053 C 
ATOM     26  C   UNL     1      34.054 -22.942 -14.683  0.00  0.00    +0.052 C 
ATOM     27  C   UNL     1      33.954 -23.589 -13.451  0.00  0.00    +0.140 C 
ATOM     28  C   UNL     1      36.393 -23.531 -14.805  0.00  0.00    +0.015 C 
ATOM     29  C   UNL     1      35.076 -24.208 -12.897  0.00  0.00    +0.037 C 
ATOM     30  C   UNL     1      36.295 -24.179 -13.573  0.00  0.00    +0.004 C 
BRANCH  27  31
ATOM     31  O   UNL     1      32.765 -23.618 -12.791  0.00  0.00    -0.472 OA
BRANCH  31  32
ATOM     32  C   UNL     1      31.711 -24.374 -13.384  0.00  0.00    +0.243 C 
BRANCH  32  34
ATOM     33  F   UNL     1      30.831 -22.263 -13.858  0.00  0.00    -0.230 F 
ATOM     34  C   UNL     1      30.471 -23.513 -13.452  0.00  0.00    +0.240 C 
ENDBRANCH  32  34
ENDBRANCH  31  32
ENDBRANCH  27  31
ENDBRANCH  22  25
ENDBRANCH  20  23
ENDBRANCH  19  20
ENDBRANCH   3  19
TORSDOF 8
ENDMDL
MODEL 4
REMARK VINA RESULT:     -12.8      4.234      9.534
REMARK  Name = 24883488
REMARK  8 active torsions:
REMARK  status: ('A' for Active; 'I' for Inactive)
REMARK    1  A    between atoms: N_2  and  C_11
REMARK    2  A    between atoms: C_3  and  C_19
REMARK    3  A    between atoms: C_19  and  C_20
REMARK    4  A    between atoms: C_20  and  C_23
REMARK    5  A    between atoms: N_22  and  C_25
REMARK    6  A    between atoms: C_27  and  O_31
REMARK    7  A    between atoms: O_31  and  C_32
REMARK    8  A    between atoms: C_32  and  C_34
REMARK                            x       y       z     vdW  Elec       q    Type
REMARK                         _______ _______ _______ _____ _____    ______ ____
ROOT
ATOM      1  O   UNL     1      35.500 -24.518 -15.382  0.00  0.00    -0.275 OA
ATOM      2  N   UNL     1      34.318 -22.776 -14.327  0.00  0.00    -0.284 N 
ATOM      3  C   UNL     1      35.455 -23.426 -14.825  0.00  0.00    +0.227 C 
ATOM      4  H   UNL     1      34.477 -21.911 -13.886  0.00  0.00    +0.155 HD
ENDROOT
BRANCH   2  11
ATOM      5  O   UNL     1      30.212 -21.632 -17.143  0.00  0.00    -0.282 OA
ATOM      6  O   UNL     1      28.528 -25.379 -13.736  0.00  0.00    -0.270 OA
ATOM      7  O   UNL     1      27.691 -22.456 -17.217  0.00  0.00    -0.266 OA
ATOM      8  N   UNL     1      28.104 -23.925 -15.467  0.00  0.00    -0.246 N 
ATOM      9  C   UNL     1      30.785 -23.075 -15.359  0.00  0.00    +0.049 C 
ATOM     10  C   UNL     1      30.328 -24.054 -14.476  0.00  0.00    +0.057 C 
ATOM     11  C   UNL     1      32.990 -23.200 -14.377  0.00  0.00    +0.050 C 
ATOM     12  C   UNL     1      32.116 -22.645 -15.312  0.00  0.00    +0.018 C 
ATOM     13  C   UNL     1      31.210 -24.606 -13.540  0.00  0.00    +0.006 C 
ATOM     14  C   UNL     1      32.539 -24.179 -13.493  0.00  0.00    +0.015 C 
ATOM     15  C   UNL     1      29.867 -22.490 -16.345  0.00  0.00    +0.249 C 
ATOM     16  C   UNL     1      28.926 -24.517 -14.514  0.00  0.00    +0.252 C 
ATOM     17  C   UNL     1      28.442 -22.953 -16.390  0.00  0.00    +0.291 C 
ATOM     18  H   UNL     1      27.171 -24.237 -15.489  0.00  0.00    +0.158 HD
ENDBRANCH   2  11
BRANCH   3  19
ATOM     19  C   UNL     1      36.728 -22.636 -14.572  0.00  0.00    +0.095 C 
BRANCH  19  20
ATOM     20  C   UNL     1      37.478 -22.362 -15.874  0.00  0.00    +0.095 C 
BRANCH  20  23
ATOM     21  O   UNL     1      36.988 -20.137 -16.597  0.00  0.00    -0.275 OA
ATOM     22  N   UNL     1      35.874 -21.936 -17.621  0.00  0.00    -0.284 N 
ATOM     23  C   UNL     1      36.751 -21.335 -16.726  0.00  0.00    +0.227 C 
ATOM     24  H   UNL     1      35.834 -22.920 -17.594  0.00  0.00    +0.155 HD
BRANCH  22  25
ATOM     25  C   UNL     1      35.034 -21.304 -18.565  0.00  0.00    +0.053 C 
ATOM     26  C   UNL     1      35.586 -20.496 -19.560  0.00  0.00    +0.052 C 
ATOM     27  C   UNL     1      34.756 -19.872 -20.492  0.00  0.00    +0.140 C 
ATOM     28  C   UNL     1      33.653 -21.488 -18.503  0.00  0.00    +0.015 C 
ATOM     29  C   UNL     1      33.374 -20.057 -20.429  0.00  0.00    +0.037 C 
ATOM     30  C   UNL     1      32.823 -20.865 -19.434  0.00  0.00    +0.004 C 
BRANCH  27  31
ATOM     31  O   UNL     1      35.293 -19.084 -21.462  0.00  0.00    -0.472 OA
BRANCH  31  32
ATOM     32  C   UNL     1      34.388 -18.300 -22.237  0.00  0.00    +0.243 C 
BRANCH  32  34
ATOM     33  F   UNL     1      34.559 -16.364 -20.941  0.00  0.00    -0.230 F 
ATOM     34  C   UNL     1      34.826 -16.854 -22.184  0.00  0.00    +0.240 C 
ENDBRANCH  32  34
ENDBRANCH  31  32
ENDBRANCH  27  31
ENDBRANCH  22  25
ENDBRANCH  20  23
ENDBRANCH  19  20
ENDBRANCH   3  19
TORSDOF 8
ENDMDL
MODEL 5
REMARK VINA RESULT:     -12.7      3.320     11.254
REMARK  Name = 24883488
REMARK  8 active torsions:
REMARK  status: ('A' for Active; 'I' for Inactive)
REMARK    1  A    between atoms: N_2  and  C_11
REMARK    2  A    between atoms: C_3  and  C_19
REMARK    3  A    between atoms: C_19  and  C_20
REMARK    4  A    between atoms: C_20  and  C_23
REMARK    5  A    between atoms: N_22  and  C_25
REMARK    6  A    between atoms: C_27  and  O_31
REMARK    7  A    between atoms: O_31  and  C_32
REMARK    8  A    between atoms: C_32  and  C_34
REMARK                            x       y       z     vdW  Elec       q    Type
REMARK                         _______ _______ _______ _____ _____    ______ ____
ROOT
ATOM      1  O   UNL     1      33.325 -23.583 -17.740  0.00  0.00    -0.275 OA
ATOM      2  N   UNL     1      34.675 -21.776 -17.066  0.00  0.00    -0.284 N 
ATOM      3  C   UNL     1      33.713 -22.424 -17.850  0.00  0.00    +0.227 C 
ATOM      4  H   UNL     1      34.878 -20.846 -17.317  0.00  0.00    +0.155 HD
ENDROOT
BRANCH   2  11
ATOM      5  O   UNL     1      33.474 -23.652 -12.468  0.00  0.00    -0.282 OA
ATOM      6  O   UNL     1      38.800 -23.887 -12.687  0.00  0.00    -0.270 OA
ATOM      7  O   UNL     1      34.844 -24.609 -10.408  0.00  0.00    -0.266 OA
ATOM      8  N   UNL     1      36.835 -24.247 -11.547  0.00  0.00    -0.246 N 
ATOM      9  C   UNL     1      35.414 -23.226 -13.751  0.00  0.00    +0.049 C 
ATOM     10  C   UNL     1      36.807 -23.295 -13.791  0.00  0.00    +0.057 C 
ATOM     11  C   UNL     1      35.384 -22.280 -15.975  0.00  0.00    +0.050 C 
ATOM     12  C   UNL     1      34.699 -22.718 -14.841  0.00  0.00    +0.018 C 
ATOM     13  C   UNL     1      37.488 -22.853 -14.931  0.00  0.00    +0.006 C 
ATOM     14  C   UNL     1      36.776 -22.348 -16.021  0.00  0.00    +0.015 C 
ATOM     15  C   UNL     1      34.691 -23.687 -12.559  0.00  0.00    +0.249 C 
ATOM     16  C   UNL     1      37.575 -23.828 -12.647  0.00  0.00    +0.252 C 
ATOM     17  C   UNL     1      35.461 -24.228 -11.392  0.00  0.00    +0.291 C 
ATOM     18  H   UNL     1      37.352 -24.601 -10.787  0.00  0.00    +0.158 HD
ENDBRANCH   2  11
BRANCH   3  19
ATOM     19  C   UNL     1      33.169 -21.530 -18.952  0.00  0.00    +0.095 C 
BRANCH  19  20
ATOM     20  C   UNL     1      34.295 -20.795 -19.675  0.00  0.00    +0.095 C 
BRANCH  20  23
ATOM     21  O   UNL     1      32.590 -19.709 -20.951  0.00  0.00    -0.275 OA
ATOM     22  N   UNL     1      34.706 -18.700 -20.790  0.00  0.00    -0.284 N 
ATOM     23  C   UNL     1      33.752 -19.683 -20.557  0.00  0.00    +0.227 C 
ATOM     24  H   UNL     1      35.586 -18.840 -20.370  0.00  0.00    +0.155 HD
BRANCH  22  25
ATOM     25  C   UNL     1      34.565 -17.522 -21.559  0.00  0.00    +0.053 C 
ATOM     26  C   UNL     1      34.359 -16.296 -20.926  0.00  0.00    +0.052 C 
ATOM     27  C   UNL     1      34.219 -15.134 -21.685  0.00  0.00    +0.140 C 
ATOM     28  C   UNL     1      34.630 -17.586 -22.951  0.00  0.00    +0.015 C 
ATOM     29  C   UNL     1      34.285 -15.199 -23.078  0.00  0.00    +0.037 C 
ATOM     30  C   UNL     1      34.490 -16.425 -23.711  0.00  0.00    +0.004 C 
BRANCH  27  31
ATOM     31  O   UNL     1      34.018 -13.938 -21.069  0.00  0.00    -0.472 OA
BRANCH  31  32
ATOM     32  C   UNL     1      33.037 -13.071 -21.637  0.00  0.00    +0.243 C 
BRANCH  32  34
ATOM     33  F   UNL     1      31.606 -13.880 -19.977  0.00  0.00    -0.230 F 
ATOM     34  C   UNL     1      32.017 -12.727 -20.575  0.00  0.00    +0.240 C 
ENDBRANCH  32  34
ENDBRANCH  31  32
ENDBRANCH  27  31
ENDBRANCH  22  25
ENDBRANCH  20  23
ENDBRANCH  19  20
ENDBRANCH   3  19
TORSDOF 8
ENDMDL
MODEL 6
REMARK VINA RESULT:     -12.6      2.522      3.906
REMARK  Name = 24883488
REMARK  8 active torsions:
REMARK  status: ('A' for Active; 'I' for Inactive)
REMARK    1  A    between atoms: N_2  and  C_11
REMARK    2  A    between atoms: C_3  and  C_19
REMARK    3  A    between atoms: C_19  and  C_20
REMARK    4  A    between atoms: C_20  and  C_23
REMARK    5  A    between atoms: N_22  and  C_25
REMARK    6  A    between atoms: C_27  and  O_31
REMARK    7  A    between atoms: O_31  and  C_32
REMARK    8  A    between atoms: C_32  and  C_34
REMARK                            x       y       z     vdW  Elec       q    Type
REMARK                         _______ _______ _______ _____ _____    ______ ____
ROOT
ATOM      1  O   UNL     1      36.904 -17.893 -21.826  0.00  0.00    -0.275 OA
ATOM      2  N   UNL     1      34.829 -17.547 -20.771  0.00  0.00    -0.284 N 
ATOM      3  C   UNL     1      36.025 -18.224 -21.038  0.00  0.00    +0.227 C 
ATOM      4  H   UNL     1      34.226 -17.977 -20.122  0.00  0.00    +0.155 HD
ENDROOT
BRANCH   2  11
ATOM      5  O   UNL     1      33.699 -15.811 -25.441  0.00  0.00    -0.282 OA
ATOM      6  O   UNL     1      32.790 -11.675 -22.193  0.00  0.00    -0.270 OA
ATOM      7  O   UNL     1      32.846 -13.505 -26.437  0.00  0.00    -0.266 OA
ATOM      8  N   UNL     1      32.817 -12.579 -24.308  0.00  0.00    -0.246 N 
ATOM      9  C   UNL     1      33.722 -15.010 -23.216  0.00  0.00    +0.049 C 
ATOM     10  C   UNL     1      33.479 -13.919 -22.381  0.00  0.00    +0.057 C 
ATOM     11  C   UNL     1      34.381 -16.339 -21.308  0.00  0.00    +0.050 C 
ATOM     12  C   UNL     1      34.174 -16.222 -22.682  0.00  0.00    +0.018 C 
ATOM     13  C   UNL     1      33.689 -14.043 -21.003  0.00  0.00    +0.006 C 
ATOM     14  C   UNL     1      34.139 -15.252 -20.469  0.00  0.00    +0.015 C 
ATOM     15  C   UNL     1      33.505 -14.889 -24.664  0.00  0.00    +0.249 C 
ATOM     16  C   UNL     1      33.003 -12.633 -22.931  0.00  0.00    +0.252 C 
ATOM     17  C   UNL     1      33.022 -13.588 -25.230  0.00  0.00    +0.291 C 
ATOM     18  H   UNL     1      32.499 -11.720 -24.669  0.00  0.00    +0.158 HD
ENDBRANCH   2  11
BRANCH   3  19
ATOM     19  C   UNL     1      36.144 -19.517 -20.247  0.00  0.00    +0.095 C 
BRANCH  19  20
ATOM     20  C   UNL     1      34.816 -20.268 -20.207  0.00  0.00    +0.095 C 
BRANCH  20  23
ATOM     21  O   UNL     1      34.227 -22.422 -19.354  0.00  0.00    -0.275 OA
ATOM     22  N   UNL     1      35.620 -21.032 -18.069  0.00  0.00    -0.284 N 
ATOM     23  C   UNL     1      34.835 -21.372 -19.164  0.00  0.00    +0.227 C 
ATOM     24  H   UNL     1      36.052 -20.148 -18.103  0.00  0.00    +0.155 HD
BRANCH  22  25
ATOM     25  C   UNL     1      35.873 -21.804 -16.913  0.00  0.00    +0.053 C 
ATOM     26  C   UNL     1      34.848 -22.558 -16.339  0.00  0.00    +0.052 C 
ATOM     27  C   UNL     1      35.097 -23.319 -15.197  0.00  0.00    +0.140 C 
ATOM     28  C   UNL     1      37.146 -21.812 -16.344  0.00  0.00    +0.015 C 
ATOM     29  C   UNL     1      36.372 -23.327 -14.629  0.00  0.00    +0.037 C 
ATOM     30  C   UNL     1      37.396 -22.574 -15.202  0.00  0.00    +0.004 C 
BRANCH  27  31
ATOM     31  O   UNL     1      34.099 -24.054 -14.637  0.00  0.00    -0.472 OA
BRANCH  31  32
ATOM     32  C   UNL     1      33.532 -23.562 -13.424  0.00  0.00    +0.243 C 
BRANCH  32  34
ATOM     33  F   UNL     1      31.685 -23.618 -14.852  0.00  0.00    -0.230 F 
ATOM     34  C   UNL     1      32.146 -23.032 -13.713  0.00  0.00    +0.240 C 
ENDBRANCH  32  34
ENDBRANCH  31  32
ENDBRANCH  27  31
ENDBRANCH  22  25
ENDBRANCH  20  23
ENDBRANCH  19  20
ENDBRANCH   3  19
TORSDOF 8
ENDMDL
MODEL 7
REMARK VINA RESULT:     -12.6      3.802     11.190
REMARK  Name = 24883488
REMARK  8 active torsions:
REMARK  status: ('A' for Active; 'I' for Inactive)
REMARK    1  A    between atoms: N_2  and  C_11
REMARK    2  A    between atoms: C_3  and  C_19
REMARK    3  A    between atoms: C_19  and  C_20
REMARK    4  A    between atoms: C_20  and  C_23
REMARK    5  A    between atoms: N_22  and  C_25
REMARK    6  A    between atoms: C_27  and  O_31
REMARK    7  A    between atoms: O_31  and  C_32
REMARK    8  A    between atoms: C_32  and  C_34
REMARK                            x       y       z     vdW  Elec       q    Type
REMARK                         _______ _______ _______ _____ _____    ______ ____
ROOT
ATOM      1  O   UNL     1      34.344 -22.370 -19.165  0.00  0.00    -0.275 OA
ATOM      2  N   UNL     1      35.851 -20.954 -18.039  0.00  0.00    -0.284 N 
ATOM      3  C   UNL     1      35.000 -21.336 -19.083  0.00  0.00    +0.227 C 
ATOM      4  H   UNL     1      36.318 -20.095 -18.157  0.00  0.00    +0.155 HD
ENDROOT
BRANCH   2  11
ATOM      5  O   UNL     1      33.072 -22.992 -14.267  0.00  0.00    -0.282 OA
ATOM      6  O   UNL     1      38.140 -23.956 -12.901  0.00  0.00    -0.270 OA
ATOM      7  O   UNL     1      33.615 -24.288 -12.017  0.00  0.00    -0.266 OA
ATOM      8  N   UNL     1      35.889 -24.123 -12.454  0.00  0.00    -0.246 N 
ATOM      9  C   UNL     1      35.351 -22.745 -14.848  0.00  0.00    +0.049 C 
ATOM     10  C   UNL     1      36.670 -23.006 -14.476  0.00  0.00    +0.057 C 
ATOM     11  C   UNL     1      36.123 -21.636 -16.852  0.00  0.00    +0.050 C 
ATOM     12  C   UNL     1      35.074 -22.059 -16.036  0.00  0.00    +0.018 C 
ATOM     13  C   UNL     1      37.718 -22.578 -15.299  0.00  0.00    +0.006 C 
ATOM     14  C   UNL     1      37.442 -21.895 -16.485  0.00  0.00    +0.015 C 
ATOM     15  C   UNL     1      34.244 -23.191 -13.991  0.00  0.00    +0.249 C 
ATOM     16  C   UNL     1      36.977 -23.728 -13.224  0.00  0.00    +0.252 C 
ATOM     17  C   UNL     1      34.547 -23.923 -12.719  0.00  0.00    +0.291 C 
ATOM     18  H   UNL     1      36.100 -24.604 -11.621  0.00  0.00    +0.158 HD
ENDBRANCH   2  11
BRANCH   3  19
ATOM     19  C   UNL     1      34.975 -20.316 -20.210  0.00  0.00    +0.095 C 
BRANCH  19  20
ATOM     20  C   UNL     1      36.198 -19.403 -20.158  0.00  0.00    +0.095 C 
BRANCH  20  23
ATOM     21  O   UNL     1      36.917 -18.173 -22.077  0.00  0.00    -0.275 OA
ATOM     22  N   UNL     1      34.977 -17.481 -20.945  0.00  0.00    -0.284 N 
ATOM     23  C   UNL     1      36.092 -18.279 -21.174  0.00  0.00    +0.227 C 
ATOM     24  H   UNL     1      34.412 -17.735 -20.179  0.00  0.00    +0.155 HD
BRANCH  22  25
ATOM     25  C   UNL     1      34.556 -16.350 -21.681  0.00  0.00    +0.053 C 
ATOM     26  C   UNL     1      34.141 -15.198 -21.013  0.00  0.00    +0.052 C 
ATOM     27  C   UNL     1      33.725 -14.082 -21.738  0.00  0.00    +0.140 C 
ATOM     28  C   UNL     1      34.556 -16.386 -23.075  0.00  0.00    +0.015 C 
ATOM     29  C   UNL     1      33.726 -14.118 -23.134  0.00  0.00    +0.037 C 
ATOM     30  C   UNL     1      34.141 -15.270 -23.802  0.00  0.00    +0.004 C 
BRANCH  27  31
ATOM     31  O   UNL     1      33.320 -12.958 -21.087  0.00  0.00    -0.472 OA
BRANCH  31  32
ATOM     32  C   UNL     1      31.975 -12.934 -20.611  0.00  0.00    +0.243 C 
BRANCH  32  34
ATOM     33  F   UNL     1      31.603 -10.789 -19.762  0.00  0.00    -0.230 F 
ATOM     34  C   UNL     1      31.393 -11.562 -20.864  0.00  0.00    +0.240 C 
ENDBRANCH  32  34
ENDBRANCH  31  32
ENDBRANCH  27  31
ENDBRANCH  22  25
ENDBRANCH  20  23
ENDBRANCH  19  20
ENDBRANCH   3  19
TORSDOF 8
ENDMDL
MODEL 8
REMARK VINA RESULT:     -12.5      3.521     11.110
REMARK  Name = 24883488
REMARK  8 active torsions:
REMARK  status: ('A' for Active; 'I' for Inactive)
REMARK    1  A    between atoms: N_2  and  C_11
REMARK    2  A    between atoms: C_3  and  C_19
REMARK    3  A    between atoms: C_19  and  C_20
REMARK    4  A    between atoms: C_20  and  C_23
REMARK    5  A    between atoms: N_22  and  C_25
REMARK    6  A    between atoms: C_27  and  O_31
REMARK    7  A    between atoms: O_31  and  C_32
REMARK    8  A    between atoms: C_32  and  C_34
REMARK                            x       y       z     vdW  Elec       q    Type
REMARK                         _______ _______ _______ _____ _____    ______ ____
ROOT
ATOM      1  O   UNL     1      33.107 -19.831 -20.500  0.00  0.00    -0.275 OA
ATOM      2  N   UNL     1      35.226 -20.630 -19.853  0.00  0.00    -0.284 N 
ATOM      3  C   UNL     1      34.317 -19.949 -20.672  0.00  0.00    +0.227 C 
ATOM      4  H   UNL     1      36.160 -20.641 -20.164  0.00  0.00    +0.155 HD
ENDROOT
BRANCH   2  11
ATOM      5  O   UNL     1      37.946 -21.836 -15.700  0.00  0.00    -0.282 OA
ATOM      6  O   UNL     1      33.071 -23.790 -14.752  0.00  0.00    -0.270 OA
ATOM      7  O   UNL     1      37.445 -23.106 -13.426  0.00  0.00    -0.266 OA
ATOM      8  N   UNL     1      35.247 -23.454 -14.086  0.00  0.00    -0.246 N 
ATOM      9  C   UNL     1      35.741 -22.113 -16.511  0.00  0.00    +0.049 C 
ATOM     10  C   UNL     1      34.473 -22.630 -16.246  0.00  0.00    +0.057 C 
ATOM     11  C   UNL     1      34.976 -21.297 -18.653  0.00  0.00    +0.050 C 
ATOM     12  C   UNL     1      35.997 -21.446 -17.714  0.00  0.00    +0.018 C 
ATOM     13  C   UNL     1      33.453 -22.477 -17.193  0.00  0.00    +0.006 C 
ATOM     14  C   UNL     1      33.707 -21.810 -18.393  0.00  0.00    +0.015 C 
ATOM     15  C   UNL     1      36.818 -22.269 -15.524  0.00  0.00    +0.249 C 
ATOM     16  C   UNL     1      34.189 -23.337 -14.981  0.00  0.00    +0.252 C 
ATOM     17  C   UNL     1      36.539 -22.986 -14.237  0.00  0.00    +0.291 C 
ATOM     18  H   UNL     1      35.052 -23.926 -13.245  0.00  0.00    +0.158 HD
ENDBRANCH   2  11
BRANCH   3  19
ATOM     19  C   UNL     1      34.982 -19.352 -21.901  0.00  0.00    +0.095 C 
BRANCH  19  20
ATOM     20  C   UNL     1      35.829 -18.135 -21.537  0.00  0.00    +0.095 C 
BRANCH  20  23
ATOM     21  O   UNL     1      34.622 -16.321 -20.553  0.00  0.00    -0.275 OA
ATOM     22  N   UNL     1      34.822 -16.416 -22.893  0.00  0.00    -0.284 N 
ATOM     23  C   UNL     1      35.009 -16.856 -21.588  0.00  0.00    +0.227 C 
ATOM     24  H   UNL     1      35.229 -16.969 -23.599  0.00  0.00    +0.155 HD
BRANCH  22  25
ATOM     25  C   UNL     1      34.117 -15.271 -23.327  0.00  0.00    +0.053 C 
ATOM     26  C   UNL     1      33.816 -14.252 -22.423  0.00  0.00    +0.052 C 
ATOM     27  C   UNL     1      33.120 -13.122 -22.851  0.00  0.00    +0.140 C 
ATOM     28  C   UNL     1      33.720 -15.160 -24.659  0.00  0.00    +0.015 C 
ATOM     29  C   UNL     1      32.724 -13.011 -24.185  0.00  0.00    +0.037 C 
ATOM     30  C   UNL     1      33.024 -14.030 -25.089  0.00  0.00    +0.004 C 
BRANCH  27  31
ATOM     31  O   UNL     1      32.826 -12.128 -21.969  0.00  0.00    -0.472 OA
BRANCH  31  32
ATOM     32  C   UNL     1      31.520 -11.559 -22.044  0.00  0.00    +0.243 C 
BRANCH  32  34
ATOM     33  F   UNL     1      31.863 -11.517 -19.734  0.00  0.00    -0.230 F 
ATOM     34  C   UNL     1      31.217 -10.861 -20.737  0.00  0.00    +0.240 C 
ENDBRANCH  32  34
ENDBRANCH  31  32
ENDBRANCH  27  31
ENDBRANCH  22  25
ENDBRANCH  20  23
ENDBRANCH  19  20
ENDBRANCH   3  19
TORSDOF 8
ENDMDL
MODEL 9
REMARK VINA RESULT:     -12.5      2.512      3.094
REMARK  Name = 24883488
REMARK  8 active torsions:
REMARK  status: ('A' for Active; 'I' for Inactive)
REMARK    1  A    between atoms: N_2  and  C_11
REMARK    2  A    between atoms: C_3  and  C_19
REMARK    3  A    between atoms: C_19  and  C_20
REMARK    4  A    between atoms: C_20  and  C_23
REMARK    5  A    between atoms: N_22  and  C_25
REMARK    6  A    between atoms: C_27  and  O_31
REMARK    7  A    between atoms: O_31  and  C_32
REMARK    8  A    between atoms: C_32  and  C_34
REMARK                            x       y       z     vdW  Elec       q    Type
REMARK                         _______ _______ _______ _____ _____    ______ ____
ROOT
ATOM      1  O   UNL     1      32.862 -20.077 -20.197  0.00  0.00    -0.275 OA
ATOM      2  N   UNL     1      34.933 -19.261 -20.963  0.00  0.00    -0.284 N 
ATOM      3  C   UNL     1      34.088 -20.108 -20.236  0.00  0.00    +0.227 C 
ATOM      4  H   UNL     1      35.898 -19.419 -20.852  0.00  0.00    +0.155 HD
ENDROOT
BRANCH   2  11
ATOM      5  O   UNL     1      34.225 -14.221 -20.518  0.00  0.00    -0.282 OA
ATOM      6  O   UNL     1      33.298 -15.278 -25.666  0.00  0.00    -0.270 OA
ATOM      7  O   UNL     1      33.558 -12.260 -22.175  0.00  0.00    -0.266 OA
ATOM      8  N   UNL     1      33.424 -13.771 -23.933  0.00  0.00    -0.246 N 
ATOM      9  C   UNL     1      34.128 -15.876 -22.203  0.00  0.00    +0.049 C 
ATOM     10  C   UNL     1      33.883 -16.135 -23.552  0.00  0.00    +0.057 C 
ATOM     11  C   UNL     1      34.582 -18.220 -21.823  0.00  0.00    +0.050 C 
ATOM     12  C   UNL     1      34.478 -16.917 -21.336  0.00  0.00    +0.018 C 
ATOM     13  C   UNL     1      33.989 -17.445 -24.035  0.00  0.00    +0.006 C 
ATOM     14  C   UNL     1      34.339 -18.484 -23.170  0.00  0.00    +0.015 C 
ATOM     15  C   UNL     1      34.020 -14.506 -21.687  0.00  0.00    +0.249 C 
ATOM     16  C   UNL     1      33.512 -15.046 -24.479  0.00  0.00    +0.252 C 
ATOM     17  C   UNL     1      33.644 -13.395 -22.620  0.00  0.00    +0.291 C 
ATOM     18  H   UNL     1      33.177 -13.049 -24.555  0.00  0.00    +0.158 HD
ENDBRANCH   2  11
BRANCH   3  19
ATOM     19  C   UNL     1      34.859 -21.122 -19.407  0.00  0.00    +0.095 C 
BRANCH  19  20
ATOM     20  C   UNL     1      33.986 -22.319 -19.042  0.00  0.00    +0.095 C 
BRANCH  20  23
ATOM     21  O   UNL     1      34.778 -22.325 -16.787  0.00  0.00    -0.275 OA
ATOM     22  N   UNL     1      32.485 -22.648 -17.186  0.00  0.00    -0.284 N 
ATOM     23  C   UNL     1      33.813 -22.439 -17.537  0.00  0.00    +0.227 C 
ATOM     24  H   UNL     1      31.841 -22.690 -17.931  0.00  0.00    +0.155 HD
BRANCH  22  25
ATOM     25  C   UNL     1      31.947 -22.806 -15.889  0.00  0.00    +0.053 C 
ATOM     26  C   UNL     1      32.775 -23.184 -14.832  0.00  0.00    +0.052 C 
ATOM     27  C   UNL     1      32.244 -23.341 -13.551  0.00  0.00    +0.140 C 
ATOM     28  C   UNL     1      30.588 -22.584 -15.665  0.00  0.00    +0.015 C 
ATOM     29  C   UNL     1      30.884 -23.118 -13.328  0.00  0.00    +0.037 C 
ATOM     30  C   UNL     1      30.056 -22.740 -14.385  0.00  0.00    +0.004 C 
BRANCH  27  31
ATOM     31  O   UNL     1      33.051 -23.710 -12.519  0.00  0.00    -0.472 OA
BRANCH  31  32
ATOM     32  C   UNL     1      34.432 -23.906 -12.815  0.00  0.00    +0.243 C 
BRANCH  32  34
ATOM     33  F   UNL     1      35.131 -23.174 -10.709  0.00  0.00    -0.230 F 
ATOM     34  C   UNL     1      35.159 -24.256 -11.536  0.00  0.00    +0.240 C 
ENDBRANCH  32  34
ENDBRANCH  31  32
ENDBRANCH  27  31
ENDBRANCH  22  25
ENDBRANCH  20  23
ENDBRANCH  19  20
ENDBRANCH   3  19
TORSDOF 8
ENDMDL
