MODEL 1
REMARK VINA RESULT:     -12.4      0.000      0.000
REMARK  Name = 6450551
REMARK  5 active torsions:
REMARK  status: ('A' for Active; 'I' for Inactive)
REMARK    1  A    between atoms: C_5  and  C_11
REMARK    2  A    between atoms: C_7  and  S_19
REMARK    3  A    between atoms: C_12  and  C_14
REMARK    4  A    between atoms: S_19  and  C_20
REMARK    5  A    between atoms: C_21  and  C_28
REMARK                            x       y       z     vdW  Elec       q    Type
REMARK                         _______ _______ _______ _____ _____    ______ ____
ROOT
ATOM      1  N   UNL     1      36.456 -19.560 -19.982  0.00  0.00    -0.276 N 
ATOM      2  N   UNL     1      36.273 -18.396 -20.628  0.00  0.00    -0.173 NA
ATOM      3  C   UNL     1      34.294 -19.511 -20.345  0.00  0.00    +0.036 A 
ATOM      4  C   UNL     1      35.308 -20.278 -19.781  0.00  0.00    +0.076 A 
ATOM      5  C   UNL     1      34.956 -18.369 -20.846  0.00  0.00    +0.102 A 
ATOM      6  C   UNL     1      35.078 -21.509 -19.164  0.00  0.00    +0.025 C 
ATOM      7  C   UNL     1      33.756 -21.964 -19.129  0.00  0.00    +0.031 C 
ATOM      8  C   UNL     1      32.971 -19.981 -20.301  0.00  0.00    +0.004 C 
ATOM      9  C   UNL     1      32.719 -21.214 -19.687  0.00  0.00    +0.007 C 
ATOM     10  H   UNL     1      37.341 -19.871 -19.681  0.00  0.00    +0.189 HD
ENDROOT
BRANCH   5  11
ATOM     11  C   UNL     1      34.307 -17.298 -21.514  0.00  0.00    +0.022 C 
ATOM     12  C   UNL     1      34.875 -16.312 -22.259  0.00  0.00    +0.021 C 
BRANCH  12  14
ATOM     13  N   UNL     1      33.792 -15.449 -24.195  0.00  0.00    -0.244 NA
ATOM     14  C   UNL     1      34.144 -15.216 -22.920  0.00  0.00    +0.081 C 
ATOM     15  C   UNL     1      33.880 -14.064 -22.217  0.00  0.00    +0.019 C 
ATOM     16  C   UNL     1      33.188 -13.057 -22.881  0.00  0.00    +0.003 C 
ATOM     17  C   UNL     1      33.123 -14.449 -24.810  0.00  0.00    +0.099 C 
ATOM     18  C   UNL     1      32.800 -13.245 -24.203  0.00  0.00    +0.021 C 
ENDBRANCH  12  14
ENDBRANCH   5  11
BRANCH   7  19
ATOM     19  S   UNL     1      33.391 -23.531 -18.355  0.00  0.00    -0.087 S 
BRANCH  19  20
ATOM     20  C   UNL     1      32.656 -22.994 -16.817  0.00  0.00    +0.034 C 
ATOM     21  C   UNL     1      33.406 -22.855 -15.647  0.00  0.00    +0.059 C 
ATOM     22  C   UNL     1      31.289 -22.711 -16.802  0.00  0.00    +0.007 C 
ATOM     23  C   UNL     1      32.791 -22.433 -14.469  0.00  0.00    +0.005 C 
ATOM     24  C   UNL     1      30.674 -22.289 -15.623  0.00  0.00    +0.001 C 
ATOM     25  C   UNL     1      31.425 -22.150 -14.456  0.00  0.00    +0.000 C 
BRANCH  21  28
ATOM     26  O   UNL     1      35.242 -24.296 -15.424  0.00  0.00    -0.270 OA
ATOM     27  N   UNL     1      35.699 -22.054 -15.793  0.00  0.00    -0.299 N 
ATOM     28  C   UNL     1      34.836 -23.137 -15.603  0.00  0.00    +0.246 C 
ATOM     29  C   UNL     1      37.140 -22.175 -15.801  0.00  0.00    +0.111 C 
ATOM     30  H   UNL     1      35.304 -21.162 -15.929  0.00  0.00    +0.150 HD
ENDBRANCH  21  28
ENDBRANCH  19  20
ENDBRANCH   7  19
TORSDOF 5
ENDMDL
MODEL 2
REMARK VINA RESULT:     -11.9      3.596      9.743
REMARK  Name = 6450551
REMARK  5 active torsions:
REMARK  status: ('A' for Active; 'I' for Inactive)
REMARK    1  A    between atoms: C_5  and  C_11
REMARK    2  A    between atoms: C_7  and  S_19
REMARK    3  A    between atoms: C_12  and  C_14
REMARK    4  A    between atoms: S_19  and  C_20
REMARK    5  A    between atoms: C_21  and  C_28
REMARK                            x       y       z     vdW  Elec       q    Type
REMARK                         _______ _______ _______ _____ _____    ______ ____
ROOT
ATOM      1  N   UNL     1      32.173 -20.641 -20.128  0.00  0.00    -0.276 N 
ATOM      2  N   UNL     1      32.522 -21.506 -19.160  0.00  0.00    -0.173 NA
ATOM      3  C   UNL     1      34.342 -20.367 -19.954  0.00  0.00    +0.036 A 
ATOM      4  C   UNL     1      33.220 -19.927 -20.646  0.00  0.00    +0.076 A 
ATOM      5  C   UNL     1      33.843 -21.335 -19.056  0.00  0.00    +0.102 A 
ATOM      6  C   UNL     1      33.275 -18.951 -21.644  0.00  0.00    +0.025 C 
ATOM      7  C   UNL     1      34.532 -18.412 -21.935  0.00  0.00    +0.031 C 
ATOM      8  C   UNL     1      35.599 -19.815 -20.257  0.00  0.00    +0.004 C 
ATOM      9  C   UNL     1      35.675 -18.836 -21.255  0.00  0.00    +0.007 C 
ATOM     10  H   UNL     1      31.246 -20.531 -20.438  0.00  0.00    +0.189 HD
ENDROOT
BRANCH   5  11
ATOM     11  C   UNL     1      34.643 -22.061 -18.136  0.00  0.00    +0.022 C 
ATOM     12  C   UNL     1      34.497 -22.144 -16.787  0.00  0.00    +0.021 C 
BRANCH  12  14
ATOM     13  N   UNL     1      34.838 -24.037 -15.384  0.00  0.00    -0.244 NA
ATOM     14  C   UNL     1      35.373 -22.908 -15.881  0.00  0.00    +0.081 C 
ATOM     15  C   UNL     1      36.636 -22.437 -15.608  0.00  0.00    +0.019 C 
ATOM     16  C   UNL     1      37.425 -23.191 -14.748  0.00  0.00    +0.003 C 
ATOM     17  C   UNL     1      35.634 -24.744 -14.552  0.00  0.00    +0.099 C 
ATOM     18  C   UNL     1      36.922 -24.368 -14.204  0.00  0.00    +0.021 C 
ENDBRANCH  12  14
ENDBRANCH   5  11
BRANCH   7  19
ATOM     19  S   UNL     1      34.674 -17.160 -23.200  0.00  0.00    -0.087 S 
BRANCH  19  20
ATOM     20  C   UNL     1      34.140 -15.706 -22.309  0.00  0.00    +0.034 C 
ATOM     21  C   UNL     1      33.615 -14.589 -22.963  0.00  0.00    +0.059 C 
ATOM     22  C   UNL     1      34.259 -15.703 -20.918  0.00  0.00    +0.007 C 
ATOM     23  C   UNL     1      33.210 -13.475 -22.227  0.00  0.00    +0.005 C 
ATOM     24  C   UNL     1      33.854 -14.589 -20.183  0.00  0.00    +0.001 C 
ATOM     25  C   UNL     1      33.329 -13.475 -20.838  0.00  0.00    +0.000 C 
BRANCH  21  28
ATOM     26  O   UNL     1      33.853 -15.480 -25.118  0.00  0.00    -0.270 OA
ATOM     27  N   UNL     1      32.858 -13.394 -24.943  0.00  0.00    -0.299 N 
ATOM     28  C   UNL     1      33.467 -14.535 -24.413  0.00  0.00    +0.246 C 
ATOM     29  C   UNL     1      32.618 -13.203 -26.356  0.00  0.00    +0.111 C 
ATOM     30  H   UNL     1      32.577 -12.684 -24.321  0.00  0.00    +0.150 HD
ENDBRANCH  21  28
ENDBRANCH  19  20
ENDBRANCH   7  19
TORSDOF 5
ENDMDL
MODEL 3
REMARK VINA RESULT:     -11.8      2.654      4.895
REMARK  Name = 6450551
REMARK  5 active torsions:
REMARK  status: ('A' for Active; 'I' for Inactive)
REMARK    1  A    between atoms: C_5  and  C_11
REMARK    2  A    between atoms: C_7  and  S_19
REMARK    3  A    between atoms: C_12  and  C_14
REMARK    4  A    between atoms: S_19  and  C_20
REMARK    5  A    between atoms: C_21  and  C_28
REMARK                            x       y       z     vdW  Elec       q    Type
REMARK                         _______ _______ _______ _____ _____    ______ ____
ROOT
ATOM      1  N   UNL     1      33.836 -16.355 -24.981  0.00  0.00    -0.276 N 
ATOM      2  N   UNL     1      33.321 -15.126 -25.156  0.00  0.00    -0.173 NA
ATOM      3  C   UNL     1      33.930 -15.471 -22.977  0.00  0.00    +0.036 A 
ATOM      4  C   UNL     1      34.220 -16.625 -23.695  0.00  0.00    +0.076 A 
ATOM      5  C   UNL     1      33.381 -14.591 -23.934  0.00  0.00    +0.102 A 
ATOM      6  C   UNL     1      34.787 -17.761 -23.114  0.00  0.00    +0.025 C 
ATOM      7  C   UNL     1      35.063 -17.702 -21.745  0.00  0.00    +0.031 C 
ATOM      8  C   UNL     1      34.213 -15.426 -21.601  0.00  0.00    +0.004 C 
ATOM      9  C   UNL     1      34.782 -16.556 -20.999  0.00  0.00    +0.007 C 
ATOM     10  H   UNL     1      33.927 -17.006 -25.714  0.00  0.00    +0.189 HD
ENDROOT
BRANCH   5  11
ATOM     11  C   UNL     1      32.934 -13.274 -23.648  0.00  0.00    +0.022 C 
ATOM     12  C   UNL     1      32.387 -12.811 -22.493  0.00  0.00    +0.021 C 
BRANCH  12  14
ATOM     13  N   UNL     1      32.329 -10.532 -23.180  0.00  0.00    -0.244 NA
ATOM     14  C   UNL     1      31.929 -11.428 -22.262  0.00  0.00    +0.081 C 
ATOM     15  C   UNL     1      31.153 -11.151 -21.161  0.00  0.00    +0.019 C 
ATOM     16  C   UNL     1      30.746  -9.834 -20.985  0.00  0.00    +0.003 C 
ATOM     17  C   UNL     1      31.915  -9.262 -22.976  0.00  0.00    +0.099 C 
ATOM     18  C   UNL     1      31.131  -8.865 -21.904  0.00  0.00    +0.021 C 
ENDBRANCH  12  14
ENDBRANCH   5  11
BRANCH   7  19
ATOM     19  S   UNL     1      35.788 -19.121 -20.937  0.00  0.00    -0.087 S 
BRANCH  19  20
ATOM     20  C   UNL     1      34.336 -19.914 -20.263  0.00  0.00    +0.034 C 
ATOM     21  C   UNL     1      34.419 -20.871 -19.249  0.00  0.00    +0.059 C 
ATOM     22  C   UNL     1      33.089 -19.558 -20.779  0.00  0.00    +0.007 C 
ATOM     23  C   UNL     1      33.259 -21.465 -18.752  0.00  0.00    +0.005 C 
ATOM     24  C   UNL     1      31.929 -20.152 -20.283  0.00  0.00    +0.001 C 
ATOM     25  C   UNL     1      32.015 -21.107 -19.268  0.00  0.00    +0.000 C 
BRANCH  21  28
ATOM     26  O   UNL     1      36.627 -21.641 -19.406  0.00  0.00    -0.270 OA
ATOM     27  N   UNL     1      35.803 -21.227 -17.280  0.00  0.00    -0.299 N 
ATOM     28  C   UNL     1      35.693 -21.283 -18.672  0.00  0.00    +0.246 C 
ATOM     29  C   UNL     1      37.007 -21.580 -16.561  0.00  0.00    +0.111 C 
ATOM     30  H   UNL     1      35.019 -20.932 -16.761  0.00  0.00    +0.150 HD
ENDBRANCH  21  28
ENDBRANCH  19  20
ENDBRANCH   7  19
TORSDOF 5
ENDMDL
MODEL 4
REMARK VINA RESULT:     -11.5      1.405      2.499
REMARK  Name = 6450551
REMARK  5 active torsions:
REMARK  status: ('A' for Active; 'I' for Inactive)
REMARK    1  A    between atoms: C_5  and  C_11
REMARK    2  A    between atoms: C_7  and  S_19
REMARK    3  A    between atoms: C_12  and  C_14
REMARK    4  A    between atoms: S_19  and  C_20
REMARK    5  A    between atoms: C_21  and  C_28
REMARK                            x       y       z     vdW  Elec       q    Type
REMARK                         _______ _______ _______ _____ _____    ______ ____
ROOT
ATOM      1  N   UNL     1      36.408 -19.851 -19.938  0.00  0.00    -0.276 N 
ATOM      2  N   UNL     1      36.371 -18.835 -20.816  0.00  0.00    -0.173 NA
ATOM      3  C   UNL     1      34.269 -19.618 -20.359  0.00  0.00    +0.036 A 
ATOM      4  C   UNL     1      35.179 -20.366 -19.622  0.00  0.00    +0.076 A 
ATOM      5  C   UNL     1      35.067 -18.696 -21.070  0.00  0.00    +0.102 A 
ATOM      6  C   UNL     1      34.798 -21.403 -18.768  0.00  0.00    +0.025 C 
ATOM      7  C   UNL     1      33.430 -21.676 -18.673  0.00  0.00    +0.031 C 
ATOM      8  C   UNL     1      32.897 -19.904 -20.253  0.00  0.00    +0.004 C 
ATOM      9  C   UNL     1      32.494 -20.940 -19.402  0.00  0.00    +0.007 C 
ATOM     10  H   UNL     1      37.247 -20.196 -19.555  0.00  0.00    +0.189 HD
ENDROOT
BRANCH   5  11
ATOM     11  C   UNL     1      34.557 -17.718 -21.964  0.00  0.00    +0.022 C 
ATOM     12  C   UNL     1      34.658 -16.365 -21.868  0.00  0.00    +0.021 C 
BRANCH  12  14
ATOM     13  N   UNL     1      33.826 -15.894 -24.048  0.00  0.00    -0.244 NA
ATOM     14  C   UNL     1      34.093 -15.399 -22.828  0.00  0.00    +0.081 C 
ATOM     15  C   UNL     1      33.883 -14.100 -22.430  0.00  0.00    +0.019 C 
ATOM     16  C   UNL     1      33.349 -13.225 -23.369  0.00  0.00    +0.003 C 
ATOM     17  C   UNL     1      33.309 -15.016 -24.935  0.00  0.00    +0.099 C 
ATOM     18  C   UNL     1      33.054 -13.683 -24.648  0.00  0.00    +0.021 C 
ENDBRANCH  12  14
ENDBRANCH   5  11
BRANCH   7  19
ATOM     19  S   UNL     1      32.873 -22.990 -17.599  0.00  0.00    -0.087 S 
BRANCH  19  20
ATOM     20  C   UNL     1      33.979 -22.792 -16.210  0.00  0.00    +0.034 C 
ATOM     21  C   UNL     1      33.552 -22.976 -14.892  0.00  0.00    +0.059 C 
ATOM     22  C   UNL     1      35.306 -22.442 -16.466  0.00  0.00    +0.007 C 
ATOM     23  C   UNL     1      34.450 -22.811 -13.838  0.00  0.00    +0.005 C 
ATOM     24  C   UNL     1      36.204 -22.278 -15.411  0.00  0.00    +0.001 C 
ATOM     25  C   UNL     1      35.775 -22.462 -14.096  0.00  0.00    +0.000 C 
BRANCH  21  28
ATOM     26  O   UNL     1      31.917 -24.478 -14.140  0.00  0.00    -0.270 OA
ATOM     27  N   UNL     1      31.206 -22.352 -14.729  0.00  0.00    -0.299 N 
ATOM     28  C   UNL     1      32.179 -23.341 -14.564  0.00  0.00    +0.246 C 
ATOM     29  C   UNL     1      29.807 -22.552 -14.424  0.00  0.00    +0.111 C 
ATOM     30  H   UNL     1      31.489 -21.472 -15.070  0.00  0.00    +0.150 HD
ENDBRANCH  21  28
ENDBRANCH  19  20
ENDBRANCH   7  19
TORSDOF 5
ENDMDL
MODEL 5
REMARK VINA RESULT:     -11.4      5.204     10.856
REMARK  Name = 6450551
REMARK  5 active torsions:
REMARK  status: ('A' for Active; 'I' for Inactive)
REMARK    1  A    between atoms: C_5  and  C_11
REMARK    2  A    between atoms: C_7  and  S_19
REMARK    3  A    between atoms: C_12  and  C_14
REMARK    4  A    between atoms: S_19  and  C_20
REMARK    5  A    between atoms: C_21  and  C_28
REMARK                            x       y       z     vdW  Elec       q    Type
REMARK                         _______ _______ _______ _____ _____    ______ ____
ROOT
ATOM      1  N   UNL     1      33.440 -16.433 -25.084  0.00  0.00    -0.276 N 
ATOM      2  N   UNL     1      33.784 -17.551 -24.424  0.00  0.00    -0.173 NA
ATOM      3  C   UNL     1      33.935 -15.708 -23.075  0.00  0.00    +0.036 A 
ATOM      4  C   UNL     1      33.510 -15.292 -24.331  0.00  0.00    +0.076 A 
ATOM      5  C   UNL     1      34.084 -17.106 -23.201  0.00  0.00    +0.102 A 
ATOM      6  C   UNL     1      33.239 -13.957 -24.640  0.00  0.00    +0.025 C 
ATOM      7  C   UNL     1      33.415 -13.021 -23.616  0.00  0.00    +0.031 C 
ATOM      8  C   UNL     1      34.106 -14.756 -22.056  0.00  0.00    +0.004 C 
ATOM      9  C   UNL     1      33.842 -13.412 -22.345  0.00  0.00    +0.007 C 
ATOM     10  H   UNL     1      33.163 -16.434 -26.029  0.00  0.00    +0.189 HD
ENDROOT
BRANCH   5  11
ATOM     11  C   UNL     1      34.507 -17.964 -22.152  0.00  0.00    +0.022 C 
ATOM     12  C   UNL     1      33.832 -19.008 -21.603  0.00  0.00    +0.021 C 
BRANCH  12  14
ATOM     13  N   UNL     1      35.639 -19.756 -20.246  0.00  0.00    -0.244 NA
ATOM     14  C   UNL     1      34.323 -19.856 -20.502  0.00  0.00    +0.081 C 
ATOM     15  C   UNL     1      33.439 -20.668 -19.832  0.00  0.00    +0.019 C 
ATOM     16  C   UNL     1      33.949 -21.450 -18.801  0.00  0.00    +0.003 C 
ATOM     17  C   UNL     1      36.099 -20.530 -19.239  0.00  0.00    +0.099 C 
ATOM     18  C   UNL     1      35.303 -21.387 -18.493  0.00  0.00    +0.021 C 
ENDBRANCH  12  14
ENDBRANCH   5  11
BRANCH   7  19
ATOM     19  S   UNL     1      33.088 -11.296 -23.942  0.00  0.00    -0.087 S 
BRANCH  19  20
ATOM     20  C   UNL     1      32.225 -10.820 -22.452  0.00  0.00    +0.034 C 
ATOM     21  C   UNL     1      31.867  -9.495 -22.196  0.00  0.00    +0.059 C 
ATOM     22  C   UNL     1      31.907 -11.815 -21.526  0.00  0.00    +0.007 C 
ATOM     23  C   UNL     1      31.193  -9.168 -21.019  0.00  0.00    +0.005 C 
ATOM     24  C   UNL     1      31.233 -11.489 -20.349  0.00  0.00    +0.001 C 
ATOM     25  C   UNL     1      30.877 -10.164 -20.096  0.00  0.00    +0.000 C 
BRANCH  21  28
ATOM     26  O   UNL     1      31.328  -8.043 -23.955  0.00  0.00    -0.270 OA
ATOM     27  N   UNL     1      33.432  -7.819 -23.010  0.00  0.00    -0.299 N 
ATOM     28  C   UNL     1      32.173  -8.413 -23.125  0.00  0.00    +0.246 C 
ATOM     29  C   UNL     1      33.875  -6.722 -23.841  0.00  0.00    +0.111 C 
ATOM     30  H   UNL     1      34.051  -8.167 -22.327  0.00  0.00    +0.150 HD
ENDBRANCH  21  28
ENDBRANCH  19  20
ENDBRANCH   7  19
TORSDOF 5
ENDMDL
MODEL 6
REMARK VINA RESULT:     -11.3      3.492      9.023
REMARK  Name = 6450551
REMARK  5 active torsions:
REMARK  status: ('A' for Active; 'I' for Inactive)
REMARK    1  A    between atoms: C_5  and  C_11
REMARK    2  A    between atoms: C_7  and  S_19
REMARK    3  A    between atoms: C_12  and  C_14
REMARK    4  A    between atoms: S_19  and  C_20
REMARK    5  A    between atoms: C_21  and  C_28
REMARK                            x       y       z     vdW  Elec       q    Type
REMARK                         _______ _______ _______ _____ _____    ______ ____
ROOT
ATOM      1  N   UNL     1      35.859 -21.676 -17.803  0.00  0.00    -0.276 N 
ATOM      2  N   UNL     1      34.922 -22.400 -17.168  0.00  0.00    -0.173 NA
ATOM      3  C   UNL     1      33.998 -21.097 -18.809  0.00  0.00    +0.036 A 
ATOM      4  C   UNL     1      35.370 -20.873 -18.798  0.00  0.00    +0.076 A 
ATOM      5  C   UNL     1      33.791 -22.046 -17.784  0.00  0.00    +0.102 A 
ATOM      6  C   UNL     1      36.004 -19.988 -19.673  0.00  0.00    +0.025 C 
ATOM      7  C   UNL     1      35.192 -19.311 -20.588  0.00  0.00    +0.031 C 
ATOM      8  C   UNL     1      33.196 -20.411 -19.735  0.00  0.00    +0.004 C 
ATOM      9  C   UNL     1      33.811 -19.518 -20.621  0.00  0.00    +0.007 C 
ATOM     10  H   UNL     1      36.815 -21.719 -17.571  0.00  0.00    +0.189 HD
ENDROOT
BRANCH   5  11
ATOM     11  C   UNL     1      32.522 -22.577 -17.430  0.00  0.00    +0.022 C 
ATOM     12  C   UNL     1      31.779 -22.299 -16.326  0.00  0.00    +0.021 C 
BRANCH  12  14
ATOM     13  N   UNL     1      29.425 -22.369 -16.670  0.00  0.00    -0.244 NA
ATOM     14  C   UNL     1      30.469 -22.896 -16.009  0.00  0.00    +0.081 C 
ATOM     15  C   UNL     1      30.399 -23.916 -15.090  0.00  0.00    +0.019 C 
ATOM     16  C   UNL     1      29.143 -24.447 -14.823  0.00  0.00    +0.003 C 
ATOM     17  C   UNL     1      28.219 -22.909 -16.385  0.00  0.00    +0.099 C 
ATOM     18  C   UNL     1      28.026 -23.940 -15.478  0.00  0.00    +0.021 C 
ENDBRANCH  12  14
ENDBRANCH   5  11
BRANCH   7  19
ATOM     19  S   UNL     1      35.937 -18.163 -21.736  0.00  0.00    -0.087 S 
BRANCH  19  20
ATOM     20  C   UNL     1      34.699 -18.110 -23.024  0.00  0.00    +0.034 C 
ATOM     21  C   UNL     1      34.037 -16.928 -23.365  0.00  0.00    +0.059 C 
ATOM     22  C   UNL     1      34.396 -19.294 -23.698  0.00  0.00    +0.007 C 
ATOM     23  C   UNL     1      33.078 -16.933 -24.377  0.00  0.00    +0.005 C 
ATOM     24  C   UNL     1      33.437 -19.298 -24.710  0.00  0.00    +0.001 C 
ATOM     25  C   UNL     1      32.777 -18.117 -25.049  0.00  0.00    +0.000 C 
BRANCH  21  28
ATOM     26  O   UNL     1      34.916 -14.757 -23.291  0.00  0.00    -0.270 OA
ATOM     27  N   UNL     1      33.844 -15.527 -21.386  0.00  0.00    -0.299 N 
ATOM     28  C   UNL     1      34.312 -15.662 -22.695  0.00  0.00    +0.246 C 
ATOM     29  C   UNL     1      34.015 -14.326 -20.599  0.00  0.00    +0.111 C 
ATOM     30  H   UNL     1      33.372 -16.289 -20.977  0.00  0.00    +0.150 HD
ENDBRANCH  21  28
ENDBRANCH  19  20
ENDBRANCH   7  19
TORSDOF 5
ENDMDL
MODEL 7
REMARK VINA RESULT:     -11.0      5.750     11.482
REMARK  Name = 6450551
REMARK  5 active torsions:
REMARK  status: ('A' for Active; 'I' for Inactive)
REMARK    1  A    between atoms: C_5  and  C_11
REMARK    2  A    between atoms: C_7  and  S_19
REMARK    3  A    between atoms: C_12  and  C_14
REMARK    4  A    between atoms: S_19  and  C_20
REMARK    5  A    between atoms: C_21  and  C_28
REMARK                            x       y       z     vdW  Elec       q    Type
REMARK                         _______ _______ _______ _____ _____    ______ ____
ROOT
ATOM      1  N   UNL     1      33.884 -13.173 -23.966  0.00  0.00    -0.276 N 
ATOM      2  N   UNL     1      34.445 -14.344 -23.620  0.00  0.00    -0.173 NA
ATOM      3  C   UNL     1      33.044 -13.577 -21.981  0.00  0.00    +0.036 A 
ATOM      4  C   UNL     1      33.033 -12.659 -23.024  0.00  0.00    +0.076 A 
ATOM      5  C   UNL     1      33.931 -14.587 -22.412  0.00  0.00    +0.102 A 
ATOM      6  C   UNL     1      32.269 -11.490 -23.002  0.00  0.00    +0.025 C 
ATOM      7  C   UNL     1      31.492 -11.262 -21.863  0.00  0.00    +0.031 C 
ATOM      8  C   UNL     1      32.257 -13.335 -20.842  0.00  0.00    +0.004 C 
ATOM      9  C   UNL     1      31.484 -12.168 -20.800  0.00  0.00    +0.007 C 
ATOM     10  H   UNL     1      34.070 -12.723 -24.821  0.00  0.00    +0.189 HD
ENDROOT
BRANCH   5  11
ATOM     11  C   UNL     1      34.255 -15.744 -21.656  0.00  0.00    +0.022 C 
ATOM     12  C   UNL     1      34.657 -16.958 -22.118  0.00  0.00    +0.021 C 
BRANCH  12  14
ATOM     13  N   UNL     1      36.198 -18.135 -20.736  0.00  0.00    -0.244 NA
ATOM     14  C   UNL     1      34.967 -18.129 -21.277  0.00  0.00    +0.081 C 
ATOM     15  C   UNL     1      34.016 -19.106 -21.106  0.00  0.00    +0.019 C 
ATOM     16  C   UNL     1      34.354 -20.191 -20.306  0.00  0.00    +0.003 C 
ATOM     17  C   UNL     1      36.492 -19.205 -19.965  0.00  0.00    +0.099 C 
ATOM     18  C   UNL     1      35.614 -20.250 -19.721  0.00  0.00    +0.021 C 
ENDBRANCH  12  14
ENDBRANCH   5  11
BRANCH   7  19
ATOM     19  S   UNL     1      30.491  -9.786 -21.768  0.00  0.00    -0.087 S 
BRANCH  19  20
ATOM     20  C   UNL     1      31.722  -8.517 -22.036  0.00  0.00    +0.034 C 
ATOM     21  C   UNL     1      32.217  -7.735 -20.990  0.00  0.00    +0.059 C 
ATOM     22  C   UNL     1      32.189  -8.315 -23.335  0.00  0.00    +0.007 C 
ATOM     23  C   UNL     1      33.177  -6.756 -21.244  0.00  0.00    +0.005 C 
ATOM     24  C   UNL     1      33.150  -7.335 -23.590  0.00  0.00    +0.001 C 
ATOM     25  C   UNL     1      33.643  -6.556 -22.543  0.00  0.00    +0.000 C 
BRANCH  21  28
ATOM     26  O   UNL     1      31.280  -6.943 -18.993  0.00  0.00    -0.270 OA
ATOM     27  N   UNL     1      31.889  -9.179 -19.059  0.00  0.00    -0.299 N 
ATOM     28  C   UNL     1      31.766  -7.901 -19.613  0.00  0.00    +0.246 C 
ATOM     29  C   UNL     1      31.465  -9.508 -17.717  0.00  0.00    +0.111 C 
ATOM     30  H   UNL     1      32.285  -9.891 -19.612  0.00  0.00    +0.150 HD
ENDBRANCH  21  28
ENDBRANCH  19  20
ENDBRANCH   7  19
TORSDOF 5
ENDMDL
MODEL 8
REMARK VINA RESULT:     -11.0      3.549      9.542
REMARK  Name = 6450551
REMARK  5 active torsions:
REMARK  status: ('A' for Active; 'I' for Inactive)
REMARK    1  A    between atoms: C_5  and  C_11
REMARK    2  A    between atoms: C_7  and  S_19
REMARK    3  A    between atoms: C_12  and  C_14
REMARK    4  A    between atoms: S_19  and  C_20
REMARK    5  A    between atoms: C_21  and  C_28
REMARK                            x       y       z     vdW  Elec       q    Type
REMARK                         _______ _______ _______ _____ _____    ______ ____
ROOT
ATOM      1  N   UNL     1      32.271 -21.016 -19.484  0.00  0.00    -0.276 N 
ATOM      2  N   UNL     1      32.252 -21.944 -18.512  0.00  0.00    -0.173 NA
ATOM      3  C   UNL     1      34.368 -21.140 -18.855  0.00  0.00    +0.036 A 
ATOM      4  C   UNL     1      33.511 -20.494 -19.739  0.00  0.00    +0.076 A 
ATOM      5  C   UNL     1      33.530 -22.016 -18.132  0.00  0.00    +0.102 A 
ATOM      6  C   UNL     1      33.943 -19.529 -20.651  0.00  0.00    +0.025 C 
ATOM      7  C   UNL     1      35.307 -19.222 -20.650  0.00  0.00    +0.031 C 
ATOM      8  C   UNL     1      35.736 -20.820 -18.865  0.00  0.00    +0.004 C 
ATOM      9  C   UNL     1      36.190 -19.855 -19.773  0.00  0.00    +0.007 C 
ATOM     10  H   UNL     1      31.463 -20.736 -19.972  0.00  0.00    +0.189 HD
ENDROOT
BRANCH   5  11
ATOM     11  C   UNL     1      33.980 -22.889 -17.106  0.00  0.00    +0.022 C 
ATOM     12  C   UNL     1      34.599 -22.559 -15.941  0.00  0.00    +0.021 C 
BRANCH  12  14
ATOM     13  N   UNL     1      35.587 -24.655 -15.396  0.00  0.00    -0.244 NA
ATOM     14  C   UNL     1      35.055 -23.518 -14.918  0.00  0.00    +0.081 C 
ATOM     15  C   UNL     1      34.910 -23.202 -13.588  0.00  0.00    +0.019 C 
ATOM     16  C   UNL     1      35.353 -24.137 -12.660  0.00  0.00    +0.003 C 
ATOM     17  C   UNL     1      36.007 -25.541 -14.466  0.00  0.00    +0.099 C 
ATOM     18  C   UNL     1      35.913 -25.332 -13.098  0.00  0.00    +0.021 C 
ENDBRANCH  12  14
ENDBRANCH   5  11
BRANCH   7  19
ATOM     19  S   UNL     1      35.928 -17.997 -21.791  0.00  0.00    -0.087 S 
BRANCH  19  20
ATOM     20  C   UNL     1      34.646 -18.005 -23.037  0.00  0.00    +0.034 C 
ATOM     21  C   UNL     1      33.963 -16.843 -23.402  0.00  0.00    +0.059 C 
ATOM     22  C   UNL     1      34.331 -19.217 -23.652  0.00  0.00    +0.007 C 
ATOM     23  C   UNL     1      32.969 -16.895 -24.380  0.00  0.00    +0.005 C 
ATOM     24  C   UNL     1      33.337 -19.270 -24.630  0.00  0.00    +0.001 C 
ATOM     25  C   UNL     1      32.656 -18.107 -24.993  0.00  0.00    +0.000 C 
BRANCH  21  28
ATOM     26  O   UNL     1      34.862 -14.678 -23.432  0.00  0.00    -0.270 OA
ATOM     27  N   UNL     1      33.782 -15.346 -21.493  0.00  0.00    -0.299 N 
ATOM     28  C   UNL     1      34.249 -15.549 -22.795  0.00  0.00    +0.246 C 
ATOM     29  C   UNL     1      33.965 -14.110 -20.765  0.00  0.00    +0.111 C 
ATOM     30  H   UNL     1      33.303 -16.083 -21.049  0.00  0.00    +0.150 HD
ENDBRANCH  21  28
ENDBRANCH  19  20
ENDBRANCH   7  19
TORSDOF 5
ENDMDL
MODEL 9
REMARK VINA RESULT:     -11.0      5.763     11.423
REMARK  Name = 6450551
REMARK  5 active torsions:
REMARK  status: ('A' for Active; 'I' for Inactive)
REMARK    1  A    between atoms: C_5  and  C_11
REMARK    2  A    between atoms: C_7  and  S_19
REMARK    3  A    between atoms: C_12  and  C_14
REMARK    4  A    between atoms: S_19  and  C_20
REMARK    5  A    between atoms: C_21  and  C_28
REMARK                            x       y       z     vdW  Elec       q    Type
REMARK                         _______ _______ _______ _____ _____    ______ ____
ROOT
ATOM      1  N   UNL     1      33.138 -14.800 -25.272  0.00  0.00    -0.276 N 
ATOM      2  N   UNL     1      33.605 -15.946 -24.747  0.00  0.00    -0.173 NA
ATOM      3  C   UNL     1      33.633 -14.253 -23.207  0.00  0.00    +0.036 A 
ATOM      4  C   UNL     1      33.129 -13.745 -24.399  0.00  0.00    +0.076 A 
ATOM      5  C   UNL     1      33.905 -15.609 -23.490  0.00  0.00    +0.102 A 
ATOM      6  C   UNL     1      32.729 -12.416 -24.551  0.00  0.00    +0.025 C 
ATOM      7  C   UNL     1      32.854 -11.585 -23.435  0.00  0.00    +0.031 C 
ATOM      8  C   UNL     1      33.752 -13.405 -22.093  0.00  0.00    +0.004 C 
ATOM      9  C   UNL     1      33.357 -12.068 -22.225  0.00  0.00    +0.007 C 
ATOM     10  H   UNL     1      32.830 -14.725 -26.204  0.00  0.00    +0.189 HD
ENDROOT
BRANCH   5  11
ATOM     11  C   UNL     1      34.440 -16.532 -22.553  0.00  0.00    +0.022 C 
ATOM     12  C   UNL     1      34.121 -17.844 -22.397  0.00  0.00    +0.021 C 
BRANCH  12  14
ATOM     13  N   UNL     1      33.865 -19.671 -20.893  0.00  0.00    -0.244 NA
ATOM     14  C   UNL     1      34.706 -18.749 -21.392  0.00  0.00    +0.081 C 
ATOM     15  C   UNL     1      36.026 -18.599 -21.039  0.00  0.00    +0.019 C 
ATOM     16  C   UNL     1      36.534 -19.475 -20.086  0.00  0.00    +0.003 C 
ATOM     17  C   UNL     1      34.393 -20.504 -19.969  0.00  0.00    +0.099 C 
ATOM     18  C   UNL     1      35.708 -20.448 -19.535  0.00  0.00    +0.021 C 
ENDBRANCH  12  14
ENDBRANCH   5  11
BRANCH   7  19
ATOM     19  S   UNL     1      32.360  -9.873 -23.560  0.00  0.00    -0.087 S 
BRANCH  19  20
ATOM     20  C   UNL     1      31.860  -9.533 -21.879  0.00  0.00    +0.034 C 
ATOM     21  C   UNL     1      31.904  -8.245 -21.340  0.00  0.00    +0.059 C 
ATOM     22  C   UNL     1      31.416 -10.599 -21.093  0.00  0.00    +0.007 C 
ATOM     23  C   UNL     1      31.504  -8.026 -20.022  0.00  0.00    +0.005 C 
ATOM     24  C   UNL     1      31.016 -10.379 -19.775  0.00  0.00    +0.001 C 
ATOM     25  C   UNL     1      31.060  -9.091 -19.240  0.00  0.00    +0.000 C 
BRANCH  21  28
ATOM     26  O   UNL     1      33.562  -6.794 -22.140  0.00  0.00    -0.270 OA
ATOM     27  N   UNL     1      31.384  -6.384 -22.818  0.00  0.00    -0.299 N 
ATOM     28  C   UNL     1      32.358  -7.095 -22.112  0.00  0.00    +0.246 C 
ATOM     29  C   UNL     1      31.679  -5.237 -23.647  0.00  0.00    +0.111 C 
ATOM     30  H   UNL     1      30.447  -6.681 -22.748  0.00  0.00    +0.150 HD
ENDBRANCH  21  28
ENDBRANCH  19  20
ENDBRANCH   7  19
TORSDOF 5
ENDMDL
