MODEL 1
REMARK VINA RESULT:     -12.5      0.000      0.000
REMARK  Name = 2754
REMARK  7 active torsions:
REMARK  status: ('A' for Active; 'I' for Inactive)
REMARK    1  A    between atoms: C_1  and  C_2
REMARK    2  A    between atoms: C_1  and  C_15
REMARK    3  A    between atoms: C_2  and  C_3
REMARK    4  A    between atoms: C_3  and  C_8
REMARK    5  A    between atoms: N_4  and  C_9
REMARK    6  A    between atoms: C_15  and  O_16
REMARK    7  A    between atoms: O_16  and  C_23
REMARK                            x       y       z     vdW  Elec       q    Type
REMARK                         _______ _______ _______ _____ _____    ______ ____
ROOT
ATOM      1  C   UNL     1      35.267 -21.289 -18.395  0.00  0.00    +0.048 C 
ENDROOT
BRANCH   1   2
ATOM      2  C   UNL     1      36.462 -21.307 -17.443  0.00  0.00    +0.012 C 
BRANCH   2   3
ATOM      3  C   UNL     1      36.007 -21.400 -15.984  0.00  0.00    +0.068 C 
BRANCH   3   8
ATOM      4  N   UNL     1      34.599 -23.345 -15.304  0.00  0.00    -0.219 N 
ATOM      5  N   UNL     1      34.746 -24.629 -14.951  0.00  0.00    -0.043 NA
ATOM      6  N   UNL     1      36.734 -23.718 -15.384  0.00  0.00    -0.113 NA
ATOM      7  N   UNL     1      36.053 -24.853 -15.003  0.00  0.00    -0.023 NA
ATOM      8  C   UNL     1      35.810 -22.833 -15.556  0.00  0.00    +0.161 A 
BRANCH   4   9
ATOM      9  C   UNL     1      33.270 -22.723 -15.366  0.00  0.00    +0.108 C 
ATOM     10  C   UNL     1      32.396 -23.094 -14.156  0.00  0.00    +0.024 C 
ATOM     11  C   UNL     1      32.551 -23.016 -16.694  0.00  0.00    +0.024 C 
ATOM     12  C   UNL     1      31.031 -22.412 -14.227  0.00  0.00    +0.002 C 
ATOM     13  C   UNL     1      31.186 -22.333 -16.748  0.00  0.00    +0.002 C 
ATOM     14  C   UNL     1      30.321 -22.707 -15.546  0.00  0.00    +0.000 C 
ENDBRANCH   4   9
ENDBRANCH   3   8
ENDBRANCH   2   3
ENDBRANCH   1   2
BRANCH   1  15
ATOM     15  C   UNL     1      35.678 -20.882 -19.803  0.00  0.00    +0.205 C 
BRANCH  15  16
ATOM     16  O   UNL     1      35.761 -19.460 -19.867  0.00  0.00    -0.475 OA
BRANCH  16  23
ATOM     17  O   UNL     1      33.085 -15.114 -25.553  0.00  0.00    -0.275 OA
ATOM     18  N   UNL     1      33.643 -17.006 -24.378  0.00  0.00    -0.284 N 
ATOM     19  C   UNL     1      34.581 -16.841 -22.141  0.00  0.00    -0.005 C 
ATOM     20  C   UNL     1      34.341 -15.359 -22.169  0.00  0.00    +0.037 C 
ATOM     21  C   UNL     1      34.186 -17.621 -23.235  0.00  0.00    +0.046 C 
ATOM     22  C   UNL     1      34.430 -14.822 -23.590  0.00  0.00    +0.090 C 
ATOM     23  C   UNL     1      35.229 -18.857 -20.966  0.00  0.00    +0.138 C 
ATOM     24  C   UNL     1      35.097 -17.468 -21.003  0.00  0.00    +0.034 C 
ATOM     25  C   UNL     1      33.628 -15.640 -24.583  0.00  0.00    +0.226 C 
ATOM     26  C   UNL     1      34.298 -19.012 -23.191  0.00  0.00    +0.017 C 
ATOM     27  C   UNL     1      34.828 -19.628 -22.056  0.00  0.00    +0.038 C 
ATOM     28  H   UNL     1      33.250 -17.584 -25.072  0.00  0.00    +0.155 HD
ENDBRANCH  16  23
ENDBRANCH  15  16
ENDBRANCH   1  15
TORSDOF 7
ENDMDL
MODEL 2
REMARK VINA RESULT:     -12.4      2.311      3.590
REMARK  Name = 2754
REMARK  7 active torsions:
REMARK  status: ('A' for Active; 'I' for Inactive)
REMARK    1  A    between atoms: C_1  and  C_2
REMARK    2  A    between atoms: C_1  and  C_15
REMARK    3  A    between atoms: C_2  and  C_3
REMARK    4  A    between atoms: C_3  and  C_8
REMARK    5  A    between atoms: N_4  and  C_9
REMARK    6  A    between atoms: C_15  and  O_16
REMARK    7  A    between atoms: O_16  and  C_23
REMARK                            x       y       z     vdW  Elec       q    Type
REMARK                         _______ _______ _______ _____ _____    ______ ____
ROOT
ATOM      1  C   UNL     1      36.083 -19.612 -20.040  0.00  0.00    +0.048 C 
ENDROOT
BRANCH   1   2
ATOM      2  C   UNL     1      34.678 -20.188 -20.207  0.00  0.00    +0.012 C 
BRANCH   2   3
ATOM      3  C   UNL     1      34.595 -21.616 -19.662  0.00  0.00    +0.068 C 
BRANCH   3   8
ATOM      4  N   UNL     1      33.541 -22.255 -17.492  0.00  0.00    -0.219 N 
ATOM      5  N   UNL     1      32.327 -22.293 -16.927  0.00  0.00    -0.043 NA
ATOM      6  N   UNL     1      32.180 -21.525 -19.014  0.00  0.00    -0.113 NA
ATOM      7  N   UNL     1      31.498 -21.845 -17.861  0.00  0.00    -0.023 NA
ATOM      8  C   UNL     1      33.413 -21.789 -18.741  0.00  0.00    +0.161 A 
BRANCH   4   9
ATOM      9  C   UNL     1      34.735 -22.680 -16.751  0.00  0.00    +0.108 C 
ATOM     10  C   UNL     1      34.390 -23.250 -15.365  0.00  0.00    +0.024 C 
ATOM     11  C   UNL     1      35.792 -21.566 -16.658  0.00  0.00    +0.024 C 
ATOM     12  C   UNL     1      35.644 -23.714 -14.626  0.00  0.00    +0.002 C 
ATOM     13  C   UNL     1      37.036 -22.042 -15.911  0.00  0.00    +0.002 C 
ATOM     14  C   UNL     1      36.688 -22.604 -14.535  0.00  0.00    +0.000 C 
ENDBRANCH   4   9
ENDBRANCH   3   8
ENDBRANCH   2   3
ENDBRANCH   1   2
BRANCH   1  15
ATOM     15  C   UNL     1      36.313 -18.420 -20.958  0.00  0.00    +0.205 C 
BRANCH  15  16
ATOM     16  O   UNL     1      35.363 -17.404 -20.642  0.00  0.00    -0.475 OA
BRANCH  16  23
ATOM     17  O   UNL     1      32.256 -12.748 -25.843  0.00  0.00    -0.275 OA
ATOM     18  N   UNL     1      33.124 -14.666 -24.925  0.00  0.00    -0.284 N 
ATOM     19  C   UNL     1      33.819 -14.716 -22.595  0.00  0.00    -0.005 C 
ATOM     20  C   UNL     1      33.261 -13.334 -22.417  0.00  0.00    +0.037 C 
ATOM     21  C   UNL     1      33.696 -15.351 -23.838  0.00  0.00    +0.046 C 
ATOM     22  C   UNL     1      33.341 -12.544 -23.715  0.00  0.00    +0.090 C 
ATOM     23  C   UNL     1      34.801 -16.736 -21.686  0.00  0.00    +0.138 C 
ATOM     24  C   UNL     1      34.368 -15.419 -21.518  0.00  0.00    +0.034 C 
ATOM     25  C   UNL     1      32.823 -13.317 -24.911  0.00  0.00    +0.226 C 
ATOM     26  C   UNL     1      34.109 -16.675 -24.002  0.00  0.00    +0.017 C 
ATOM     27  C   UNL     1      34.669 -17.363 -22.925  0.00  0.00    +0.038 C 
ATOM     28  H   UNL     1      32.926 -15.177 -25.743  0.00  0.00    +0.155 HD
ENDBRANCH  16  23
ENDBRANCH  15  16
ENDBRANCH   1  15
TORSDOF 7
ENDMDL
MODEL 3
REMARK VINA RESULT:     -12.3      3.494      9.843
REMARK  Name = 2754
REMARK  7 active torsions:
REMARK  status: ('A' for Active; 'I' for Inactive)
REMARK    1  A    between atoms: C_1  and  C_2
REMARK    2  A    between atoms: C_1  and  C_15
REMARK    3  A    between atoms: C_2  and  C_3
REMARK    4  A    between atoms: C_3  and  C_8
REMARK    5  A    between atoms: N_4  and  C_9
REMARK    6  A    between atoms: C_15  and  O_16
REMARK    7  A    between atoms: O_16  and  C_23
REMARK                            x       y       z     vdW  Elec       q    Type
REMARK                         _______ _______ _______ _____ _____    ______ ____
ROOT
ATOM      1  C   UNL     1      32.819 -16.714 -24.750  0.00  0.00    +0.048 C 
ENDROOT
BRANCH   1   2
ATOM      2  C   UNL     1      33.794 -15.538 -24.738  0.00  0.00    +0.012 C 
BRANCH   2   3
ATOM      3  C   UNL     1      33.152 -14.291 -24.125  0.00  0.00    +0.068 C 
BRANCH   3   8
ATOM      4  N   UNL     1      32.956 -13.200 -21.889  0.00  0.00    -0.219 N 
ATOM      5  N   UNL     1      33.379 -13.382 -20.631  0.00  0.00    -0.043 NA
ATOM      6  N   UNL     1      34.156 -15.005 -21.946  0.00  0.00    -0.113 NA
ATOM      7  N   UNL     1      34.112 -14.488 -20.671  0.00  0.00    -0.023 NA
ATOM      8  C   UNL     1      33.440 -14.191 -22.648  0.00  0.00    +0.161 A 
BRANCH   4   9
ATOM      9  C   UNL     1      32.103 -12.059 -22.244  0.00  0.00    +0.108 C 
ATOM     10  C   UNL     1      32.893 -10.930 -22.929  0.00  0.00    +0.024 C 
ATOM     11  C   UNL     1      31.297 -11.536 -21.042  0.00  0.00    +0.024 C 
ATOM     12  C   UNL     1      31.980  -9.768 -23.316  0.00  0.00    +0.002 C 
ATOM     13  C   UNL     1      30.395 -10.371 -21.443  0.00  0.00    +0.002 C 
ATOM     14  C   UNL     1      31.185  -9.253 -22.120  0.00  0.00    +0.000 C 
ENDBRANCH   4   9
ENDBRANCH   3   8
ENDBRANCH   2   3
ENDBRANCH   1   2
BRANCH   1  15
ATOM     15  C   UNL     1      33.456 -17.977 -24.190  0.00  0.00    +0.205 C 
BRANCH  15  16
ATOM     16  O   UNL     1      34.637 -17.620 -23.475  0.00  0.00    -0.475 OA
BRANCH  16  23
ATOM     17  O   UNL     1      35.205 -22.071 -17.291  0.00  0.00    -0.275 OA
ATOM     18  N   UNL     1      35.815 -20.569 -18.917  0.00  0.00    -0.284 N 
ATOM     19  C   UNL     1      34.215 -19.858 -20.605  0.00  0.00    -0.005 C 
ATOM     20  C   UNL     1      33.141 -20.616 -19.881  0.00  0.00    +0.037 C 
ATOM     21  C   UNL     1      35.512 -19.829 -20.075  0.00  0.00    +0.046 C 
ATOM     22  C   UNL     1      33.721 -21.821 -19.156  0.00  0.00    +0.090 C 
ATOM     23  C   UNL     1      34.920 -18.333 -22.350  0.00  0.00    +0.138 C 
ATOM     24  C   UNL     1      33.924 -19.100 -21.744  0.00  0.00    +0.034 C 
ATOM     25  C   UNL     1      34.955 -21.486 -18.344  0.00  0.00    +0.226 C 
ATOM     26  C   UNL     1      36.504 -19.047 -20.669  0.00  0.00    +0.017 C 
ATOM     27  C   UNL     1      36.206 -18.304 -21.812  0.00  0.00    +0.038 C 
ATOM     28  H   UNL     1      36.691 -20.424 -18.491  0.00  0.00    +0.155 HD
ENDBRANCH  16  23
ENDBRANCH  15  16
ENDBRANCH   1  15
TORSDOF 7
ENDMDL
MODEL 4
REMARK VINA RESULT:     -12.3      2.925     10.373
REMARK  Name = 2754
REMARK  7 active torsions:
REMARK  status: ('A' for Active; 'I' for Inactive)
REMARK    1  A    between atoms: C_1  and  C_2
REMARK    2  A    between atoms: C_1  and  C_15
REMARK    3  A    between atoms: C_2  and  C_3
REMARK    4  A    between atoms: C_3  and  C_8
REMARK    5  A    between atoms: N_4  and  C_9
REMARK    6  A    between atoms: C_15  and  O_16
REMARK    7  A    between atoms: O_16  and  C_23
REMARK                            x       y       z     vdW  Elec       q    Type
REMARK                         _______ _______ _______ _____ _____    ______ ____
ROOT
ATOM      1  C   UNL     1      35.040 -17.162 -21.192  0.00  0.00    +0.048 C 
ENDROOT
BRANCH   1   2
ATOM      2  C   UNL     1      34.640 -16.655 -22.577  0.00  0.00    +0.012 C 
BRANCH   2   3
ATOM      3  C   UNL     1      34.228 -15.181 -22.531  0.00  0.00    +0.068 C 
BRANCH   3   8
ATOM      4  N   UNL     1      33.085 -13.529 -24.011  0.00  0.00    -0.219 N 
ATOM      5  N   UNL     1      32.705 -13.405 -25.290  0.00  0.00    -0.043 NA
ATOM      6  N   UNL     1      33.699 -15.375 -24.969  0.00  0.00    -0.113 NA
ATOM      7  N   UNL     1      33.084 -14.536 -25.872  0.00  0.00    -0.023 NA
ATOM      8  C   UNL     1      33.677 -14.720 -23.857  0.00  0.00    +0.161 A 
BRANCH   4   9
ATOM      9  C   UNL     1      32.835 -12.457 -23.039  0.00  0.00    +0.108 C 
ATOM     10  C   UNL     1      31.796 -12.862 -21.979  0.00  0.00    +0.024 C 
ATOM     11  C   UNL     1      32.461 -11.129 -23.719  0.00  0.00    +0.024 C 
ATOM     12  C   UNL     1      31.575 -11.743 -20.962  0.00  0.00    +0.002 C 
ATOM     13  C   UNL     1      32.236 -10.022 -22.690  0.00  0.00    +0.002 C 
ATOM     14  C   UNL     1      31.202 -10.429 -21.642  0.00  0.00    +0.000 C 
ENDBRANCH   4   9
ENDBRANCH   3   8
ENDBRANCH   2   3
ENDBRANCH   1   2
BRANCH   1  15
ATOM     15  C   UNL     1      35.696 -18.533 -21.264  0.00  0.00    +0.205 C 
BRANCH  15  16
ATOM     16  O   UNL     1      34.678 -19.529 -21.335  0.00  0.00    -0.475 OA
BRANCH  16  23
ATOM     17  O   UNL     1      34.584 -23.507 -14.812  0.00  0.00    -0.275 OA
ATOM     18  N   UNL     1      33.823 -22.570 -16.766  0.00  0.00    -0.284 N 
ATOM     19  C   UNL     1      35.333 -21.325 -18.210  0.00  0.00    -0.005 C 
ATOM     20  C   UNL     1      36.480 -21.728 -17.328  0.00  0.00    +0.037 C 
ATOM     21  C   UNL     1      34.045 -21.794 -17.918  0.00  0.00    +0.046 C 
ATOM     22  C   UNL     1      36.019 -21.918 -15.891  0.00  0.00    +0.090 C 
ATOM     23  C   UNL     1      34.474 -20.286 -20.222  0.00  0.00    +0.138 C 
ATOM     24  C   UNL     1      35.542 -20.575 -19.371  0.00  0.00    +0.034 C 
ATOM     25  C   UNL     1      34.768 -22.767 -15.778  0.00  0.00    +0.226 C 
ATOM     26  C   UNL     1      32.980 -21.523 -18.779  0.00  0.00    +0.017 C 
ATOM     27  C   UNL     1      33.196 -20.762 -19.928  0.00  0.00    +0.038 C 
ATOM     28  H   UNL     1      32.943 -22.998 -16.658  0.00  0.00    +0.155 HD
ENDBRANCH  16  23
ENDBRANCH  15  16
ENDBRANCH   1  15
TORSDOF 7
ENDMDL
MODEL 5
REMARK VINA RESULT:     -12.0      5.762      9.637
REMARK  Name = 2754
REMARK  7 active torsions:
REMARK  status: ('A' for Active; 'I' for Inactive)
REMARK    1  A    between atoms: C_1  and  C_2
REMARK    2  A    between atoms: C_1  and  C_15
REMARK    3  A    between atoms: C_2  and  C_3
REMARK    4  A    between atoms: C_3  and  C_8
REMARK    5  A    between atoms: N_4  and  C_9
REMARK    6  A    between atoms: C_15  and  O_16
REMARK    7  A    between atoms: O_16  and  C_23
REMARK                            x       y       z     vdW  Elec       q    Type
REMARK                         _______ _______ _______ _____ _____    ______ ____
ROOT
ATOM      1  C   UNL     1      33.338 -13.828 -20.981  0.00  0.00    +0.048 C 
ENDROOT
BRANCH   1   2
ATOM      2  C   UNL     1      33.344 -13.984 -22.501  0.00  0.00    +0.012 C 
BRANCH   2   3
ATOM      3  C   UNL     1      34.444 -14.947 -22.955  0.00  0.00    +0.068 C 
BRANCH   3   8
ATOM      4  N   UNL     1      33.918 -17.360 -23.316  0.00  0.00    -0.219 N 
ATOM      5  N   UNL     1      33.341 -18.146 -24.235  0.00  0.00    -0.043 NA
ATOM      6  N   UNL     1      33.307 -16.021 -24.908  0.00  0.00    -0.113 NA
ATOM      7  N   UNL     1      32.968 -17.322 -25.207  0.00  0.00    -0.023 NA
ATOM      8  C   UNL     1      33.879 -16.095 -23.753  0.00  0.00    +0.161 A 
BRANCH   4   9
ATOM      9  C   UNL     1      34.463 -17.921 -22.073  0.00  0.00    +0.108 C 
ATOM     10  C   UNL     1      35.993 -18.078 -22.126  0.00  0.00    +0.024 C 
ATOM     11  C   UNL     1      33.773 -19.237 -21.676  0.00  0.00    +0.024 C 
ATOM     12  C   UNL     1      36.540 -18.634 -20.812  0.00  0.00    +0.002 C 
ATOM     13  C   UNL     1      34.335 -19.785 -20.365  0.00  0.00    +0.002 C 
ATOM     14  C   UNL     1      35.853 -19.941 -20.424  0.00  0.00    +0.000 C 
ENDBRANCH   4   9
ENDBRANCH   3   8
ENDBRANCH   2   3
ENDBRANCH   1   2
BRANCH   1  15
ATOM     15  C   UNL     1      32.004 -13.296 -20.477  0.00  0.00    +0.205 C 
BRANCH  15  16
ATOM     16  O   UNL     1      31.454 -12.424 -21.461  0.00  0.00    -0.475 OA
BRANCH  16  23
ATOM     17  O   UNL     1      31.167  -4.807 -20.924  0.00  0.00    -0.275 OA
ATOM     18  N   UNL     1      31.332  -7.001 -20.264  0.00  0.00    -0.284 N 
ATOM     19  C   UNL     1      31.341  -8.789 -21.911  0.00  0.00    -0.005 C 
ATOM     20  C   UNL     1      31.382  -7.759 -23.003  0.00  0.00    +0.037 C 
ATOM     21  C   UNL     1      31.357  -8.373 -20.574  0.00  0.00    +0.046 C 
ATOM     22  C   UNL     1      30.681  -6.481 -22.570  0.00  0.00    +0.090 C 
ATOM     23  C   UNL     1      31.438 -11.094 -21.171  0.00  0.00    +0.138 C 
ATOM     24  C   UNL     1      31.388 -10.156 -22.204  0.00  0.00    +0.034 C 
ATOM     25  C   UNL     1      31.113  -6.006 -21.197  0.00  0.00    +0.226 C 
ATOM     26  C   UNL     1      31.427  -9.309 -19.540  0.00  0.00    +0.017 C 
ATOM     27  C   UNL     1      31.460 -10.671 -19.842  0.00  0.00    +0.038 C 
ATOM     28  H   UNL     1      31.481  -6.734 -19.328  0.00  0.00    +0.155 HD
ENDBRANCH  16  23
ENDBRANCH  15  16
ENDBRANCH   1  15
TORSDOF 7
ENDMDL
MODEL 6
REMARK VINA RESULT:     -11.9      3.341      9.786
REMARK  Name = 2754
REMARK  7 active torsions:
REMARK  status: ('A' for Active; 'I' for Inactive)
REMARK    1  A    between atoms: C_1  and  C_2
REMARK    2  A    between atoms: C_1  and  C_15
REMARK    3  A    between atoms: C_2  and  C_3
REMARK    4  A    between atoms: C_3  and  C_8
REMARK    5  A    between atoms: N_4  and  C_9
REMARK    6  A    between atoms: C_15  and  O_16
REMARK    7  A    between atoms: O_16  and  C_23
REMARK                            x       y       z     vdW  Elec       q    Type
REMARK                         _______ _______ _______ _____ _____    ______ ____
ROOT
ATOM      1  C   UNL     1      32.879 -22.009 -19.197  0.00  0.00    +0.048 C 
ENDROOT
BRANCH   1   2
ATOM      2  C   UNL     1      32.645 -20.513 -19.405  0.00  0.00    +0.012 C 
BRANCH   2   3
ATOM      3  C   UNL     1      33.229 -20.041 -20.739  0.00  0.00    +0.068 C 
BRANCH   3   8
ATOM      4  N   UNL     1      34.959 -18.306 -21.210  0.00  0.00    -0.219 N 
ATOM      5  N   UNL     1      36.209 -17.994 -20.841  0.00  0.00    -0.043 NA
ATOM      6  N   UNL     1      35.533 -19.837 -19.785  0.00  0.00    -0.113 NA
ATOM      7  N   UNL     1      36.556 -18.933 -19.969  0.00  0.00    -0.023 NA
ATOM      8  C   UNL     1      34.588 -19.414 -20.557  0.00  0.00    +0.161 A 
BRANCH   4   9
ATOM      9  C   UNL     1      34.227 -17.481 -22.179  0.00  0.00    +0.108 C 
ATOM     10  C   UNL     1      34.184 -18.124 -23.576  0.00  0.00    +0.024 C 
ATOM     11  C   UNL     1      34.758 -16.038 -22.236  0.00  0.00    +0.024 C 
ATOM     12  C   UNL     1      33.392 -17.264 -24.559  0.00  0.00    +0.002 C 
ATOM     13  C   UNL     1      33.961 -15.193 -23.228  0.00  0.00    +0.002 C 
ATOM     14  C   UNL     1      33.924 -15.834 -24.613  0.00  0.00    +0.000 C 
ENDBRANCH   4   9
ENDBRANCH   3   8
ENDBRANCH   2   3
ENDBRANCH   1   2
BRANCH   1  15
ATOM     15  C   UNL     1      33.270 -22.320 -17.760  0.00  0.00    +0.205 C 
BRANCH  15  16
ATOM     16  O   UNL     1      34.672 -22.107 -17.607  0.00  0.00    -0.475 OA
BRANCH  16  23
ATOM     17  O   UNL     1      36.647 -23.781 -10.418  0.00  0.00    -0.275 OA
ATOM     18  N   UNL     1      36.847 -23.035 -12.580  0.00  0.00    -0.284 N 
ATOM     19  C   UNL     1      34.928 -23.044 -14.074  0.00  0.00    -0.005 C 
ATOM     20  C   UNL     1      34.057 -23.459 -12.924  0.00  0.00    +0.037 C 
ATOM     21  C   UNL     1      36.291 -22.808 -13.853  0.00  0.00    +0.046 C 
ATOM     22  C   UNL     1      34.845 -24.284 -11.917  0.00  0.00    +0.090 C 
ATOM     23  C   UNL     1      35.200 -22.321 -16.370  0.00  0.00    +0.138 C 
ATOM     24  C   UNL     1      34.386 -22.791 -15.338  0.00  0.00    +0.034 C 
ATOM     25  C   UNL     1      36.173 -23.655 -11.546  0.00  0.00    +0.226 C 
ATOM     26  C   UNL     1      37.102 -22.319 -14.879  0.00  0.00    +0.017 C 
ATOM     27  C   UNL     1      36.554 -22.083 -16.140  0.00  0.00    +0.038 C 
ATOM     28  H   UNL     1      37.770 -22.734 -12.417  0.00  0.00    +0.155 HD
ENDBRANCH  16  23
ENDBRANCH  15  16
ENDBRANCH   1  15
TORSDOF 7
ENDMDL
MODEL 7
REMARK VINA RESULT:     -11.9      3.475     10.084
REMARK  Name = 2754
REMARK  7 active torsions:
REMARK  status: ('A' for Active; 'I' for Inactive)
REMARK    1  A    between atoms: C_1  and  C_2
REMARK    2  A    between atoms: C_1  and  C_15
REMARK    3  A    between atoms: C_2  and  C_3
REMARK    4  A    between atoms: C_3  and  C_8
REMARK    5  A    between atoms: N_4  and  C_9
REMARK    6  A    between atoms: C_15  and  O_16
REMARK    7  A    between atoms: O_16  and  C_23
REMARK                            x       y       z     vdW  Elec       q    Type
REMARK                         _______ _______ _______ _____ _____    ______ ____
ROOT
ATOM      1  C   UNL     1      33.322 -21.945 -19.325  0.00  0.00    +0.048 C 
ENDROOT
BRANCH   1   2
ATOM      2  C   UNL     1      32.673 -20.572 -19.491  0.00  0.00    +0.012 C 
BRANCH   2   3
ATOM      3  C   UNL     1      33.145 -19.886 -20.775  0.00  0.00    +0.068 C 
BRANCH   3   8
ATOM      4  N   UNL     1      34.938 -18.224 -21.276  0.00  0.00    -0.219 N 
ATOM      5  N   UNL     1      36.209 -17.970 -20.935  0.00  0.00    -0.043 NA
ATOM      6  N   UNL     1      35.478 -19.789 -19.875  0.00  0.00    -0.113 NA
ATOM      7  N   UNL     1      36.534 -18.929 -20.077  0.00  0.00    -0.023 NA
ATOM      8  C   UNL     1      34.535 -19.320 -20.621  0.00  0.00    +0.161 A 
BRANCH   4   9
ATOM      9  C   UNL     1      34.221 -17.362 -22.223  0.00  0.00    +0.108 C 
ATOM     10  C   UNL     1      34.211 -17.941 -23.648  0.00  0.00    +0.024 C 
ATOM     11  C   UNL     1      34.742 -15.915 -22.204  0.00  0.00    +0.024 C 
ATOM     12  C   UNL     1      33.433 -17.043 -24.608  0.00  0.00    +0.002 C 
ATOM     13  C   UNL     1      33.960 -15.030 -23.173  0.00  0.00    +0.002 C 
ATOM     14  C   UNL     1      33.955 -15.609 -24.586  0.00  0.00    +0.000 C 
ENDBRANCH   4   9
ENDBRANCH   3   8
ENDBRANCH   2   3
ENDBRANCH   1   2
BRANCH   1  15
ATOM     15  C   UNL     1      33.088 -22.511 -17.932  0.00  0.00    +0.205 C 
BRANCH  15  16
ATOM     16  O   UNL     1      34.269 -22.328 -17.155  0.00  0.00    -0.475 OA
BRANCH  16  23
ATOM     17  O   UNL     1      35.235 -24.652  -9.940  0.00  0.00    -0.275 OA
ATOM     18  N   UNL     1      34.197 -24.280 -11.954  0.00  0.00    -0.284 N 
ATOM     19  C   UNL     1      35.410 -23.266 -13.802  0.00  0.00    -0.005 C 
ATOM     20  C   UNL     1      36.671 -23.335 -12.988  0.00  0.00    +0.037 C 
ATOM     21  C   UNL     1      34.220 -23.778 -13.268  0.00  0.00    +0.046 C 
ATOM     22  C   UNL     1      36.364 -23.227 -11.502  0.00  0.00    +0.090 C 
ATOM     23  C   UNL     1      34.258 -22.819 -15.885  0.00  0.00    +0.138 C 
ATOM     24  C   UNL     1      35.423 -22.792 -15.117  0.00  0.00    +0.034 C 
ATOM     25  C   UNL     1      35.242 -24.145 -11.061  0.00  0.00    +0.226 C 
ATOM     26  C   UNL     1      33.059 -23.824 -14.042  0.00  0.00    +0.017 C 
ATOM     27  C   UNL     1      33.079 -23.336 -15.349  0.00  0.00    +0.038 C 
ATOM     28  H   UNL     1      33.388 -24.755 -11.654  0.00  0.00    +0.155 HD
ENDBRANCH  16  23
ENDBRANCH  15  16
ENDBRANCH   1  15
TORSDOF 7
ENDMDL
MODEL 8
REMARK VINA RESULT:     -11.7      3.778      6.532
REMARK  Name = 2754
REMARK  7 active torsions:
REMARK  status: ('A' for Active; 'I' for Inactive)
REMARK    1  A    between atoms: C_1  and  C_2
REMARK    2  A    between atoms: C_1  and  C_15
REMARK    3  A    between atoms: C_2  and  C_3
REMARK    4  A    between atoms: C_3  and  C_8
REMARK    5  A    between atoms: N_4  and  C_9
REMARK    6  A    between atoms: C_15  and  O_16
REMARK    7  A    between atoms: O_16  and  C_23
REMARK                            x       y       z     vdW  Elec       q    Type
REMARK                         _______ _______ _______ _____ _____    ______ ____
ROOT
ATOM      1  C   UNL     1      33.867 -17.094 -24.721  0.00  0.00    +0.048 C 
ENDROOT
BRANCH   1   2
ATOM      2  C   UNL     1      33.523 -17.727 -23.374  0.00  0.00    +0.012 C 
BRANCH   2   3
ATOM      3  C   UNL     1      34.368 -18.977 -23.116  0.00  0.00    +0.068 C 
BRANCH   3   8
ATOM      4  N   UNL     1      35.350 -19.391 -20.859  0.00  0.00    -0.219 N 
ATOM      5  N   UNL     1      36.378 -18.972 -20.108  0.00  0.00    -0.043 NA
ATOM      6  N   UNL     1      36.385 -17.922 -22.074  0.00  0.00    -0.113 NA
ATOM      7  N   UNL     1      37.008 -18.075 -20.856  0.00  0.00    -0.023 NA
ATOM      8  C   UNL     1      35.387 -18.741 -22.029  0.00  0.00    +0.161 A 
BRANCH   4   9
ATOM      9  C   UNL     1      34.411 -20.404 -20.362  0.00  0.00    +0.108 C 
ATOM     10  C   UNL     1      33.012 -19.822 -20.096  0.00  0.00    +0.024 C 
ATOM     11  C   UNL     1      34.956 -21.150 -19.132  0.00  0.00    +0.024 C 
ATOM     12  C   UNL     1      32.045 -20.900 -19.609  0.00  0.00    +0.002 C 
ATOM     13  C   UNL     1      33.977 -22.219 -18.652  0.00  0.00    +0.002 C 
ATOM     14  C   UNL     1      32.590 -21.636 -18.388  0.00  0.00    +0.000 C 
ENDBRANCH   4   9
ENDBRANCH   3   8
ENDBRANCH   2   3
ENDBRANCH   1   2
BRANCH   1  15
ATOM     15  C   UNL     1      33.718 -15.580 -24.684  0.00  0.00    +0.205 C 
BRANCH  15  16
ATOM     16  O   UNL     1      34.479 -15.068 -23.592  0.00  0.00    -0.475 OA
BRANCH  16  23
ATOM     17  O   UNL     1      30.644  -9.708 -19.726  0.00  0.00    -0.275 OA
ATOM     18  N   UNL     1      31.840 -11.629 -20.118  0.00  0.00    -0.284 N 
ATOM     19  C   UNL     1      32.654 -12.143 -22.351  0.00  0.00    -0.005 C 
ATOM     20  C   UNL     1      32.179 -10.797 -22.815  0.00  0.00    +0.037 C 
ATOM     21  C   UNL     1      32.502 -12.498 -21.005  0.00  0.00    +0.046 C 
ATOM     22  C   UNL     1      30.968 -10.343 -22.015  0.00  0.00    +0.090 C 
ATOM     23  C   UNL     1      33.845 -14.217 -22.739  0.00  0.00    +0.138 C 
ATOM     24  C   UNL     1      33.335 -13.008 -23.215  0.00  0.00    +0.034 C 
ATOM     25  C   UNL     1      31.156 -10.498 -20.518  0.00  0.00    +0.226 C 
ATOM     26  C   UNL     1      33.030 -13.698 -20.523  0.00  0.00    +0.017 C 
ATOM     27  C   UNL     1      33.695 -14.560 -21.396  0.00  0.00    +0.038 C 
ATOM     28  H   UNL     1      31.867 -11.839 -19.157  0.00  0.00    +0.155 HD
ENDBRANCH  16  23
ENDBRANCH  15  16
ENDBRANCH   1  15
TORSDOF 7
ENDMDL
MODEL 9
REMARK VINA RESULT:     -11.7      6.503     12.656
REMARK  Name = 2754
REMARK  7 active torsions:
REMARK  status: ('A' for Active; 'I' for Inactive)
REMARK    1  A    between atoms: C_1  and  C_2
REMARK    2  A    between atoms: C_1  and  C_15
REMARK    3  A    between atoms: C_2  and  C_3
REMARK    4  A    between atoms: C_3  and  C_8
REMARK    5  A    between atoms: N_4  and  C_9
REMARK    6  A    between atoms: C_15  and  O_16
REMARK    7  A    between atoms: O_16  and  C_23
REMARK                            x       y       z     vdW  Elec       q    Type
REMARK                         _______ _______ _______ _____ _____    ______ ____
ROOT
ATOM      1  C   UNL     1      32.306 -10.768 -23.407  0.00  0.00    +0.048 C 
ENDROOT
BRANCH   1   2
ATOM      2  C   UNL     1      31.449 -11.066 -22.177  0.00  0.00    +0.012 C 
BRANCH   2   3
ATOM      3  C   UNL     1      30.574  -9.866 -21.807  0.00  0.00    +0.068 C 
BRANCH   3   8
ATOM      4  N   UNL     1      31.682  -7.896 -20.749  0.00  0.00    -0.219 N 
ATOM      5  N   UNL     1      32.088  -7.489 -19.539  0.00  0.00    -0.043 NA
ATOM      6  N   UNL     1      31.169  -9.516 -19.402  0.00  0.00    -0.113 NA
ATOM      7  N   UNL     1      31.771  -8.483 -18.718  0.00  0.00    -0.023 NA
ATOM      8  C   UNL     1      31.137  -9.113 -20.628  0.00  0.00    +0.161 A 
BRANCH   4   9
ATOM      9  C   UNL     1      31.864  -7.048 -21.934  0.00  0.00    +0.108 C 
ATOM     10  C   UNL     1      33.249  -6.379 -21.966  0.00  0.00    +0.024 C 
ATOM     11  C   UNL     1      30.734  -6.015 -22.091  0.00  0.00    +0.024 C 
ATOM     12  C   UNL     1      33.427  -5.527 -23.222  0.00  0.00    +0.002 C 
ATOM     13  C   UNL     1      30.928  -5.167 -23.346  0.00  0.00    +0.002 C 
ATOM     14  C   UNL     1      32.304  -4.504 -23.371  0.00  0.00    +0.000 C 
ENDBRANCH   4   9
ENDBRANCH   3   8
ENDBRANCH   2   3
ENDBRANCH   1   2
BRANCH   1  15
ATOM     15  C   UNL     1      33.514 -11.691 -23.485  0.00  0.00    +0.205 C 
BRANCH  15  16
ATOM     16  O   UNL     1      33.069 -13.006 -23.811  0.00  0.00    -0.475 OA
BRANCH  16  23
ATOM     17  O   UNL     1      35.800 -19.229 -20.318  0.00  0.00    -0.275 OA
ATOM     18  N   UNL     1      34.913 -17.126 -20.574  0.00  0.00    -0.284 N 
ATOM     19  C   UNL     1      34.370 -16.274 -22.785  0.00  0.00    -0.005 C 
ATOM     20  C   UNL     1      34.695 -17.621 -23.365  0.00  0.00    +0.037 C 
ATOM     21  C   UNL     1      34.453 -16.085 -21.400  0.00  0.00    +0.046 C 
ATOM     22  C   UNL     1      35.761 -18.324 -22.538  0.00  0.00    +0.090 C 
ATOM     23  C   UNL     1      33.508 -14.022 -23.019  0.00  0.00    +0.138 C 
ATOM     24  C   UNL     1      33.888 -15.237 -23.591  0.00  0.00    +0.034 C 
ATOM     25  C   UNL     1      35.469 -18.297 -21.050  0.00  0.00    +0.226 C 
ATOM     26  C   UNL     1      34.053 -14.877 -20.824  0.00  0.00    +0.017 C 
ATOM     27  C   UNL     1      33.588 -13.844 -21.638  0.00  0.00    +0.038 C 
ATOM     28  H   UNL     1      34.832 -17.014 -19.599  0.00  0.00    +0.155 HD
ENDBRANCH  16  23
ENDBRANCH  15  16
ENDBRANCH   1  15
TORSDOF 7
ENDMDL
