MODEL 1
REMARK VINA RESULT:     -13.1      0.000      0.000
REMARK  Name = 9976892
REMARK  4 active torsions:
REMARK  status: ('A' for Active; 'I' for Inactive)
REMARK    1  A    between atoms: N_1  and  C_13
REMARK    2  A    between atoms: C_10  and  O_17
REMARK    3  A    between atoms: O_17  and  C_20
REMARK    4  A    between atoms: C_19  and  N_25
REMARK                            x       y       z     vdW  Elec       q    Type
REMARK                         _______ _______ _______ _____ _____    ______ ____
ROOT
ATOM      1  N   UNL     1      35.347 -23.583 -13.514  0.00  0.00    +0.389 N 
ATOM      2  C   UNL     1      36.497 -23.191 -14.342  0.00  0.00    -0.073 C 
ATOM      3  C   UNL     1      34.158 -23.945 -14.302  0.00  0.00    -0.073 C 
ATOM      4  C   UNL     1      36.317 -21.833 -15.029  0.00  0.00    +0.003 C 
ATOM      5  C   UNL     1      33.489 -22.744 -14.979  0.00  0.00    +0.003 C 
ATOM      6  C   UNL     1      35.495 -21.904 -16.291  0.00  0.00    -0.025 C 
ATOM      7  C   UNL     1      34.156 -22.335 -16.267  0.00  0.00    -0.028 C 
ATOM      8  C   UNL     1      36.070 -21.519 -17.513  0.00  0.00    +0.033 C 
ATOM      9  C   UNL     1      33.424 -22.371 -17.466  0.00  0.00    -0.002 C 
ATOM     10  C   UNL     1      35.333 -21.564 -18.696  0.00  0.00    +0.147 C 
ATOM     11  C   UNL     1      34.010 -21.988 -18.672  0.00  0.00    +0.037 C 
ATOM     12  H   UNL     1      35.094 -22.777 -12.941  0.00  0.00    -0.080 HD
ENDROOT
BRANCH   1  13
ATOM     13  C   UNL     1      35.731 -24.719 -12.716  0.00  0.00    -0.058 C 
ATOM     14  C   UNL     1      36.825 -25.544 -13.424  0.00  0.00    -0.021 C 
ATOM     15  C   UNL     1      36.804 -24.326 -11.680  0.00  0.00    -0.021 C 
ATOM     16  C   UNL     1      37.535 -25.632 -12.057  0.00  0.00    -0.004 C 
ENDBRANCH   1  13
BRANCH  10  17
ATOM     17  O   UNL     1      35.908 -21.188 -19.871  0.00  0.00    -0.436 OA
BRANCH  17  20
ATOM     18  N   UNL     1      36.423 -18.990 -20.406  0.00  0.00    -0.209 NA
ATOM     19  C   UNL     1      34.772 -17.602 -21.499  0.00  0.00    +0.073 C 
ATOM     20  C   UNL     1      35.514 -19.981 -20.424  0.00  0.00    +0.230 C 
ATOM     21  C   UNL     1      33.870 -18.659 -21.493  0.00  0.00    +0.021 C 
ATOM     22  C   UNL     1      36.026 -17.816 -20.948  0.00  0.00    +0.117 C 
ATOM     23  C   UNL     1      34.241 -19.881 -20.943  0.00  0.00    +0.059 C 
BRANCH  19  25
ATOM     24  O   UNL     1      34.094 -14.953 -20.137  0.00  0.00    -0.275 OA
ATOM     25  N   UNL     1      34.420 -16.337 -22.054  0.00  0.00    -0.257 N 
ATOM     26  C   UNL     1      34.295 -14.634 -23.650  0.00  0.00    +0.031 C 
ATOM     27  C   UNL     1      34.250 -16.138 -23.481  0.00  0.00    +0.099 C 
ATOM     28  C   UNL     1      33.704 -14.116 -22.353  0.00  0.00    +0.087 C 
ATOM     29  C   UNL     1      34.114 -15.162 -21.341  0.00  0.00    +0.229 C 
ENDBRANCH  19  25
ENDBRANCH  17  20
ENDBRANCH  10  17
TORSDOF 4
ENDMDL
MODEL 2
REMARK VINA RESULT:     -13.0      4.635     12.537
REMARK  Name = 9976892
REMARK  4 active torsions:
REMARK  status: ('A' for Active; 'I' for Inactive)
REMARK    1  A    between atoms: N_1  and  C_13
REMARK    2  A    between atoms: C_10  and  O_17
REMARK    3  A    between atoms: O_17  and  C_20
REMARK    4  A    between atoms: C_19  and  N_25
REMARK                            x       y       z     vdW  Elec       q    Type
REMARK                         _______ _______ _______ _____ _____    ______ ____
ROOT
ATOM      1  N   UNL     1      31.333  -7.860 -21.591  0.00  0.00    +0.389 N 
ATOM      2  C   UNL     1      32.389  -8.238 -22.542  0.00  0.00    -0.073 C 
ATOM      3  C   UNL     1      31.160  -8.830 -20.497  0.00  0.00    -0.073 C 
ATOM      4  C   UNL     1      32.015  -9.436 -23.421  0.00  0.00    +0.003 C 
ATOM      5  C   UNL     1      30.527 -10.149 -20.950  0.00  0.00    +0.003 C 
ATOM      6  C   UNL     1      32.219 -10.766 -22.741  0.00  0.00    -0.025 C 
ATOM      7  C   UNL     1      31.515 -11.104 -21.571  0.00  0.00    -0.028 C 
ATOM      8  C   UNL     1      33.119 -11.693 -23.292  0.00  0.00    +0.033 C 
ATOM      9  C   UNL     1      31.727 -12.361 -20.981  0.00  0.00    -0.002 C 
ATOM     10  C   UNL     1      33.322 -12.936 -22.693  0.00  0.00    +0.147 C 
ATOM     11  C   UNL     1      32.625 -13.270 -21.538  0.00  0.00    +0.037 C 
ATOM     12  H   UNL     1      30.453  -7.829 -22.107  0.00  0.00    -0.080 HD
ENDROOT
BRANCH   1  13
ATOM     13  C   UNL     1      31.675  -6.583 -21.021  0.00  0.00    -0.058 C 
ATOM     14  C   UNL     1      32.721  -5.854 -21.890  0.00  0.00    -0.021 C 
ATOM     15  C   UNL     1      30.669  -5.498 -21.457  0.00  0.00    -0.021 C 
ATOM     16  C   UNL     1      31.882  -4.574 -21.689  0.00  0.00    -0.004 C 
ENDBRANCH   1  13
BRANCH  10  17
ATOM     17  O   UNL     1      34.199 -13.820 -23.241  0.00  0.00    -0.436 OA
BRANCH  17  20
ATOM     18  N   UNL     1      34.370 -15.122 -21.328  0.00  0.00    -0.209 NA
ATOM     19  C   UNL     1      34.455 -17.531 -21.518  0.00  0.00    +0.073 C 
ATOM     20  C   UNL     1      34.285 -15.079 -22.669  0.00  0.00    +0.230 C 
ATOM     21  C   UNL     1      34.365 -17.431 -22.902  0.00  0.00    +0.021 C 
ATOM     22  C   UNL     1      34.454 -16.357 -20.782  0.00  0.00    +0.117 C 
ATOM     23  C   UNL     1      34.278 -16.180 -23.500  0.00  0.00    +0.059 C 
BRANCH  19  25
ATOM     24  O   UNL     1      36.766 -18.828 -19.998  0.00  0.00    -0.275 OA
ATOM     25  N   UNL     1      34.546 -18.801 -20.877  0.00  0.00    -0.257 N 
ATOM     26  C   UNL     1      33.806 -20.749 -19.818  0.00  0.00    +0.031 C 
ATOM     27  C   UNL     1      33.471 -19.773 -20.927  0.00  0.00    +0.099 C 
ATOM     28  C   UNL     1      35.321 -20.733 -19.781  0.00  0.00    +0.087 C 
ATOM     29  C   UNL     1      35.666 -19.322 -20.200  0.00  0.00    +0.229 C 
ENDBRANCH  19  25
ENDBRANCH  17  20
ENDBRANCH  10  17
TORSDOF 4
ENDMDL
MODEL 3
REMARK VINA RESULT:     -12.6      2.070      3.084
REMARK  Name = 9976892
REMARK  4 active torsions:
REMARK  status: ('A' for Active; 'I' for Inactive)
REMARK    1  A    between atoms: N_1  and  C_13
REMARK    2  A    between atoms: C_10  and  O_17
REMARK    3  A    between atoms: O_17  and  C_20
REMARK    4  A    between atoms: C_19  and  N_25
REMARK                            x       y       z     vdW  Elec       q    Type
REMARK                         _______ _______ _______ _____ _____    ______ ____
ROOT
ATOM      1  N   UNL     1      37.553 -23.713 -13.402  0.00  0.00    +0.389 N 
ATOM      2  C   UNL     1      37.495 -23.496 -14.854  0.00  0.00    -0.073 C 
ATOM      3  C   UNL     1      36.297 -24.238 -12.841  0.00  0.00    -0.073 C 
ATOM      4  C   UNL     1      36.610 -22.312 -15.258  0.00  0.00    +0.003 C 
ATOM      5  C   UNL     1      35.163 -23.209 -12.823  0.00  0.00    +0.003 C 
ATOM      6  C   UNL     1      35.140 -22.649 -15.300  0.00  0.00    -0.025 C 
ATOM      7  C   UNL     1      34.456 -23.074 -14.147  0.00  0.00    -0.028 C 
ATOM      8  C   UNL     1      34.438 -22.524 -16.509  0.00  0.00    +0.033 C 
ATOM      9  C   UNL     1      33.083 -23.362 -14.230  0.00  0.00    -0.002 C 
ATOM     10  C   UNL     1      33.076 -22.819 -16.578  0.00  0.00    +0.147 C 
ATOM     11  C   UNL     1      32.399 -23.237 -15.439  0.00  0.00    +0.037 C 
ATOM     12  H   UNL     1      37.722 -22.807 -12.963  0.00  0.00    -0.080 HD
ENDROOT
BRANCH   1  13
ATOM     13  C   UNL     1      38.607 -24.655 -13.127  0.00  0.00    -0.058 C 
ATOM     14  C   UNL     1      38.474 -25.906 -14.020  0.00  0.00    -0.021 C 
ATOM     15  C   UNL     1      39.877 -24.310 -13.931  0.00  0.00    -0.021 C 
ATOM     16  C   UNL     1      39.999 -25.817 -14.239  0.00  0.00    -0.004 C 
ENDBRANCH   1  13
BRANCH  10  17
ATOM     17  O   UNL     1      32.412 -22.693 -17.759  0.00  0.00    -0.436 OA
BRANCH  17  20
ATOM     18  N   UNL     1      31.986 -20.954 -19.235  0.00  0.00    -0.209 NA
ATOM     19  C   UNL     1      33.809 -19.959 -20.475  0.00  0.00    +0.073 C 
ATOM     20  C   UNL     1      32.895 -21.773 -18.675  0.00  0.00    +0.230 C 
ATOM     21  C   UNL     1      34.707 -20.828 -19.866  0.00  0.00    +0.021 C 
ATOM     22  C   UNL     1      32.471 -20.061 -20.128  0.00  0.00    +0.117 C 
ATOM     23  C   UNL     1      34.247 -21.761 -18.943  0.00  0.00    +0.059 C 
BRANCH  19  25
ATOM     24  O   UNL     1      36.009 -17.848 -20.286  0.00  0.00    -0.275 OA
ATOM     25  N   UNL     1      34.251 -18.992 -21.425  0.00  0.00    -0.257 N 
ATOM     26  C   UNL     1      34.604 -18.025 -23.523  0.00  0.00    +0.031 C 
ATOM     27  C   UNL     1      33.601 -18.817 -22.710  0.00  0.00    +0.099 C 
ATOM     28  C   UNL     1      35.310 -17.178 -22.483  0.00  0.00    +0.087 C 
ATOM     29  C   UNL     1      35.278 -18.046 -21.245  0.00  0.00    +0.229 C 
ENDBRANCH  19  25
ENDBRANCH  17  20
ENDBRANCH  10  17
TORSDOF 4
ENDMDL
MODEL 4
REMARK VINA RESULT:     -12.5      2.870     10.339
REMARK  Name = 9976892
REMARK  4 active torsions:
REMARK  status: ('A' for Active; 'I' for Inactive)
REMARK    1  A    between atoms: N_1  and  C_13
REMARK    2  A    between atoms: C_10  and  O_17
REMARK    3  A    between atoms: O_17  and  C_20
REMARK    4  A    between atoms: C_19  and  N_25
REMARK                            x       y       z     vdW  Elec       q    Type
REMARK                         _______ _______ _______ _____ _____    ______ ____
ROOT
ATOM      1  N   UNL     1      32.430 -12.252 -21.080  0.00  0.00    +0.389 N 
ATOM      2  C   UNL     1      32.540 -13.558 -20.416  0.00  0.00    -0.073 C 
ATOM      3  C   UNL     1      32.326 -12.350 -22.545  0.00  0.00    -0.073 C 
ATOM      4  C   UNL     1      33.891 -14.246 -20.646  0.00  0.00    +0.003 C 
ATOM      5  C   UNL     1      33.631 -12.783 -23.219  0.00  0.00    +0.003 C 
ATOM      6  C   UNL     1      33.979 -14.966 -21.968  0.00  0.00    -0.025 C 
ATOM      7  C   UNL     1      33.856 -14.273 -23.186  0.00  0.00    -0.028 C 
ATOM      8  C   UNL     1      34.202 -16.352 -21.986  0.00  0.00    +0.033 C 
ATOM      9  C   UNL     1      33.961 -14.983 -24.394  0.00  0.00    -0.002 C 
ATOM     10  C   UNL     1      34.299 -17.045 -23.192  0.00  0.00    +0.147 C 
ATOM     11  C   UNL     1      34.180 -16.360 -24.396  0.00  0.00    +0.037 C 
ATOM     12  H   UNL     1      33.283 -11.730 -20.874  0.00  0.00    -0.080 HD
ENDROOT
BRANCH   1  13
ATOM     13  C   UNL     1      31.253 -11.589 -20.580  0.00  0.00    -0.058 C 
ATOM     14  C   UNL     1      31.626 -10.519 -19.534  0.00  0.00    -0.021 C 
ATOM     15  C   UNL     1      30.840 -10.427 -21.508  0.00  0.00    -0.021 C 
ATOM     16  C   UNL     1      30.609  -9.592 -20.231  0.00  0.00    -0.004 C 
ENDBRANCH   1  13
BRANCH  10  17
ATOM     17  O   UNL     1      34.515 -18.388 -23.190  0.00  0.00    -0.436 OA
BRANCH  17  20
ATOM     18  N   UNL     1      33.838 -19.702 -21.402  0.00  0.00    -0.209 NA
ATOM     19  C   UNL     1      35.389 -20.180 -19.609  0.00  0.00    +0.073 C 
ATOM     20  C   UNL     1      34.821 -18.990 -21.980  0.00  0.00    +0.230 C 
ATOM     21  C   UNL     1      36.370 -19.432 -20.250  0.00  0.00    +0.021 C 
ATOM     22  C   UNL     1      34.150 -20.284 -20.221  0.00  0.00    +0.117 C 
ATOM     23  C   UNL     1      36.088 -18.818 -21.464  0.00  0.00    +0.059 C 
BRANCH  19  25
ATOM     24  O   UNL     1      33.934 -22.472 -18.210  0.00  0.00    -0.275 OA
ATOM     25  N   UNL     1      35.649 -20.820 -18.361  0.00  0.00    -0.257 N 
ATOM     26  C   UNL     1      36.889 -21.538 -16.515  0.00  0.00    +0.031 C 
ATOM     27  C   UNL     1      36.702 -20.375 -17.468  0.00  0.00    +0.099 C 
ATOM     28  C   UNL     1      35.503 -22.144 -16.423  0.00  0.00    +0.087 C 
ATOM     29  C   UNL     1      34.913 -21.874 -17.788  0.00  0.00    +0.229 C 
ENDBRANCH  19  25
ENDBRANCH  17  20
ENDBRANCH  10  17
TORSDOF 4
ENDMDL
MODEL 5
REMARK VINA RESULT:     -11.9      3.349     10.279
REMARK  Name = 9976892
REMARK  4 active torsions:
REMARK  status: ('A' for Active; 'I' for Inactive)
REMARK    1  A    between atoms: N_1  and  C_13
REMARK    2  A    between atoms: C_10  and  O_17
REMARK    3  A    between atoms: O_17  and  C_20
REMARK    4  A    between atoms: C_19  and  N_25
REMARK                            x       y       z     vdW  Elec       q    Type
REMARK                         _______ _______ _______ _____ _____    ______ ____
ROOT
ATOM      1  N   UNL     1      32.361 -12.432 -21.297  0.00  0.00    +0.389 N 
ATOM      2  C   UNL     1      32.841 -13.565 -20.493  0.00  0.00    -0.073 C 
ATOM      3  C   UNL     1      31.983 -12.808 -22.668  0.00  0.00    -0.073 C 
ATOM      4  C   UNL     1      34.219 -14.077 -20.926  0.00  0.00    +0.003 C 
ATOM      5  C   UNL     1      33.182 -13.160 -23.555  0.00  0.00    +0.003 C 
ATOM      6  C   UNL     1      34.169 -15.005 -22.114  0.00  0.00    -0.025 C 
ATOM      7  C   UNL     1      33.677 -14.570 -23.358  0.00  0.00    -0.028 C 
ATOM      8  C   UNL     1      34.633 -16.323 -21.982  0.00  0.00    +0.033 C 
ATOM      9  C   UNL     1      33.664 -15.465 -24.442  0.00  0.00    -0.002 C 
ATOM     10  C   UNL     1      34.610 -17.202 -23.065  0.00  0.00    +0.147 C 
ATOM     11  C   UNL     1      34.126 -16.772 -24.294  0.00  0.00    +0.037 C 
ATOM     12  H   UNL     1      33.128 -11.762 -21.370  0.00  0.00    -0.080 HD
ENDROOT
BRANCH   1  13
ATOM     13  C   UNL     1      31.209 -11.869 -20.642  0.00  0.00    -0.058 C 
ATOM     14  C   UNL     1      31.623 -10.754 -19.660  0.00  0.00    -0.021 C 
ATOM     15  C   UNL     1      30.569 -10.764 -21.507  0.00  0.00    -0.021 C 
ATOM     16  C   UNL     1      30.440  -9.933 -20.213  0.00  0.00    -0.004 C 
ENDBRANCH   1  13
BRANCH  10  17
ATOM     17  O   UNL     1      35.063 -18.476 -22.917  0.00  0.00    -0.436 OA
BRANCH  17  20
ATOM     18  N   UNL     1      33.274 -19.344 -21.722  0.00  0.00    -0.209 NA
ATOM     19  C   UNL     1      33.680 -20.613 -19.704  0.00  0.00    +0.073 C 
ATOM     20  C   UNL     1      34.607 -19.200 -21.828  0.00  0.00    +0.230 C 
ATOM     21  C   UNL     1      35.050 -20.435 -19.860  0.00  0.00    +0.021 C 
ATOM     22  C   UNL     1      32.841 -20.052 -20.653  0.00  0.00    +0.117 C 
ATOM     23  C   UNL     1      35.534 -19.712 -20.945  0.00  0.00    +0.059 C 
BRANCH  19  25
ATOM     24  O   UNL     1      35.104 -22.171 -17.496  0.00  0.00    -0.275 OA
ATOM     25  N   UNL     1      33.155 -21.348 -18.601  0.00  0.00    -0.257 N 
ATOM     26  C   UNL     1      31.617 -21.984 -16.960  0.00  0.00    +0.031 C 
ATOM     27  C   UNL     1      31.730 -21.533 -18.401  0.00  0.00    +0.099 C 
ATOM     28  C   UNL     1      32.904 -22.751 -16.730  0.00  0.00    +0.087 C 
ATOM     29  C   UNL     1      33.896 -22.048 -17.629  0.00  0.00    +0.229 C 
ENDBRANCH  19  25
ENDBRANCH  17  20
ENDBRANCH  10  17
TORSDOF 4
ENDMDL
MODEL 6
REMARK VINA RESULT:     -11.8      2.105      3.892
REMARK  Name = 9976892
REMARK  4 active torsions:
REMARK  status: ('A' for Active; 'I' for Inactive)
REMARK    1  A    between atoms: N_1  and  C_13
REMARK    2  A    between atoms: C_10  and  O_17
REMARK    3  A    between atoms: O_17  and  C_20
REMARK    4  A    between atoms: C_19  and  N_25
REMARK                            x       y       z     vdW  Elec       q    Type
REMARK                         _______ _______ _______ _____ _____    ______ ____
ROOT
ATOM      1  N   UNL     1      31.116 -22.925 -15.350  0.00  0.00    +0.389 N 
ATOM      2  C   UNL     1      31.192 -22.695 -16.800  0.00  0.00    -0.073 C 
ATOM      3  C   UNL     1      32.180 -22.243 -14.595  0.00  0.00    -0.073 C 
ATOM      4  C   UNL     1      32.372 -23.409 -17.468  0.00  0.00    +0.003 C 
ATOM      5  C   UNL     1      33.565 -22.864 -14.802  0.00  0.00    +0.003 C 
ATOM      6  C   UNL     1      33.678 -22.666 -17.332  0.00  0.00    -0.025 C 
ATOM      7  C   UNL     1      34.242 -22.408 -16.070  0.00  0.00    -0.028 C 
ATOM      8  C   UNL     1      34.351 -22.235 -18.486  0.00  0.00    +0.033 C 
ATOM      9  C   UNL     1      35.468 -21.726 -15.992  0.00  0.00    -0.002 C 
ATOM     10  C   UNL     1      35.565 -21.555 -18.394  0.00  0.00    +0.147 C 
ATOM     11  C   UNL     1      36.123 -21.301 -17.147  0.00  0.00    +0.037 C 
ATOM     12  H   UNL     1      31.232 -23.927 -15.192  0.00  0.00    -0.080 HD
ENDROOT
BRANCH   1  13
ATOM     13  C   UNL     1      29.842 -22.444 -14.882  0.00  0.00    -0.058 C 
ATOM     14  C   UNL     1      28.939 -22.037 -16.064  0.00  0.00    -0.021 C 
ATOM     15  C   UNL     1      28.867 -23.615 -14.639  0.00  0.00    -0.021 C 
ATOM     16  C   UNL     1      27.788 -22.758 -15.333  0.00  0.00    -0.004 C 
ENDBRANCH   1  13
BRANCH  10  17
ATOM     17  O   UNL     1      36.202 -21.144 -19.523  0.00  0.00    -0.436 OA
BRANCH  17  20
ATOM     18  N   UNL     1      36.631 -18.996 -20.289  0.00  0.00    -0.209 NA
ATOM     19  C   UNL     1      34.867 -17.724 -21.346  0.00  0.00    +0.073 C 
ATOM     20  C   UNL     1      35.740 -19.993 -20.141  0.00  0.00    +0.230 C 
ATOM     21  C   UNL     1      33.986 -18.785 -21.169  0.00  0.00    +0.021 C 
ATOM     22  C   UNL     1      36.167 -17.878 -20.893  0.00  0.00    +0.117 C 
ATOM     23  C   UNL     1      34.425 -19.951 -20.552  0.00  0.00    +0.059 C 
BRANCH  19  25
ATOM     24  O   UNL     1      34.109 -15.019 -20.146  0.00  0.00    -0.275 OA
ATOM     25  N   UNL     1      34.445 -16.515 -21.975  0.00  0.00    -0.257 N 
ATOM     26  C   UNL     1      34.204 -14.932 -23.677  0.00  0.00    +0.031 C 
ATOM     27  C   UNL     1      34.229 -16.422 -23.406  0.00  0.00    +0.099 C 
ATOM     28  C   UNL     1      33.625 -14.353 -22.402  0.00  0.00    +0.087 C 
ATOM     29  C   UNL     1      34.106 -15.308 -21.334  0.00  0.00    +0.229 C 
ENDBRANCH  19  25
ENDBRANCH  17  20
ENDBRANCH  10  17
TORSDOF 4
ENDMDL
MODEL 7
REMARK VINA RESULT:     -11.5      8.015     15.215
REMARK  Name = 9976892
REMARK  4 active torsions:
REMARK  status: ('A' for Active; 'I' for Inactive)
REMARK    1  A    between atoms: N_1  and  C_13
REMARK    2  A    between atoms: C_10  and  O_17
REMARK    3  A    between atoms: O_17  and  C_20
REMARK    4  A    between atoms: C_19  and  N_25
REMARK                            x       y       z     vdW  Elec       q    Type
REMARK                         _______ _______ _______ _____ _____    ______ ____
ROOT
ATOM      1  N   UNL     1      32.359  -4.817 -24.840  0.00  0.00    +0.389 N 
ATOM      2  C   UNL     1      31.605  -6.048 -25.120  0.00  0.00    -0.073 C 
ATOM      3  C   UNL     1      33.237  -4.926 -23.664  0.00  0.00    -0.073 C 
ATOM      4  C   UNL     1      30.500  -6.331 -24.096  0.00  0.00    +0.003 C 
ATOM      5  C   UNL     1      32.472  -4.973 -22.337  0.00  0.00    +0.003 C 
ATOM      6  C   UNL     1      31.004  -6.985 -22.835  0.00  0.00    -0.025 C 
ATOM      7  C   UNL     1      31.938  -6.342 -22.002  0.00  0.00    -0.028 C 
ATOM      8  C   UNL     1      30.523  -8.254 -22.475  0.00  0.00    +0.033 C 
ATOM      9  C   UNL     1      32.368  -6.983 -20.828  0.00  0.00    -0.002 C 
ATOM     10  C   UNL     1      30.962  -8.881 -21.309  0.00  0.00    +0.147 C 
ATOM     11  C   UNL     1      31.884  -8.245 -20.486  0.00  0.00    +0.037 C 
ATOM     12  H   UNL     1      31.680  -4.081 -24.641  0.00  0.00    -0.080 HD
ENDROOT
BRANCH   1  13
ATOM     13  C   UNL     1      33.170  -4.512 -25.991  0.00  0.00    -0.058 C 
ATOM     14  C   UNL     1      34.655  -4.378 -25.598  0.00  0.00    -0.021 C 
ATOM     15  C   UNL     1      33.564  -5.800 -26.742  0.00  0.00    -0.021 C 
ATOM     16  C   UNL     1      34.984  -5.207 -26.857  0.00  0.00    -0.004 C 
ENDBRANCH   1  13
BRANCH  10  17
ATOM     17  O   UNL     1      30.486 -10.112 -20.977  0.00  0.00    -0.436 OA
BRANCH  17  20
ATOM     18  N   UNL     1      31.561 -11.339 -22.627  0.00  0.00    -0.209 NA
ATOM     19  C   UNL     1      32.750 -13.361 -22.037  0.00  0.00    +0.073 C 
ATOM     20  C   UNL     1      31.251 -11.213 -21.324  0.00  0.00    +0.230 C 
ATOM     21  C   UNL     1      32.402 -13.184 -20.703  0.00  0.00    +0.021 C 
ATOM     22  C   UNL     1      32.309 -12.419 -22.952  0.00  0.00    +0.117 C 
ATOM     23  C   UNL     1      31.634 -12.087 -20.329  0.00  0.00    +0.059 C 
BRANCH  19  25
ATOM     24  O   UNL     1      34.285 -15.429 -20.394  0.00  0.00    -0.275 OA
ATOM     25  N   UNL     1      33.535 -14.477 -22.451  0.00  0.00    -0.257 N 
ATOM     26  C   UNL     1      34.284 -16.198 -23.842  0.00  0.00    +0.031 C 
ATOM     27  C   UNL     1      33.795 -14.765 -23.848  0.00  0.00    +0.099 C 
ATOM     28  C   UNL     1      34.991 -16.323 -22.507  0.00  0.00    +0.087 C 
ATOM     29  C   UNL     1      34.219 -15.380 -21.614  0.00  0.00    +0.229 C 
ENDBRANCH  19  25
ENDBRANCH  17  20
ENDBRANCH  10  17
TORSDOF 4
ENDMDL
MODEL 8
REMARK VINA RESULT:     -11.1      8.129     16.083
REMARK  Name = 9976892
REMARK  4 active torsions:
REMARK  status: ('A' for Active; 'I' for Inactive)
REMARK    1  A    between atoms: N_1  and  C_13
REMARK    2  A    between atoms: C_10  and  O_17
REMARK    3  A    between atoms: O_17  and  C_20
REMARK    4  A    between atoms: C_19  and  N_25
REMARK                            x       y       z     vdW  Elec       q    Type
REMARK                         _______ _______ _______ _____ _____    ______ ____
ROOT
ATOM      1  N   UNL     1      33.528  -4.783 -26.574  0.00  0.00    +0.389 N 
ATOM      2  C   UNL     1      32.593  -5.912 -26.691  0.00  0.00    -0.073 C 
ATOM      3  C   UNL     1      34.389  -4.861 -25.383  0.00  0.00    -0.073 C 
ATOM      4  C   UNL     1      31.466  -5.878 -25.652  0.00  0.00    +0.003 C 
ATOM      5  C   UNL     1      33.637  -4.605 -24.073  0.00  0.00    +0.003 C 
ATOM      6  C   UNL     1      31.875  -6.420 -24.306  0.00  0.00    -0.025 C 
ATOM      7  C   UNL     1      32.903  -5.817 -23.558  0.00  0.00    -0.028 C 
ATOM      8  C   UNL     1      31.209  -7.538 -23.780  0.00  0.00    +0.033 C 
ATOM      9  C   UNL     1      33.239  -6.347 -22.301  0.00  0.00    -0.002 C 
ATOM     10  C   UNL     1      31.557  -8.057 -22.533  0.00  0.00    +0.147 C 
ATOM     11  C   UNL     1      32.571  -7.460 -21.794  0.00  0.00    +0.037 C 
ATOM     12  H   UNL     1      32.971  -3.933 -26.488  0.00  0.00    -0.080 HD
ENDROOT
BRANCH   1  13
ATOM     13  C   UNL     1      34.366  -4.769 -27.745  0.00  0.00    -0.058 C 
ATOM     14  C   UNL     1      34.456  -3.349 -28.340  0.00  0.00    -0.021 C 
ATOM     15  C   UNL     1      35.851  -4.617 -27.356  0.00  0.00    -0.021 C 
ATOM     16  C   UNL     1      35.969  -3.598 -28.509  0.00  0.00    -0.004 C 
ENDBRANCH   1  13
BRANCH  10  17
ATOM     17  O   UNL     1      30.901  -9.142 -22.040  0.00  0.00    -0.436 OA
BRANCH  17  20
ATOM     18  N   UNL     1      32.364 -10.527 -23.191  0.00  0.00    -0.209 NA
ATOM     19  C   UNL     1      32.753 -12.781 -22.405  0.00  0.00    +0.073 C 
ATOM     20  C   UNL     1      31.521 -10.376 -22.154  0.00  0.00    +0.230 C 
ATOM     21  C   UNL     1      31.872 -12.572 -21.350  0.00  0.00    +0.021 C 
ATOM     22  C   UNL     1      32.963 -11.736 -23.291  0.00  0.00    +0.117 C 
ATOM     23  C   UNL     1      31.237 -11.343 -21.214  0.00  0.00    +0.059 C 
BRANCH  19  25
ATOM     24  O   UNL     1      34.095 -14.605 -20.355  0.00  0.00    -0.275 OA
ATOM     25  N   UNL     1      33.419 -14.031 -22.571  0.00  0.00    -0.257 N 
ATOM     26  C   UNL     1      33.977 -16.069 -23.568  0.00  0.00    +0.031 C 
ATOM     27  C   UNL     1      33.632 -14.627 -23.876  0.00  0.00    +0.099 C 
ATOM     28  C   UNL     1      34.683 -15.985 -22.230  0.00  0.00    +0.087 C 
ATOM     29  C   UNL     1      34.020 -14.804 -21.559  0.00  0.00    +0.229 C 
ENDBRANCH  19  25
ENDBRANCH  17  20
ENDBRANCH  10  17
TORSDOF 4
ENDMDL
MODEL 9
REMARK VINA RESULT:     -10.9      2.659      9.582
REMARK  Name = 9976892
REMARK  4 active torsions:
REMARK  status: ('A' for Active; 'I' for Inactive)
REMARK    1  A    between atoms: N_1  and  C_13
REMARK    2  A    between atoms: C_10  and  O_17
REMARK    3  A    between atoms: O_17  and  C_20
REMARK    4  A    between atoms: C_19  and  N_25
REMARK                            x       y       z     vdW  Elec       q    Type
REMARK                         _______ _______ _______ _____ _____    ______ ____
ROOT
ATOM      1  N   UNL     1      34.839 -19.280 -21.131  0.00  0.00    +0.389 N 
ATOM      2  C   UNL     1      35.643 -19.869 -20.049  0.00  0.00    -0.073 C 
ATOM      3  C   UNL     1      33.429 -19.074 -20.763  0.00  0.00    -0.073 C 
ATOM      4  C   UNL     1      35.311 -21.340 -19.776  0.00  0.00    +0.003 C 
ATOM      5  C   UNL     1      32.636 -20.379 -20.640  0.00  0.00    +0.003 C 
ATOM      6  C   UNL     1      34.093 -21.529 -18.907  0.00  0.00    -0.025 C 
ATOM      7  C   UNL     1      32.827 -21.074 -19.316  0.00  0.00    -0.028 C 
ATOM      8  C   UNL     1      34.221 -22.183 -17.672  0.00  0.00    +0.033 C 
ATOM      9  C   UNL     1      31.718 -21.285 -18.480  0.00  0.00    -0.002 C 
ATOM     10  C   UNL     1      33.112 -22.383 -16.850  0.00  0.00    +0.147 C 
ATOM     11  C   UNL     1      31.861 -21.934 -17.255  0.00  0.00    +0.037 C 
ATOM     12  H   UNL     1      34.852 -19.936 -21.913  0.00  0.00    -0.080 HD
ENDROOT
BRANCH   1  13
ATOM     13  C   UNL     1      35.413 -18.006 -21.478  0.00  0.00    -0.058 C 
ATOM     14  C   UNL     1      34.945 -17.555 -22.877  0.00  0.00    -0.021 C 
ATOM     15  C   UNL     1      34.570 -16.848 -20.906  0.00  0.00    -0.021 C 
ATOM     16  C   UNL     1      34.743 -16.150 -22.271  0.00  0.00    -0.004 C 
ENDBRANCH   1  13
BRANCH  10  17
ATOM     17  O   UNL     1      33.256 -23.018 -15.655  0.00  0.00    -0.436 OA
BRANCH  17  20
ATOM     18  N   UNL     1      34.728 -24.784 -15.344  0.00  0.00    -0.209 NA
ATOM     19  C   UNL     1      36.996 -24.345 -14.628  0.00  0.00    +0.073 C 
ATOM     20  C   UNL     1      34.523 -23.455 -15.306  0.00  0.00    +0.230 C 
ATOM     21  C   UNL     1      36.731 -22.980 -14.607  0.00  0.00    +0.021 C 
ATOM     22  C   UNL     1      35.969 -25.198 -15.000  0.00  0.00    +0.117 C 
ATOM     23  C   UNL     1      35.467 -22.515 -14.952  0.00  0.00    +0.059 C 
BRANCH  19  25
ATOM     24  O   UNL     1      37.946 -25.786 -12.108  0.00  0.00    -0.275 OA
ATOM     25  N   UNL     1      38.282 -24.850 -14.278  0.00  0.00    -0.257 N 
ATOM     26  C   UNL     1      40.445 -25.674 -14.604  0.00  0.00    +0.031 C 
ATOM     27  C   UNL     1      39.444 -24.665 -15.127  0.00  0.00    +0.099 C 
ATOM     28  C   UNL     1      40.121 -25.757 -13.126  0.00  0.00    +0.087 C 
ATOM     29  C   UNL     1      38.632 -25.501 -13.079  0.00  0.00    +0.229 C 
ENDBRANCH  19  25
ENDBRANCH  17  20
ENDBRANCH  10  17
TORSDOF 4
ENDMDL
