MODEL 1
REMARK VINA RESULT:     -13.4      0.000      0.000
REMARK  Name = 135565465
REMARK  7 active torsions:
REMARK  status: ('A' for Active; 'I' for Inactive)
REMARK    1  A    between atoms: N_2  and  C_9
REMARK    2  A    between atoms: N_2  and  O_21
REMARK    3  A    between atoms: C_3  and  C_23
REMARK    4  A    between atoms: C_10  and  C_14
REMARK    5  A    between atoms: C_23  and  C_24
REMARK    6  A    between atoms: C_24  and  C_25
REMARK    7  A    between atoms: C_25  and  N_27
REMARK                            x       y       z     vdW  Elec       q    Type
REMARK                         _______ _______ _______ _____ _____    ______ ____
ROOT
ATOM      1  O   UNL     1      35.476 -22.079 -17.275  0.00  0.00    -0.453 OA
ATOM      2  C   UNL     1      34.227 -19.959 -20.622  0.00  0.00    -0.040 C 
ATOM      3  C   UNL     1      33.261 -20.572 -19.818  0.00  0.00    +0.053 C 
ATOM      4  C   UNL     1      33.649 -21.293 -18.684  0.00  0.00    +0.036 C 
ATOM      5  C   UNL     1      35.578 -20.061 -20.298  0.00  0.00    -0.005 C 
ATOM      6  C   UNL     1      35.007 -21.392 -18.366  0.00  0.00    +0.143 C 
ATOM      7  C   UNL     1      35.970 -20.777 -19.171  0.00  0.00    +0.037 C 
ATOM      8  C   UNL     1      32.671 -21.961 -17.797  0.00  0.00    +0.110 C 
ATOM      9  C   UNL     1      34.564 -22.715 -16.452  0.00  0.00    +0.160 C 
ATOM     10  C   UNL     1      33.236 -22.692 -16.639  0.00  0.00    +0.060 C 
ENDROOT
BRANCH   9  13
ATOM     11  S   UNL     1      36.777 -22.848 -11.670  0.00  0.00    -0.091 S 
ATOM     12  N   UNL     1      35.284 -24.757 -15.436  0.00  0.00    -0.266 NA
ATOM     13  C   UNL     1      35.177 -23.421 -15.308  0.00  0.00    +0.093 C 
ATOM     14  C   UNL     1      35.593 -22.696 -14.206  0.00  0.00    +0.081 C 
ATOM     15  C   UNL     1      36.163 -23.441 -13.167  0.00  0.00    +0.011 C 
ATOM     16  C   UNL     1      36.294 -24.830 -13.257  0.00  0.00    +0.005 C 
ATOM     17  C   UNL     1      35.836 -25.463 -14.424  0.00  0.00    +0.152 C 
ATOM     18  C   UNL     1      36.903 -25.372 -12.077  0.00  0.00    +0.005 C 
ATOM     19  C   UNL     1      37.213 -24.410 -11.145  0.00  0.00    +0.035 C 
ENDBRANCH   9  13
BRANCH   8  20
ATOM     20  N   UNL     1      31.387 -21.944 -17.965  0.00  0.00    -0.135 NA
BRANCH  20  21
ATOM     21  O   UNL     1      30.783 -22.263 -16.749  0.00  0.00    -0.265 OA
ATOM     22  H   UNL     1      29.937 -22.664 -16.737  0.00  0.00    +0.247 HD
ENDBRANCH  20  21
ENDBRANCH   8  20
BRANCH   2  23
ATOM     23  C   UNL     1      33.808 -19.191 -21.830  0.00  0.00    +0.020 C 
BRANCH  23  24
ATOM     24  C   UNL     1      34.979 -18.432 -22.473  0.00  0.00    -0.018 C 
BRANCH  24  25
ATOM     25  C   UNL     1      35.216 -17.084 -21.793  0.00  0.00    -0.077 C 
BRANCH  25  27
ATOM     26  O   UNL     1      33.010 -14.347 -24.087  0.00  0.00    -0.358 OA
ATOM     27  N   UNL     1      34.876 -15.991 -22.702  0.00  0.00    +0.390 N 
ATOM     28  C   UNL     1      34.123 -16.490 -23.861  0.00  0.00    -0.045 C 
ATOM     29  C   UNL     1      34.101 -14.955 -22.007  0.00  0.00    -0.045 C 
ATOM     30  C   UNL     1      33.747 -13.832 -22.977  0.00  0.00    +0.119 C 
ATOM     31  C   UNL     1      33.770 -15.331 -24.788  0.00  0.00    +0.119 C 
ATOM     32  H   UNL     1      35.748 -15.578 -23.034  0.00  0.00    -0.079 HD
ENDBRANCH  25  27
ENDBRANCH  24  25
ENDBRANCH  23  24
ENDBRANCH   2  23
TORSDOF 7
ENDMDL
MODEL 2
REMARK VINA RESULT:     -13.0      4.962     12.379
REMARK  Name = 135565465
REMARK  7 active torsions:
REMARK  status: ('A' for Active; 'I' for Inactive)
REMARK    1  A    between atoms: N_2  and  C_9
REMARK    2  A    between atoms: N_2  and  O_21
REMARK    3  A    between atoms: C_3  and  C_23
REMARK    4  A    between atoms: C_10  and  C_14
REMARK    5  A    between atoms: C_23  and  C_24
REMARK    6  A    between atoms: C_24  and  C_25
REMARK    7  A    between atoms: C_25  and  N_27
REMARK                            x       y       z     vdW  Elec       q    Type
REMARK                         _______ _______ _______ _____ _____    ______ ____
ROOT
ATOM      1  O   UNL     1      33.182 -13.022 -21.967  0.00  0.00    -0.453 OA
ATOM      2  C   UNL     1      34.612 -16.902 -22.362  0.00  0.00    -0.040 C 
ATOM      3  C   UNL     1      34.162 -16.234 -23.505  0.00  0.00    +0.053 C 
ATOM      4  C   UNL     1      33.675 -14.926 -23.406  0.00  0.00    +0.036 C 
ATOM      5  C   UNL     1      34.579 -16.271 -21.121  0.00  0.00    -0.005 C 
ATOM      6  C   UNL     1      33.644 -14.300 -22.156  0.00  0.00    +0.143 C 
ATOM      7  C   UNL     1      34.095 -14.970 -21.016  0.00  0.00    +0.037 C 
ATOM      8  C   UNL     1      33.187 -14.171 -24.581  0.00  0.00    +0.110 C 
ATOM      9  C   UNL     1      32.714 -12.319 -23.062  0.00  0.00    +0.160 C 
ATOM     10  C   UNL     1      32.695 -12.800 -24.314  0.00  0.00    +0.060 C 
ENDROOT
BRANCH   9  13
ATOM     11  S   UNL     1      32.964  -7.069 -23.455  0.00  0.00    -0.091 S 
ATOM     12  N   UNL     1      31.184 -10.880 -21.917  0.00  0.00    -0.266 NA
ATOM     13  C   UNL     1      32.244 -10.955 -22.745  0.00  0.00    +0.093 C 
ATOM     14  C   UNL     1      32.895  -9.867 -23.296  0.00  0.00    +0.081 C 
ATOM     15  C   UNL     1      32.387  -8.610 -22.945  0.00  0.00    +0.011 C 
ATOM     16  C   UNL     1      31.289  -8.486 -22.088  0.00  0.00    +0.005 C 
ATOM     17  C   UNL     1      30.705  -9.660 -21.587  0.00  0.00    +0.152 C 
ATOM     18  C   UNL     1      30.952  -7.108 -21.875  0.00  0.00    +0.005 C 
ATOM     19  C   UNL     1      31.776  -6.243 -22.554  0.00  0.00    +0.035 C 
ENDBRANCH   9  13
BRANCH   8  20
ATOM     20  N   UNL     1      33.167 -14.623 -25.794  0.00  0.00    -0.135 NA
BRANCH  20  21
ATOM     21  O   UNL     1      33.076 -13.535 -26.664  0.00  0.00    -0.265 OA
ATOM     22  H   UNL     1      32.660 -13.634 -27.496  0.00  0.00    +0.247 HD
ENDBRANCH  20  21
ENDBRANCH   8  20
BRANCH   2  23
ATOM     23  C   UNL     1      35.130 -18.296 -22.474  0.00  0.00    +0.020 C 
BRANCH  23  24
ATOM     24  C   UNL     1      35.203 -19.001 -21.111  0.00  0.00    -0.018 C 
BRANCH  24  25
ATOM     25  C   UNL     1      33.929 -19.793 -20.818  0.00  0.00    -0.077 C 
BRANCH  25  27
ATOM     26  O   UNL     1      34.383 -22.616 -17.745  0.00  0.00    -0.358 OA
ATOM     27  N   UNL     1      34.003 -20.399 -19.490  0.00  0.00    +0.390 N 
ATOM     28  C   UNL     1      32.976 -21.439 -19.333  0.00  0.00    -0.045 C 
ATOM     29  C   UNL     1      35.336 -20.969 -19.250  0.00  0.00    -0.045 C 
ATOM     30  C   UNL     1      35.385 -21.607 -17.865  0.00  0.00    +0.119 C 
ATOM     31  C   UNL     1      33.081 -22.064 -17.945  0.00  0.00    +0.119 C 
ATOM     32  H   UNL     1      33.833 -19.666 -18.802  0.00  0.00    -0.079 HD
ENDBRANCH  25  27
ENDBRANCH  24  25
ENDBRANCH  23  24
ENDBRANCH   2  23
TORSDOF 7
ENDMDL
MODEL 3
REMARK VINA RESULT:     -12.8      4.488      8.367
REMARK  Name = 135565465
REMARK  7 active torsions:
REMARK  status: ('A' for Active; 'I' for Inactive)
REMARK    1  A    between atoms: N_2  and  C_9
REMARK    2  A    between atoms: N_2  and  O_21
REMARK    3  A    between atoms: C_3  and  C_23
REMARK    4  A    between atoms: C_10  and  C_14
REMARK    5  A    between atoms: C_23  and  C_24
REMARK    6  A    between atoms: C_24  and  C_25
REMARK    7  A    between atoms: C_25  and  N_27
REMARK                            x       y       z     vdW  Elec       q    Type
REMARK                         _______ _______ _______ _____ _____    ______ ____
ROOT
ATOM      1  O   UNL     1      34.293 -15.886 -21.006  0.00  0.00    -0.453 OA
ATOM      2  C   UNL     1      33.422 -12.241 -22.799  0.00  0.00    -0.040 C 
ATOM      3  C   UNL     1      33.604 -13.362 -23.614  0.00  0.00    +0.053 C 
ATOM      4  C   UNL     1      33.898 -14.605 -23.041  0.00  0.00    +0.036 C 
ATOM      5  C   UNL     1      33.532 -12.353 -21.415  0.00  0.00    -0.005 C 
ATOM      6  C   UNL     1      34.008 -14.709 -21.652  0.00  0.00    +0.143 C 
ATOM      7  C   UNL     1      33.825 -13.587 -20.840  0.00  0.00    +0.037 C 
ATOM      8  C   UNL     1      34.099 -15.824 -23.855  0.00  0.00    +0.110 C 
ATOM      9  C   UNL     1      34.494 -17.025 -21.765  0.00  0.00    +0.160 C 
ATOM     10  C   UNL     1      34.411 -17.062 -23.104  0.00  0.00    +0.060 C 
ENDROOT
BRANCH   9  13
ATOM     11  S   UNL     1      33.107 -21.476 -19.309  0.00  0.00    -0.091 S 
ATOM     12  N   UNL     1      36.083 -18.398 -20.621  0.00  0.00    -0.266 NA
ATOM     13  C   UNL     1      34.793 -18.233 -20.970  0.00  0.00    +0.093 C 
ATOM     14  C   UNL     1      33.766 -19.098 -20.637  0.00  0.00    +0.081 C 
ATOM     15  C   UNL     1      34.135 -20.218 -19.882  0.00  0.00    +0.011 C 
ATOM     16  C   UNL     1      35.463 -20.430 -19.498  0.00  0.00    +0.005 C 
ATOM     17  C   UNL     1      36.423 -19.485 -19.893  0.00  0.00    +0.152 C 
ATOM     18  C   UNL     1      35.596 -21.636 -18.734  0.00  0.00    +0.005 C 
ATOM     19  C   UNL     1      34.402 -22.294 -18.560  0.00  0.00    +0.035 C 
ENDBRANCH   9  13
BRANCH   8  20
ATOM     20  N   UNL     1      34.019 -15.874 -25.146  0.00  0.00    -0.135 NA
BRANCH  20  21
ATOM     21  O   UNL     1      32.694 -16.144 -25.491  0.00  0.00    -0.265 OA
ATOM     22  H   UNL     1      32.327 -15.770 -26.267  0.00  0.00    +0.247 HD
ENDBRANCH  20  21
ENDBRANCH   8  20
BRANCH   2  23
ATOM     23  C   UNL     1      33.109 -10.919 -23.416  0.00  0.00    +0.020 C 
BRANCH  23  24
ATOM     24  C   UNL     1      31.860 -10.272 -22.799  0.00  0.00    -0.018 C 
BRANCH  24  25
ATOM     25  C   UNL     1      31.781  -8.780 -23.124  0.00  0.00    -0.077 C 
BRANCH  25  27
ATOM     26  O   UNL     1      32.293  -7.099 -19.312  0.00  0.00    -0.358 OA
ATOM     27  N   UNL     1      31.548  -8.008 -21.905  0.00  0.00    +0.390 N 
ATOM     28  C   UNL     1      31.482  -8.890 -20.732  0.00  0.00    -0.045 C 
ATOM     29  C   UNL     1      32.601  -7.000 -21.717  0.00  0.00    -0.045 C 
ATOM     30  C   UNL     1      32.345  -6.216 -20.434  0.00  0.00    +0.119 C 
ATOM     31  C   UNL     1      31.251  -8.061 -19.472  0.00  0.00    +0.119 C 
ATOM     32  H   UNL     1      30.653  -7.530 -22.004  0.00  0.00    -0.079 HD
ENDBRANCH  25  27
ENDBRANCH  24  25
ENDBRANCH  23  24
ENDBRANCH   2  23
TORSDOF 7
ENDMDL
MODEL 4
REMARK VINA RESULT:     -12.7      1.689      2.380
REMARK  Name = 135565465
REMARK  7 active torsions:
REMARK  status: ('A' for Active; 'I' for Inactive)
REMARK    1  A    between atoms: N_2  and  C_9
REMARK    2  A    between atoms: N_2  and  O_21
REMARK    3  A    between atoms: C_3  and  C_23
REMARK    4  A    between atoms: C_10  and  C_14
REMARK    5  A    between atoms: C_23  and  C_24
REMARK    6  A    between atoms: C_24  and  C_25
REMARK    7  A    between atoms: C_25  and  N_27
REMARK                            x       y       z     vdW  Elec       q    Type
REMARK                         _______ _______ _______ _____ _____    ______ ____
ROOT
ATOM      1  O   UNL     1      36.028 -20.536 -18.716  0.00  0.00    -0.453 OA
ATOM      2  C   UNL     1      34.748 -18.470 -22.085  0.00  0.00    -0.040 C 
ATOM      3  C   UNL     1      33.831 -19.277 -21.405  0.00  0.00    +0.053 C 
ATOM      4  C   UNL     1      34.230 -19.985 -20.266  0.00  0.00    +0.036 C 
ATOM      5  C   UNL     1      36.062 -18.366 -21.634  0.00  0.00    -0.005 C 
ATOM      6  C   UNL     1      35.551 -19.877 -19.821  0.00  0.00    +0.143 C 
ATOM      7  C   UNL     1      36.465 -19.069 -20.502  0.00  0.00    +0.037 C 
ATOM      8  C   UNL     1      33.303 -20.852 -19.507  0.00  0.00    +0.110 C 
ATOM      9  C   UNL     1      35.166 -21.357 -18.012  0.00  0.00    +0.160 C 
ATOM     10  C   UNL     1      33.875 -21.543 -18.329  0.00  0.00    +0.060 C 
ENDROOT
BRANCH   9  13
ATOM     11  S   UNL     1      34.943 -24.201 -13.581  0.00  0.00    -0.091 S 
ATOM     12  N   UNL     1      37.120 -21.893 -16.741  0.00  0.00    -0.266 NA
ATOM     13  C   UNL     1      35.783 -22.015 -16.842  0.00  0.00    +0.093 C 
ATOM     14  C   UNL     1      34.981 -22.696 -15.944  0.00  0.00    +0.081 C 
ATOM     15  C   UNL     1      35.644 -23.289 -14.864  0.00  0.00    +0.011 C 
ATOM     16  C   UNL     1      37.031 -23.188 -14.720  0.00  0.00    +0.005 C 
ATOM     17  C   UNL     1      37.746 -22.472 -15.692  0.00  0.00    +0.152 C 
ATOM     18  C   UNL     1      37.481 -23.872 -13.542  0.00  0.00    +0.005 C 
ATOM     19  C   UNL     1      36.457 -24.461 -12.839  0.00  0.00    +0.035 C 
ENDBRANCH   9  13
BRANCH   8  20
ATOM     20  N   UNL     1      32.055 -21.037 -19.801  0.00  0.00    -0.135 NA
BRANCH  20  21
ATOM     21  O   UNL     1      31.348 -21.213 -18.610  0.00  0.00    -0.265 OA
ATOM     22  H   UNL     1      31.597 -20.737 -17.843  0.00  0.00    +0.247 HD
ENDBRANCH  20  21
ENDBRANCH   8  20
BRANCH   2  23
ATOM     23  C   UNL     1      34.317 -17.717 -23.298  0.00  0.00    +0.020 C 
BRANCH  23  24
ATOM     24  C   UNL     1      34.707 -16.232 -23.230  0.00  0.00    -0.018 C 
BRANCH  24  25
ATOM     25  C   UNL     1      34.327 -15.611 -21.887  0.00  0.00    -0.077 C 
BRANCH  25  27
ATOM     26  O   UNL     1      31.757 -12.351 -22.512  0.00  0.00    -0.358 OA
ATOM     27  N   UNL     1      33.836 -14.248 -22.080  0.00  0.00    +0.390 N 
ATOM     28  C   UNL     1      33.182 -14.108 -23.389  0.00  0.00    -0.045 C 
ATOM     29  C   UNL     1      32.902 -13.873 -21.009  0.00  0.00    -0.045 C 
ATOM     30  C   UNL     1      32.393 -12.453 -21.238  0.00  0.00    +0.119 C 
ATOM     31  C   UNL     1      32.668 -12.682 -23.561  0.00  0.00    +0.119 C 
ATOM     32  H   UNL     1      34.638 -13.619 -22.047  0.00  0.00    -0.079 HD
ENDBRANCH  25  27
ENDBRANCH  24  25
ENDBRANCH  23  24
ENDBRANCH   2  23
TORSDOF 7
ENDMDL
MODEL 5
REMARK VINA RESULT:     -12.4      2.872      3.996
REMARK  Name = 135565465
REMARK  7 active torsions:
REMARK  status: ('A' for Active; 'I' for Inactive)
REMARK    1  A    between atoms: N_2  and  C_9
REMARK    2  A    between atoms: N_2  and  O_21
REMARK    3  A    between atoms: C_3  and  C_23
REMARK    4  A    between atoms: C_10  and  C_14
REMARK    5  A    between atoms: C_23  and  C_24
REMARK    6  A    between atoms: C_24  and  C_25
REMARK    7  A    between atoms: C_25  and  N_27
REMARK                            x       y       z     vdW  Elec       q    Type
REMARK                         _______ _______ _______ _____ _____    ______ ____
ROOT
ATOM      1  O   UNL     1      32.703 -21.811 -17.924  0.00  0.00    -0.453 OA
ATOM      2  C   UNL     1      34.961 -19.777 -20.757  0.00  0.00    -0.040 C 
ATOM      3  C   UNL     1      35.614 -20.333 -19.652  0.00  0.00    +0.053 C 
ATOM      4  C   UNL     1      34.882 -21.025 -18.681  0.00  0.00    +0.036 C 
ATOM      5  C   UNL     1      33.581 -19.908 -20.896  0.00  0.00    -0.005 C 
ATOM      6  C   UNL     1      33.498 -21.151 -18.828  0.00  0.00    +0.143 C 
ATOM      7  C   UNL     1      32.848 -20.595 -19.933  0.00  0.00    +0.037 C 
ATOM      8  C   UNL     1      35.520 -21.635 -17.494  0.00  0.00    +0.110 C 
ATOM      9  C   UNL     1      33.295 -22.371 -16.807  0.00  0.00    +0.160 C 
ATOM     10  C   UNL     1      34.612 -22.328 -16.551  0.00  0.00    +0.060 C 
ENDROOT
BRANCH   9  13
ATOM     11  S   UNL     1      28.498 -24.120 -15.504  0.00  0.00    -0.091 S 
ATOM     12  N   UNL     1      32.877 -23.542 -14.764  0.00  0.00    -0.266 NA
ATOM     13  C   UNL     1      32.349 -23.057 -15.904  0.00  0.00    +0.093 C 
ATOM     14  C   UNL     1      31.018 -23.160 -16.266  0.00  0.00    +0.081 C 
ATOM     15  C   UNL     1      30.189 -23.825 -15.355  0.00  0.00    +0.011 C 
ATOM     16  C   UNL     1      30.694 -24.344 -14.159  0.00  0.00    +0.005 C 
ATOM     17  C   UNL     1      32.063 -24.182 -13.894  0.00  0.00    +0.152 C 
ATOM     18  C   UNL     1      29.662 -24.978 -13.391  0.00  0.00    +0.005 C 
ATOM     19  C   UNL     1      28.432 -24.927 -14.003  0.00  0.00    +0.035 C 
ENDBRANCH   9  13
BRANCH   8  20
ATOM     20  N   UNL     1      36.789 -21.603 -17.236  0.00  0.00    -0.135 NA
BRANCH  20  21
ATOM     21  O   UNL     1      37.046 -20.482 -16.446  0.00  0.00    -0.265 OA
ATOM     22  H   UNL     1      37.326 -20.589 -15.558  0.00  0.00    +0.247 HD
ENDBRANCH  20  21
ENDBRANCH   8  20
BRANCH   2  23
ATOM     23  C   UNL     1      35.747 -19.041 -21.789  0.00  0.00    +0.020 C 
BRANCH  23  24
ATOM     24  C   UNL     1      34.902 -17.987 -22.520  0.00  0.00    -0.018 C 
BRANCH  24  25
ATOM     25  C   UNL     1      35.012 -16.616 -21.854  0.00  0.00    -0.077 C 
BRANCH  25  27
ATOM     26  O   UNL     1      32.791 -13.943 -24.207  0.00  0.00    -0.358 OA
ATOM     27  N   UNL     1      34.666 -15.561 -22.804  0.00  0.00    +0.390 N 
ATOM     28  C   UNL     1      33.866 -16.098 -23.913  0.00  0.00    -0.045 C 
ATOM     29  C   UNL     1      33.935 -14.476 -22.135  0.00  0.00    -0.045 C 
ATOM     30  C   UNL     1      33.573 -13.393 -23.148  0.00  0.00    +0.119 C 
ATOM     31  C   UNL     1      33.507 -14.977 -24.883  0.00  0.00    +0.119 C 
ATOM     32  H   UNL     1      35.535 -15.183 -23.182  0.00  0.00    -0.079 HD
ENDBRANCH  25  27
ENDBRANCH  24  25
ENDBRANCH  23  24
ENDBRANCH   2  23
TORSDOF 7
ENDMDL
MODEL 6
REMARK VINA RESULT:     -12.3      4.590      8.546
REMARK  Name = 135565465
REMARK  7 active torsions:
REMARK  status: ('A' for Active; 'I' for Inactive)
REMARK    1  A    between atoms: N_2  and  C_9
REMARK    2  A    between atoms: N_2  and  O_21
REMARK    3  A    between atoms: C_3  and  C_23
REMARK    4  A    between atoms: C_10  and  C_14
REMARK    5  A    between atoms: C_23  and  C_24
REMARK    6  A    between atoms: C_24  and  C_25
REMARK    7  A    between atoms: C_25  and  N_27
REMARK                            x       y       z     vdW  Elec       q    Type
REMARK                         _______ _______ _______ _____ _____    ______ ____
ROOT
ATOM      1  O   UNL     1      34.219 -15.759 -21.034  0.00  0.00    -0.453 OA
ATOM      2  C   UNL     1      33.338 -12.065 -22.718  0.00  0.00    -0.040 C 
ATOM      3  C   UNL     1      33.605 -13.143 -23.569  0.00  0.00    +0.053 C 
ATOM      4  C   UNL     1      33.904 -14.400 -23.033  0.00  0.00    +0.036 C 
ATOM      5  C   UNL     1      33.369 -12.236 -21.336  0.00  0.00    -0.005 C 
ATOM      6  C   UNL     1      33.934 -14.563 -21.644  0.00  0.00    +0.143 C 
ATOM      7  C   UNL     1      33.667 -13.485 -20.798  0.00  0.00    +0.037 C 
ATOM      8  C   UNL     1      34.193 -15.575 -23.884  0.00  0.00    +0.110 C 
ATOM      9  C   UNL     1      34.502 -16.856 -21.828  0.00  0.00    +0.160 C 
ATOM     10  C   UNL     1      34.500 -16.836 -23.169  0.00  0.00    +0.060 C 
ENDROOT
BRANCH   9  13
ATOM     11  S   UNL     1      33.074 -21.338 -19.450  0.00  0.00    -0.091 S 
ATOM     12  N   UNL     1      36.086 -18.289 -20.752  0.00  0.00    -0.266 NA
ATOM     13  C   UNL     1      34.792 -18.089 -21.068  0.00  0.00    +0.093 C 
ATOM     14  C   UNL     1      33.755 -18.941 -20.734  0.00  0.00    +0.081 C 
ATOM     15  C   UNL     1      34.116 -20.086 -20.015  0.00  0.00    +0.011 C 
ATOM     16  C   UNL     1      35.447 -20.335 -19.665  0.00  0.00    +0.005 C 
ATOM     17  C   UNL     1      36.419 -19.400 -20.057  0.00  0.00    +0.152 C 
ATOM     18  C   UNL     1      35.571 -21.562 -18.933  0.00  0.00    +0.005 C 
ATOM     19  C   UNL     1      34.367 -22.200 -18.749  0.00  0.00    +0.035 C 
ENDBRANCH   9  13
BRANCH   8  20
ATOM     20  N   UNL     1      34.191 -15.570 -25.179  0.00  0.00    -0.135 NA
BRANCH  20  21
ATOM     21  O   UNL     1      32.866 -15.530 -25.614  0.00  0.00    -0.265 OA
ATOM     22  H   UNL     1      32.309 -16.273 -25.490  0.00  0.00    +0.247 HD
ENDBRANCH  20  21
ENDBRANCH   8  20
BRANCH   2  23
ATOM     23  C   UNL     1      33.020 -10.727 -23.295  0.00  0.00    +0.020 C 
BRANCH  23  24
ATOM     24  C   UNL     1      31.659 -10.197 -22.818  0.00  0.00    -0.018 C 
BRANCH  24  25
ATOM     25  C   UNL     1      31.795  -8.845 -22.119  0.00  0.00    -0.077 C 
BRANCH  25  27
ATOM     26  O   UNL     1      32.744  -5.233 -24.035  0.00  0.00    -0.358 OA
ATOM     27  N   UNL     1      32.413  -7.870 -23.016  0.00  0.00    +0.390 N 
ATOM     28  C   UNL     1      31.404  -7.249 -23.887  0.00  0.00    -0.045 C 
ATOM     29  C   UNL     1      33.123  -6.835 -22.253  0.00  0.00    -0.045 C 
ATOM     30  C   UNL     1      33.748  -5.823 -23.209  0.00  0.00    +0.119 C 
ATOM     31  C   UNL     1      32.070  -6.229 -24.804  0.00  0.00    +0.119 C 
ATOM     32  H   UNL     1      33.086  -8.365 -23.599  0.00  0.00    -0.079 HD
ENDBRANCH  25  27
ENDBRANCH  24  25
ENDBRANCH  23  24
ENDBRANCH   2  23
TORSDOF 7
ENDMDL
MODEL 7
REMARK VINA RESULT:     -11.0      3.177     10.214
REMARK  Name = 135565465
REMARK  7 active torsions:
REMARK  status: ('A' for Active; 'I' for Inactive)
REMARK    1  A    between atoms: N_2  and  C_9
REMARK    2  A    between atoms: N_2  and  O_21
REMARK    3  A    between atoms: C_3  and  C_23
REMARK    4  A    between atoms: C_10  and  C_14
REMARK    5  A    between atoms: C_23  and  C_24
REMARK    6  A    between atoms: C_24  and  C_25
REMARK    7  A    between atoms: C_25  and  N_27
REMARK                            x       y       z     vdW  Elec       q    Type
REMARK                         _______ _______ _______ _____ _____    ______ ____
ROOT
ATOM      1  O   UNL     1      35.498 -19.843 -19.480  0.00  0.00    -0.453 OA
ATOM      2  C   UNL     1      36.085 -22.298 -16.181  0.00  0.00    -0.040 C 
ATOM      3  C   UNL     1      34.880 -22.397 -16.883  0.00  0.00    +0.053 C 
ATOM      4  C   UNL     1      34.652 -21.584 -17.999  0.00  0.00    +0.036 C 
ATOM      5  C   UNL     1      37.063 -21.393 -16.586  0.00  0.00    -0.005 C 
ATOM      6  C   UNL     1      35.638 -20.678 -18.400  0.00  0.00    +0.143 C 
ATOM      7  C   UNL     1      36.841 -20.582 -17.696  0.00  0.00    +0.037 C 
ATOM      8  C   UNL     1      33.397 -21.647 -18.781  0.00  0.00    +0.110 C 
ATOM      9  C   UNL     1      34.321 -19.891 -20.204  0.00  0.00    +0.160 C 
ATOM     10  C   UNL     1      33.301 -20.719 -19.931  0.00  0.00    +0.060 C 
ENDROOT
BRANCH   9  13
ATOM     11  S   UNL     1      34.295 -15.051 -22.291  0.00  0.00    -0.091 S 
ATOM     12  N   UNL     1      34.206 -19.521 -22.565  0.00  0.00    -0.266 NA
ATOM     13  C   UNL     1      34.278 -18.953 -21.345  0.00  0.00    +0.093 C 
ATOM     14  C   UNL     1      34.313 -17.592 -21.107  0.00  0.00    +0.081 C 
ATOM     15  C   UNL     1      34.269 -16.774 -22.242  0.00  0.00    +0.011 C 
ATOM     16  C   UNL     1      34.193 -17.319 -23.527  0.00  0.00    +0.005 C 
ATOM     17  C   UNL     1      34.164 -18.717 -23.651  0.00  0.00    +0.152 C 
ATOM     18  C   UNL     1      34.159 -16.291 -24.526  0.00  0.00    +0.005 C 
ATOM     19  C   UNL     1      34.207 -15.024 -23.994  0.00  0.00    +0.035 C 
ENDBRANCH   9  13
BRANCH   8  20
ATOM     20  N   UNL     1      32.407 -22.443 -18.529  0.00  0.00    -0.135 NA
BRANCH  20  21
ATOM     21  O   UNL     1      31.412 -21.711 -17.880  0.00  0.00    -0.265 OA
ATOM     22  H   UNL     1      31.615 -21.235 -17.100  0.00  0.00    +0.247 HD
ENDBRANCH  20  21
ENDBRANCH   8  20
BRANCH   2  23
ATOM     23  C   UNL     1      36.323 -23.167 -14.992  0.00  0.00    +0.020 C 
BRANCH  23  24
ATOM     24  C   UNL     1      35.311 -24.320 -14.901  0.00  0.00    -0.018 C 
BRANCH  24  25
ATOM     25  C   UNL     1      34.339 -24.125 -13.739  0.00  0.00    -0.077 C 
BRANCH  25  27
ATOM     26  O   UNL     1      37.115 -24.241 -10.593  0.00  0.00    -0.358 OA
ATOM     27  N   UNL     1      34.988 -24.458 -12.473  0.00  0.00    +0.390 N 
ATOM     28  C   UNL     1      36.290 -25.100 -12.706  0.00  0.00    -0.045 C 
ATOM     29  C   UNL     1      35.161 -23.258 -11.644  0.00  0.00    -0.045 C 
ATOM     30  C   UNL     1      35.852 -23.627 -10.334  0.00  0.00    +0.119 C 
ATOM     31  C   UNL     1      36.952 -25.427 -11.372  0.00  0.00    +0.119 C 
ATOM     32  H   UNL     1      34.386 -25.113 -11.976  0.00  0.00    -0.079 HD
ENDBRANCH  25  27
ENDBRANCH  24  25
ENDBRANCH  23  24
ENDBRANCH   2  23
TORSDOF 7
ENDMDL
MODEL 8
REMARK VINA RESULT:     -10.9      6.492     13.221
REMARK  Name = 135565465
REMARK  7 active torsions:
REMARK  status: ('A' for Active; 'I' for Inactive)
REMARK    1  A    between atoms: N_2  and  C_9
REMARK    2  A    between atoms: N_2  and  O_21
REMARK    3  A    between atoms: C_3  and  C_23
REMARK    4  A    between atoms: C_10  and  C_14
REMARK    5  A    between atoms: C_23  and  C_24
REMARK    6  A    between atoms: C_24  and  C_25
REMARK    7  A    between atoms: C_25  and  N_27
REMARK                            x       y       z     vdW  Elec       q    Type
REMARK                         _______ _______ _______ _____ _____    ______ ____
ROOT
ATOM      1  O   UNL     1      32.196 -10.827 -23.629  0.00  0.00    -0.453 OA
ATOM      2  C   UNL     1      33.263 -14.759 -24.440  0.00  0.00    -0.040 C 
ATOM      3  C   UNL     1      33.122 -14.365 -23.106  0.00  0.00    +0.053 C 
ATOM      4  C   UNL     1      32.763 -13.047 -22.799  0.00  0.00    +0.036 C 
ATOM      5  C   UNL     1      33.047 -13.846 -25.469  0.00  0.00    -0.005 C 
ATOM      6  C   UNL     1      32.550 -12.137 -23.838  0.00  0.00    +0.143 C 
ATOM      7  C   UNL     1      32.690 -12.534 -25.170  0.00  0.00    +0.037 C 
ATOM      8  C   UNL     1      32.598 -12.575 -21.407  0.00  0.00    +0.110 C 
ATOM      9  C   UNL     1      32.054 -10.380 -22.328  0.00  0.00    +0.160 C 
ATOM     10  C   UNL     1      32.223 -11.152 -21.243  0.00  0.00    +0.060 C 
ENDROOT
BRANCH   9  13
ATOM     11  S   UNL     1      30.778  -5.702 -24.393  0.00  0.00    -0.091 S 
ATOM     12  N   UNL     1      31.550  -8.480 -20.965  0.00  0.00    -0.266 NA
ATOM     13  C   UNL     1      31.671  -8.958 -22.219  0.00  0.00    +0.093 C 
ATOM     14  C   UNL     1      31.464  -8.220 -23.370  0.00  0.00    +0.081 C 
ATOM     15  C   UNL     1      31.104  -6.881 -23.178  0.00  0.00    +0.011 C 
ATOM     16  C   UNL     1      30.967  -6.342 -21.895  0.00  0.00    +0.005 C 
ATOM     17  C   UNL     1      31.201  -7.185 -20.797  0.00  0.00    +0.152 C 
ATOM     18  C   UNL     1      30.594  -4.959 -21.950  0.00  0.00    +0.005 C 
ATOM     19  C   UNL     1      30.460  -4.491 -23.236  0.00  0.00    +0.035 C 
ENDBRANCH   9  13
BRANCH   8  20
ATOM     20  N   UNL     1      32.755 -13.310 -20.353  0.00  0.00    -0.135 NA
BRANCH  20  21
ATOM     21  O   UNL     1      31.516 -13.852 -20.009  0.00  0.00    -0.265 OA
ATOM     22  H   UNL     1      30.731 -13.495 -20.374  0.00  0.00    +0.247 HD
ENDBRANCH  20  21
ENDBRANCH   8  20
BRANCH   2  23
ATOM     23  C   UNL     1      33.646 -16.165 -24.761  0.00  0.00    +0.020 C 
BRANCH  23  24
ATOM     24  C   UNL     1      34.331 -16.866 -23.578  0.00  0.00    -0.018 C 
BRANCH  24  25
ATOM     25  C   UNL     1      33.875 -18.318 -23.443  0.00  0.00    -0.077 C 
BRANCH  25  27
ATOM     26  O   UNL     1      35.835 -19.326 -19.871  0.00  0.00    -0.358 OA
ATOM     27  N   UNL     1      34.703 -19.021 -22.465  0.00  0.00    +0.390 N 
ATOM     28  C   UNL     1      35.804 -18.165 -22.000  0.00  0.00    -0.045 C 
ATOM     29  C   UNL     1      33.895 -19.466 -21.321  0.00  0.00    -0.045 C 
ATOM     30  C   UNL     1      34.781 -20.184 -20.308  0.00  0.00    +0.119 C 
ATOM     31  C   UNL     1      36.645 -18.915 -20.972  0.00  0.00    +0.119 C 
ATOM     32  H   UNL     1      35.099 -19.841 -22.922  0.00  0.00    -0.079 HD
ENDBRANCH  25  27
ENDBRANCH  24  25
ENDBRANCH  23  24
ENDBRANCH   2  23
TORSDOF 7
ENDMDL
MODEL 9
REMARK VINA RESULT:     -10.8      5.243     12.204
REMARK  Name = 135565465
REMARK  7 active torsions:
REMARK  status: ('A' for Active; 'I' for Inactive)
REMARK    1  A    between atoms: N_2  and  C_9
REMARK    2  A    between atoms: N_2  and  O_21
REMARK    3  A    between atoms: C_3  and  C_23
REMARK    4  A    between atoms: C_10  and  C_14
REMARK    5  A    between atoms: C_23  and  C_24
REMARK    6  A    between atoms: C_24  and  C_25
REMARK    7  A    between atoms: C_25  and  N_27
REMARK                            x       y       z     vdW  Elec       q    Type
REMARK                         _______ _______ _______ _____ _____    ______ ____
ROOT
ATOM      1  O   UNL     1      32.762 -12.848 -23.567  0.00  0.00    -0.453 OA
ATOM      2  C   UNL     1      34.202 -16.743 -23.670  0.00  0.00    -0.040 C 
ATOM      3  C   UNL     1      34.152 -16.079 -22.440  0.00  0.00    +0.053 C 
ATOM      4  C   UNL     1      33.672 -14.767 -22.372  0.00  0.00    +0.036 C 
ATOM      5  C   UNL     1      33.775 -16.104 -24.831  0.00  0.00    -0.005 C 
ATOM      6  C   UNL     1      33.246 -14.132 -23.542  0.00  0.00    +0.143 C 
ATOM      7  C   UNL     1      33.296 -14.798 -24.769  0.00  0.00    +0.037 C 
ATOM      8  C   UNL     1      33.595 -14.017 -21.099  0.00  0.00    +0.110 C 
ATOM      9  C   UNL     1      32.702 -12.140 -22.380  0.00  0.00    +0.160 C 
ATOM     10  C   UNL     1      33.071 -12.635 -21.189  0.00  0.00    +0.060 C 
ENDROOT
BRANCH   9  13
ATOM     11  S   UNL     1      33.079  -7.087 -23.830  0.00  0.00    -0.091 S 
ATOM     12  N   UNL     1      30.906 -10.589 -22.077  0.00  0.00    -0.266 NA
ATOM     13  C   UNL     1      32.164 -10.772 -22.523  0.00  0.00    +0.093 C 
ATOM     14  C   UNL     1      32.955  -9.787 -23.086  0.00  0.00    +0.081 C 
ATOM     15  C   UNL     1      32.370  -8.519 -23.183  0.00  0.00    +0.011 C 
ATOM     16  C   UNL     1      31.067  -8.284 -22.733  0.00  0.00    +0.005 C 
ATOM     17  C   UNL     1      30.355  -9.359 -22.178  0.00  0.00    +0.152 C 
ATOM     18  C   UNL     1      30.687  -6.916 -22.936  0.00  0.00    +0.005 C 
ATOM     19  C   UNL     1      31.680  -6.164 -23.518  0.00  0.00    +0.035 C 
ENDBRANCH   9  13
BRANCH   8  20
ATOM     20  N   UNL     1      33.946 -14.483 -19.943  0.00  0.00    -0.135 NA
BRANCH  20  21
ATOM     21  O   UNL     1      34.314 -15.820 -20.104  0.00  0.00    -0.265 OA
ATOM     22  H   UNL     1      33.700 -16.436 -20.450  0.00  0.00    +0.247 HD
ENDBRANCH  20  21
ENDBRANCH   8  20
BRANCH   2  23
ATOM     23  C   UNL     1      34.715 -18.142 -23.737  0.00  0.00    +0.020 C 
BRANCH  23  24
ATOM     24  C   UNL     1      34.199 -19.007 -22.577  0.00  0.00    -0.018 C 
BRANCH  24  25
ATOM     25  C   UNL     1      35.182 -19.026 -21.407  0.00  0.00    -0.077 C 
BRANCH  25  27
ATOM     26  O   UNL     1      33.326 -21.878 -18.950  0.00  0.00    -0.358 OA
ATOM     27  N   UNL     1      34.576 -19.673 -20.245  0.00  0.00    +0.390 N 
ATOM     28  C   UNL     1      33.178 -20.034 -20.518  0.00  0.00    -0.045 C 
ATOM     29  C   UNL     1      35.337 -20.868 -19.858  0.00  0.00    -0.045 C 
ATOM     30  C   UNL     1      34.680 -21.533 -18.652  0.00  0.00    +0.119 C 
ATOM     31  C   UNL     1      32.571 -20.717 -19.297  0.00  0.00    +0.119 C 
ATOM     32  H   UNL     1      34.596 -19.008 -19.472  0.00  0.00    -0.079 HD
ENDBRANCH  25  27
ENDBRANCH  24  25
ENDBRANCH  23  24
ENDBRANCH   2  23
TORSDOF 7
ENDMDL
