MODEL 1
REMARK VINA RESULT:     -11.8      0.000      0.000
REMARK  Name = 9543486
REMARK  9 active torsions:
REMARK  status: ('A' for Active; 'I' for Inactive)
REMARK    1  A    between atoms: C_1  and  N_2
REMARK    2  A    between atoms: C_1  and  C_17
REMARK    3  A    between atoms: N_2  and  S_4
REMARK    4  A    between atoms: S_4  and  C_7
REMARK    5  A    between atoms: C_17  and  O_18
REMARK    6  A    between atoms: C_17  and  C_20
REMARK    7  A    between atoms: C_20  and  N_21
REMARK    8  A    between atoms: C_20  and  C_25
REMARK    9  A    between atoms: C_25  and  C_26
REMARK                            x       y       z     vdW  Elec       q    Type
REMARK                         _______ _______ _______ _____ _____    ______ ____
ROOT
ATOM      1  C   UNL     1      33.373 -19.898 -20.419  0.00  0.00    +0.118 C 
ENDROOT
BRANCH   1   2
ATOM      2  N   UNL     1      34.147 -20.773 -19.505  0.00  0.00    -0.177 NA
ATOM      3  H   UNL     1      34.915 -21.164 -20.052  0.00  0.00    +0.149 HD
BRANCH   2   4
ATOM      4  S   UNL     1      33.381 -22.075 -18.730  0.00  0.00    +0.060 S 
ATOM      5  O   UNL     1      33.579 -23.284 -19.507  0.00  0.00    -0.153 OA
ATOM      6  O   UNL     1      32.043 -21.667 -18.346  0.00  0.00    -0.153 OA
BRANCH   4   7
ATOM      7  C   UNL     1      34.324 -22.221 -17.242  0.00  0.00    +0.122 C 
ATOM      8  C   UNL     1      33.746 -22.811 -16.131  0.00  0.00    +0.020 C 
ATOM      9  C   UNL     1      34.481 -22.934 -14.942  0.00  0.00    +0.001 C 
ATOM     10  C   UNL     1      35.620 -21.744 -17.216  0.00  0.00    +0.020 C 
ATOM     11  C   UNL     1      35.810 -22.451 -14.897  0.00  0.00    +0.000 C 
ATOM     12  C   UNL     1      36.365 -21.858 -16.043  0.00  0.00    +0.001 C 
ATOM     13  C   UNL     1      33.926 -23.526 -13.795  0.00  0.00    +0.000 C 
ATOM     14  C   UNL     1      36.546 -22.573 -13.706  0.00  0.00    +0.000 C 
ATOM     15  C   UNL     1      34.672 -23.641 -12.622  0.00  0.00    +0.000 C 
ATOM     16  C   UNL     1      35.979 -23.165 -12.577  0.00  0.00    +0.000 C 
ENDBRANCH   4   7
ENDBRANCH   2   4
ENDBRANCH   1   2
BRANCH   1  17
ATOM     17  C   UNL     1      34.289 -19.394 -21.537  0.00  0.00    +0.108 C 
BRANCH  17  18
ATOM     18  O   UNL     1      33.502 -19.096 -22.691  0.00  0.00    -0.385 OA
ATOM     19  H   UNL     1      32.756 -19.716 -22.742  0.00  0.00    +0.210 HD
ENDBRANCH  17  18
BRANCH  17  20
ATOM     20  C   UNL     1      35.100 -18.141 -21.128  0.00  0.00    -0.032 C 
BRANCH  20  21
ATOM     21  N   UNL     1      36.418 -18.536 -20.617  0.00  0.00    +0.384 N 
ATOM     22  H   UNL     1      37.138 -18.275 -21.292  0.00  0.00    -0.089 HD
ATOM     23  H   UNL     1      36.439 -19.545 -20.471  0.00  0.00    -0.089 HD
ATOM     24  H   UNL     1      36.597 -18.060 -19.731  0.00  0.00    -0.089 HD
ENDBRANCH  20  21
BRANCH  20  25
ATOM     25  C   UNL     1      35.305 -17.139 -22.287  0.00  0.00    +0.007 C 
BRANCH  25  26
ATOM     26  C   UNL     1      34.600 -15.820 -22.080  0.00  0.00    -0.024 C 
ATOM     27  C   UNL     1      34.174 -15.471 -20.808  0.00  0.00    -0.004 C 
ATOM     28  C   UNL     1      34.392 -14.983 -23.164  0.00  0.00    -0.004 C 
ATOM     29  C   UNL     1      33.523 -14.251 -20.616  0.00  0.00    -0.000 C 
ATOM     30  C   UNL     1      33.742 -13.764 -22.972  0.00  0.00    -0.000 C 
ATOM     31  C   UNL     1      33.307 -13.398 -21.698  0.00  0.00    -0.000 C 
ENDBRANCH  25  26
ENDBRANCH  20  25
ENDBRANCH  17  20
ENDBRANCH   1  17
TORSDOF 9
ENDMDL
MODEL 2
REMARK VINA RESULT:     -11.6      1.717      2.373
REMARK  Name = 9543486
REMARK  9 active torsions:
REMARK  status: ('A' for Active; 'I' for Inactive)
REMARK    1  A    between atoms: C_1  and  N_2
REMARK    2  A    between atoms: C_1  and  C_17
REMARK    3  A    between atoms: N_2  and  S_4
REMARK    4  A    between atoms: S_4  and  C_7
REMARK    5  A    between atoms: C_17  and  O_18
REMARK    6  A    between atoms: C_17  and  C_20
REMARK    7  A    between atoms: C_20  and  N_21
REMARK    8  A    between atoms: C_20  and  C_25
REMARK    9  A    between atoms: C_25  and  C_26
REMARK                            x       y       z     vdW  Elec       q    Type
REMARK                         _______ _______ _______ _____ _____    ______ ____
ROOT
ATOM      1  C   UNL     1      35.473 -20.389 -20.045  0.00  0.00    +0.118 C 
ENDROOT
BRANCH   1   2
ATOM      2  N   UNL     1      34.483 -20.672 -18.978  0.00  0.00    -0.177 NA
ATOM      3  H   UNL     1      35.013 -20.840 -18.122  0.00  0.00    +0.149 HD
BRANCH   2   4
ATOM      4  S   UNL     1      33.401 -21.969 -19.150  0.00  0.00    +0.060 S 
ATOM      5  O   UNL     1      34.095 -23.105 -19.726  0.00  0.00    -0.153 OA
ATOM      6  O   UNL     1      32.178 -21.478 -19.757  0.00  0.00    -0.153 OA
BRANCH   4   7
ATOM      7  C   UNL     1      33.023 -22.356 -17.468  0.00  0.00    +0.122 C 
ATOM      8  C   UNL     1      31.698 -22.410 -17.068  0.00  0.00    +0.020 C 
ATOM      9  C   UNL     1      31.381 -22.715 -15.735  0.00  0.00    +0.001 C 
ATOM     10  C   UNL     1      34.056 -22.598 -16.584  0.00  0.00    +0.020 C 
ATOM     11  C   UNL     1      32.427 -22.966 -14.815  0.00  0.00    +0.000 C 
ATOM     12  C   UNL     1      33.759 -22.903 -15.256  0.00  0.00    +0.001 C 
ATOM     13  C   UNL     1      30.049 -22.778 -15.294  0.00  0.00    +0.000 C 
ATOM     14  C   UNL     1      32.110 -23.271 -13.481  0.00  0.00    +0.000 C 
ATOM     15  C   UNL     1      29.752 -23.084 -13.966  0.00  0.00    +0.000 C 
ATOM     16  C   UNL     1      30.781 -23.330 -13.061  0.00  0.00    +0.000 C 
ENDBRANCH   4   7
ENDBRANCH   2   4
ENDBRANCH   1   2
BRANCH   1  17
ATOM     17  C   UNL     1      34.832 -19.490 -21.107  0.00  0.00    +0.108 C 
BRANCH  17  18
ATOM     18  O   UNL     1      33.472 -19.240 -20.752  0.00  0.00    -0.385 OA
ATOM     19  H   UNL     1      33.428 -18.940 -19.830  0.00  0.00    +0.210 HD
ENDBRANCH  17  18
BRANCH  17  20
ATOM     20  C   UNL     1      35.577 -18.144 -21.280  0.00  0.00    -0.032 C 
BRANCH  20  21
ATOM     21  N   UNL     1      37.024 -18.374 -21.374  0.00  0.00    +0.384 N 
ATOM     22  H   UNL     1      37.515 -17.481 -21.321  0.00  0.00    -0.089 HD
ATOM     23  H   UNL     1      37.240 -18.829 -22.261  0.00  0.00    -0.089 HD
ATOM     24  H   UNL     1      37.325 -18.972 -20.603  0.00  0.00    -0.089 HD
ENDBRANCH  20  21
BRANCH  20  25
ATOM     25  C   UNL     1      35.126 -17.351 -22.527  0.00  0.00    +0.007 C 
BRANCH  25  26
ATOM     26  C   UNL     1      34.570 -15.983 -22.208  0.00  0.00    -0.024 C 
ATOM     27  C   UNL     1      34.231 -15.678 -20.899  0.00  0.00    -0.004 C 
ATOM     28  C   UNL     1      34.410 -15.060 -23.228  0.00  0.00    -0.004 C 
ATOM     29  C   UNL     1      33.718 -14.414 -20.604  0.00  0.00    -0.000 C 
ATOM     30  C   UNL     1      33.898 -13.797 -22.933  0.00  0.00    -0.000 C 
ATOM     31  C   UNL     1      33.551 -13.474 -21.621  0.00  0.00    -0.000 C 
ENDBRANCH  25  26
ENDBRANCH  20  25
ENDBRANCH  17  20
ENDBRANCH   1  17
TORSDOF 9
ENDMDL
MODEL 3
REMARK VINA RESULT:     -11.4      2.015      9.630
REMARK  Name = 9543486
REMARK  9 active torsions:
REMARK  status: ('A' for Active; 'I' for Inactive)
REMARK    1  A    between atoms: C_1  and  N_2
REMARK    2  A    between atoms: C_1  and  C_17
REMARK    3  A    between atoms: N_2  and  S_4
REMARK    4  A    between atoms: S_4  and  C_7
REMARK    5  A    between atoms: C_17  and  O_18
REMARK    6  A    between atoms: C_17  and  C_20
REMARK    7  A    between atoms: C_20  and  N_21
REMARK    8  A    between atoms: C_20  and  C_25
REMARK    9  A    between atoms: C_25  and  C_26
REMARK                            x       y       z     vdW  Elec       q    Type
REMARK                         _______ _______ _______ _____ _____    ______ ____
ROOT
ATOM      1  C   UNL     1      34.171 -20.254 -20.984  0.00  0.00    +0.118 C 
ENDROOT
BRANCH   1   2
ATOM      2  N   UNL     1      33.963 -18.951 -21.661  0.00  0.00    -0.177 NA
ATOM      3  H   UNL     1      33.711 -19.158 -22.627  0.00  0.00    +0.149 HD
BRANCH   2   4
ATOM      4  S   UNL     1      35.223 -17.814 -21.712  0.00  0.00    +0.060 S 
ATOM      5  O   UNL     1      36.340 -18.365 -22.456  0.00  0.00    -0.153 OA
ATOM      6  O   UNL     1      35.427 -17.283 -20.378  0.00  0.00    -0.153 OA
BRANCH   4   7
ATOM      7  C   UNL     1      34.508 -16.519 -22.680  0.00  0.00    +0.122 C 
ATOM      8  C   UNL     1      34.390 -15.253 -22.132  0.00  0.00    +0.020 C 
ATOM      9  C   UNL     1      33.824 -14.214 -22.887  0.00  0.00    +0.001 C 
ATOM     10  C   UNL     1      34.080 -16.795 -23.964  0.00  0.00    +0.020 C 
ATOM     11  C   UNL     1      33.380 -14.478 -24.205  0.00  0.00    +0.000 C 
ATOM     12  C   UNL     1      33.516 -15.775 -24.728  0.00  0.00    +0.001 C 
ATOM     13  C   UNL     1      33.689 -12.917 -22.364  0.00  0.00    +0.000 C 
ATOM     14  C   UNL     1      32.813 -13.438 -24.960  0.00  0.00    +0.000 C 
ATOM     15  C   UNL     1      33.124 -11.896 -23.129  0.00  0.00    +0.000 C 
ATOM     16  C   UNL     1      32.687 -12.156 -24.424  0.00  0.00    +0.000 C 
ENDBRANCH   4   7
ENDBRANCH   2   4
ENDBRANCH   1   2
BRANCH   1  17
ATOM     17  C   UNL     1      33.210 -20.369 -19.797  0.00  0.00    +0.108 C 
BRANCH  17  18
ATOM     18  O   UNL     1      31.894 -20.637 -20.283  0.00  0.00    -0.385 OA
ATOM     19  H   UNL     1      31.872 -20.510 -21.244  0.00  0.00    +0.210 HD
ENDBRANCH  17  18
BRANCH  17  20
ATOM     20  C   UNL     1      33.626 -21.474 -18.795  0.00  0.00    -0.032 C 
BRANCH  20  21
ATOM     21  N   UNL     1      33.224 -22.793 -19.300  0.00  0.00    +0.384 N 
ATOM     22  H   UNL     1      33.687 -23.521 -18.755  0.00  0.00    -0.089 HD
ATOM     23  H   UNL     1      33.494 -22.879 -20.280  0.00  0.00    -0.089 HD
ATOM     24  H   UNL     1      32.213 -22.897 -19.216  0.00  0.00    -0.089 HD
ENDBRANCH  20  21
BRANCH  20  25
ATOM     25  C   UNL     1      35.144 -21.500 -18.509  0.00  0.00    +0.007 C 
BRANCH  25  26
ATOM     26  C   UNL     1      35.487 -21.883 -17.089  0.00  0.00    -0.024 C 
ATOM     27  C   UNL     1      36.798 -21.772 -16.655  0.00  0.00    -0.004 C 
ATOM     28  C   UNL     1      34.485 -22.338 -16.247  0.00  0.00    -0.004 C 
ATOM     29  C   UNL     1      37.116 -22.125 -15.343  0.00  0.00    -0.000 C 
ATOM     30  C   UNL     1      34.803 -22.690 -14.936  0.00  0.00    -0.000 C 
ATOM     31  C   UNL     1      36.118 -22.585 -14.483  0.00  0.00    -0.000 C 
ENDBRANCH  25  26
ENDBRANCH  20  25
ENDBRANCH  17  20
ENDBRANCH   1  17
TORSDOF 9
ENDMDL
MODEL 4
REMARK VINA RESULT:     -11.4      3.006      8.899
REMARK  Name = 9543486
REMARK  9 active torsions:
REMARK  status: ('A' for Active; 'I' for Inactive)
REMARK    1  A    between atoms: C_1  and  N_2
REMARK    2  A    between atoms: C_1  and  C_17
REMARK    3  A    between atoms: N_2  and  S_4
REMARK    4  A    between atoms: S_4  and  C_7
REMARK    5  A    between atoms: C_17  and  O_18
REMARK    6  A    between atoms: C_17  and  C_20
REMARK    7  A    between atoms: C_20  and  N_21
REMARK    8  A    between atoms: C_20  and  C_25
REMARK    9  A    between atoms: C_25  and  C_26
REMARK                            x       y       z     vdW  Elec       q    Type
REMARK                         _______ _______ _______ _____ _____    ______ ____
ROOT
ATOM      1  C   UNL     1      34.341 -22.516 -15.525  0.00  0.00    +0.118 C 
ENDROOT
BRANCH   1   2
ATOM      2  N   UNL     1      34.525 -22.365 -16.989  0.00  0.00    -0.177 NA
ATOM      3  H   UNL     1      34.929 -21.441 -17.141  0.00  0.00    +0.149 HD
BRANCH   2   4
ATOM      4  S   UNL     1      33.188 -22.496 -18.027  0.00  0.00    +0.060 S 
ATOM      5  O   UNL     1      31.980 -22.140 -17.307  0.00  0.00    -0.153 OA
ATOM      6  O   UNL     1      33.268 -23.760 -18.735  0.00  0.00    -0.153 OA
BRANCH   4   7
ATOM      7  C   UNL     1      33.515 -21.221 -19.207  0.00  0.00    +0.122 C 
ATOM      8  C   UNL     1      34.818 -20.792 -19.394  0.00  0.00    +0.020 C 
ATOM      9  C   UNL     1      35.094 -19.780 -20.327  0.00  0.00    +0.001 C 
ATOM     10  C   UNL     1      32.464 -20.678 -19.920  0.00  0.00    +0.020 C 
ATOM     11  C   UNL     1      34.030 -19.211 -21.067  0.00  0.00    +0.000 C 
ATOM     12  C   UNL     1      32.721 -19.672 -20.851  0.00  0.00    +0.001 C 
ATOM     13  C   UNL     1      36.403 -19.319 -20.542  0.00  0.00    +0.000 C 
ATOM     14  C   UNL     1      34.306 -18.198 -22.000  0.00  0.00    +0.000 C 
ATOM     15  C   UNL     1      36.660 -18.313 -21.474  0.00  0.00    +0.000 C 
ATOM     16  C   UNL     1      35.613 -17.754 -22.201  0.00  0.00    +0.000 C 
ENDBRANCH   4   7
ENDBRANCH   2   4
ENDBRANCH   1   2
BRANCH   1  17
ATOM     17  C   UNL     1      34.141 -23.997 -15.188  0.00  0.00    +0.108 C 
BRANCH  17  18
ATOM     18  O   UNL     1      35.409 -24.654 -15.187  0.00  0.00    -0.385 OA
ATOM     19  H   UNL     1      35.429 -25.317 -14.479  0.00  0.00    +0.210 HD
ENDBRANCH  17  18
BRANCH  17  20
ATOM     20  C   UNL     1      33.447 -24.211 -13.821  0.00  0.00    -0.032 C 
BRANCH  20  21
ATOM     21  N   UNL     1      34.443 -24.208 -12.742  0.00  0.00    +0.384 N 
ATOM     22  H   UNL     1      34.063 -24.690 -11.926  0.00  0.00    -0.089 HD
ATOM     23  H   UNL     1      34.671 -23.246 -12.492  0.00  0.00    -0.089 HD
ATOM     24  H   UNL     1      35.287 -24.688 -13.055  0.00  0.00    -0.089 HD
ENDBRANCH  20  21
BRANCH  20  25
ATOM     25  C   UNL     1      32.378 -23.142 -13.503  0.00  0.00    +0.007 C 
BRANCH  25  26
ATOM     26  C   UNL     1      31.000 -23.493 -14.011  0.00  0.00    -0.024 C 
ATOM     27  C   UNL     1      30.220 -22.505 -14.592  0.00  0.00    -0.004 C 
ATOM     28  C   UNL     1      30.540 -24.794 -13.888  0.00  0.00    -0.004 C 
ATOM     29  C   UNL     1      28.946 -22.829 -15.062  0.00  0.00    -0.000 C 
ATOM     30  C   UNL     1      29.268 -25.117 -14.358  0.00  0.00    -0.000 C 
ATOM     31  C   UNL     1      28.470 -24.135 -14.945  0.00  0.00    -0.000 C 
ENDBRANCH  25  26
ENDBRANCH  20  25
ENDBRANCH  17  20
ENDBRANCH   1  17
TORSDOF 9
ENDMDL
MODEL 5
REMARK VINA RESULT:     -11.3      2.256      9.329
REMARK  Name = 9543486
REMARK  9 active torsions:
REMARK  status: ('A' for Active; 'I' for Inactive)
REMARK    1  A    between atoms: C_1  and  N_2
REMARK    2  A    between atoms: C_1  and  C_17
REMARK    3  A    between atoms: N_2  and  S_4
REMARK    4  A    between atoms: S_4  and  C_7
REMARK    5  A    between atoms: C_17  and  O_18
REMARK    6  A    between atoms: C_17  and  C_20
REMARK    7  A    between atoms: C_20  and  N_21
REMARK    8  A    between atoms: C_20  and  C_25
REMARK    9  A    between atoms: C_25  and  C_26
REMARK                            x       y       z     vdW  Elec       q    Type
REMARK                         _______ _______ _______ _____ _____    ______ ____
ROOT
ATOM      1  C   UNL     1      33.671 -19.546 -20.688  0.00  0.00    +0.118 C 
ENDROOT
BRANCH   1   2
ATOM      2  N   UNL     1      34.650 -19.288 -21.771  0.00  0.00    -0.177 NA
ATOM      3  H   UNL     1      35.176 -20.152 -21.904  0.00  0.00    +0.149 HD
BRANCH   2   4
ATOM      4  S   UNL     1      35.788 -18.040 -21.602  0.00  0.00    +0.060 S 
ATOM      5  O   UNL     1      36.882 -18.255 -22.530  0.00  0.00    -0.153 OA
ATOM      6  O   UNL     1      36.058 -17.842 -20.190  0.00  0.00    -0.153 OA
BRANCH   4   7
ATOM      7  C   UNL     1      34.872 -16.633 -22.155  0.00  0.00    +0.122 C 
ATOM      8  C   UNL     1      34.386 -15.734 -21.220  0.00  0.00    +0.020 C 
ATOM      9  C   UNL     1      33.656 -14.612 -21.643  0.00  0.00    +0.001 C 
ATOM     10  C   UNL     1      34.659 -16.457 -23.508  0.00  0.00    +0.020 C 
ATOM     11  C   UNL     1      33.427 -14.415 -23.025  0.00  0.00    +0.000 C 
ATOM     12  C   UNL     1      33.935 -15.348 -23.945  0.00  0.00    +0.001 C 
ATOM     13  C   UNL     1      33.148 -13.679 -20.723  0.00  0.00    +0.000 C 
ATOM     14  C   UNL     1      32.696 -13.293 -23.448  0.00  0.00    +0.000 C 
ATOM     15  C   UNL     1      32.425 -12.569 -21.161  0.00  0.00    +0.000 C 
ATOM     16  C   UNL     1      32.199 -12.376 -22.520  0.00  0.00    +0.000 C 
ENDBRANCH   4   7
ENDBRANCH   2   4
ENDBRANCH   1   2
BRANCH   1  17
ATOM     17  C   UNL     1      34.130 -20.752 -19.863  0.00  0.00    +0.108 C 
BRANCH  17  18
ATOM     18  O   UNL     1      35.340 -20.422 -19.181  0.00  0.00    -0.385 OA
ATOM     19  H   UNL     1      35.305 -19.497 -18.889  0.00  0.00    +0.210 HD
ENDBRANCH  17  18
BRANCH  17  20
ATOM     20  C   UNL     1      33.068 -21.214 -18.836  0.00  0.00    -0.032 C 
BRANCH  20  21
ATOM     21  N   UNL     1      31.734 -21.207 -19.449  0.00  0.00    +0.384 N 
ATOM     22  H   UNL     1      31.811 -20.930 -20.428  0.00  0.00    -0.089 HD
ATOM     23  H   UNL     1      31.135 -20.544 -18.954  0.00  0.00    -0.089 HD
ATOM     24  H   UNL     1      31.327 -22.141 -19.392  0.00  0.00    -0.089 HD
ENDBRANCH  20  21
BRANCH  20  25
ATOM     25  C   UNL     1      33.339 -22.626 -18.270  0.00  0.00    +0.007 C 
BRANCH  25  26
ATOM     26  C   UNL     1      32.975 -22.775 -16.811  0.00  0.00    -0.024 C 
ATOM     27  C   UNL     1      33.983 -22.953 -15.877  0.00  0.00    -0.004 C 
ATOM     28  C   UNL     1      31.643 -22.731 -16.435  0.00  0.00    -0.004 C 
ATOM     29  C   UNL     1      33.648 -23.091 -14.529  0.00  0.00    -0.000 C 
ATOM     30  C   UNL     1      31.308 -22.868 -15.088  0.00  0.00    -0.000 C 
ATOM     31  C   UNL     1      32.311 -23.048 -14.135  0.00  0.00    -0.000 C 
ENDBRANCH  25  26
ENDBRANCH  20  25
ENDBRANCH  17  20
ENDBRANCH   1  17
TORSDOF 9
ENDMDL
MODEL 6
REMARK VINA RESULT:     -11.2      3.044      8.794
REMARK  Name = 9543486
REMARK  9 active torsions:
REMARK  status: ('A' for Active; 'I' for Inactive)
REMARK    1  A    between atoms: C_1  and  N_2
REMARK    2  A    between atoms: C_1  and  C_17
REMARK    3  A    between atoms: N_2  and  S_4
REMARK    4  A    between atoms: S_4  and  C_7
REMARK    5  A    between atoms: C_17  and  O_18
REMARK    6  A    between atoms: C_17  and  C_20
REMARK    7  A    between atoms: C_20  and  N_21
REMARK    8  A    between atoms: C_20  and  C_25
REMARK    9  A    between atoms: C_25  and  C_26
REMARK                            x       y       z     vdW  Elec       q    Type
REMARK                         _______ _______ _______ _____ _____    ______ ____
ROOT
ATOM      1  C   UNL     1      34.062 -23.707 -15.901  0.00  0.00    +0.118 C 
ENDROOT
BRANCH   1   2
ATOM      2  N   UNL     1      33.612 -22.442 -16.530  0.00  0.00    -0.177 NA
ATOM      3  H   UNL     1      32.906 -22.040 -15.912  0.00  0.00    +0.149 HD
BRANCH   2   4
ATOM      4  S   UNL     1      32.945 -22.465 -18.091  0.00  0.00    +0.060 S 
ATOM      5  O   UNL     1      31.617 -21.882 -18.058  0.00  0.00    -0.153 OA
ATOM      6  O   UNL     1      33.148 -23.781 -18.666  0.00  0.00    -0.153 OA
BRANCH   4   7
ATOM      7  C   UNL     1      34.008 -21.352 -18.960  0.00  0.00    +0.122 C 
ATOM      8  C   UNL     1      33.484 -20.573 -19.977  0.00  0.00    +0.020 C 
ATOM      9  C   UNL     1      34.316 -19.684 -20.677  0.00  0.00    +0.001 C 
ATOM     10  C   UNL     1      35.342 -21.281 -18.607  0.00  0.00    +0.020 C 
ATOM     11  C   UNL     1      35.685 -19.598 -20.329  0.00  0.00    +0.000 C 
ATOM     12  C   UNL     1      36.182 -20.404 -19.292  0.00  0.00    +0.001 C 
ATOM     13  C   UNL     1      33.819 -18.878 -21.714  0.00  0.00    +0.000 C 
ATOM     14  C   UNL     1      36.518 -18.710 -21.030  0.00  0.00    +0.000 C 
ATOM     15  C   UNL     1      34.660 -18.000 -22.399  0.00  0.00    +0.000 C 
ATOM     16  C   UNL     1      36.007 -17.917 -22.058  0.00  0.00    +0.000 C 
ENDBRANCH   4   7
ENDBRANCH   2   4
ENDBRANCH   1   2
BRANCH   1  17
ATOM     17  C   UNL     1      34.469 -23.436 -14.449  0.00  0.00    +0.108 C 
BRANCH  17  18
ATOM     18  O   UNL     1      34.611 -22.028 -14.256  0.00  0.00    -0.385 OA
ATOM     19  H   UNL     1      33.769 -21.658 -13.947  0.00  0.00    +0.210 HD
ENDBRANCH  17  18
BRANCH  17  20
ATOM     20  C   UNL     1      33.451 -23.998 -13.427  0.00  0.00    -0.032 C 
BRANCH  20  21
ATOM     21  N   UNL     1      34.115 -24.266 -12.146  0.00  0.00    +0.384 N 
ATOM     22  H   UNL     1      34.630 -25.145 -12.207  0.00  0.00    -0.089 HD
ATOM     23  H   UNL     1      33.416 -24.332 -11.406  0.00  0.00    -0.089 HD
ATOM     24  H   UNL     1      34.764 -23.507 -11.933  0.00  0.00    -0.089 HD
ENDBRANCH  20  21
BRANCH  20  25
ATOM     25  C   UNL     1      32.256 -23.052 -13.171  0.00  0.00    +0.007 C 
BRANCH  25  26
ATOM     26  C   UNL     1      30.993 -23.460 -13.891  0.00  0.00    -0.024 C 
ATOM     27  C   UNL     1      30.491 -24.739 -13.707  0.00  0.00    -0.004 C 
ATOM     28  C   UNL     1      30.360 -22.550 -14.722  0.00  0.00    -0.004 C 
ATOM     29  C   UNL     1      29.324 -25.117 -14.373  0.00  0.00    -0.000 C 
ATOM     30  C   UNL     1      29.193 -22.928 -15.386  0.00  0.00    -0.000 C 
ATOM     31  C   UNL     1      28.675 -24.211 -15.212  0.00  0.00    -0.000 C 
ENDBRANCH  25  26
ENDBRANCH  20  25
ENDBRANCH  17  20
ENDBRANCH   1  17
TORSDOF 9
ENDMDL
MODEL 7
REMARK VINA RESULT:     -11.2      2.879      9.205
REMARK  Name = 9543486
REMARK  9 active torsions:
REMARK  status: ('A' for Active; 'I' for Inactive)
REMARK    1  A    between atoms: C_1  and  N_2
REMARK    2  A    between atoms: C_1  and  C_17
REMARK    3  A    between atoms: N_2  and  S_4
REMARK    4  A    between atoms: S_4  and  C_7
REMARK    5  A    between atoms: C_17  and  O_18
REMARK    6  A    between atoms: C_17  and  C_20
REMARK    7  A    between atoms: C_20  and  N_21
REMARK    8  A    between atoms: C_20  and  C_25
REMARK    9  A    between atoms: C_25  and  C_26
REMARK                            x       y       z     vdW  Elec       q    Type
REMARK                         _______ _______ _______ _____ _____    ______ ____
ROOT
ATOM      1  C   UNL     1      34.085 -23.639 -15.551  0.00  0.00    +0.118 C 
ENDROOT
BRANCH   1   2
ATOM      2  N   UNL     1      33.576 -22.427 -16.237  0.00  0.00    -0.177 NA
ATOM      3  H   UNL     1      32.847 -22.036 -15.641  0.00  0.00    +0.149 HD
BRANCH   2   4
ATOM      4  S   UNL     1      32.921 -22.553 -17.798  0.00  0.00    +0.060 S 
ATOM      5  O   UNL     1      31.582 -21.995 -17.807  0.00  0.00    -0.153 OA
ATOM      6  O   UNL     1      33.155 -23.895 -18.296  0.00  0.00    -0.153 OA
BRANCH   4   7
ATOM      7  C   UNL     1      33.969 -21.470 -18.722  0.00  0.00    +0.122 C 
ATOM      8  C   UNL     1      33.426 -20.718 -19.749  0.00  0.00    +0.020 C 
ATOM      9  C   UNL     1      34.245 -19.854 -20.493  0.00  0.00    +0.001 C 
ATOM     10  C   UNL     1      35.311 -21.396 -18.402  0.00  0.00    +0.020 C 
ATOM     11  C   UNL     1      35.622 -19.764 -20.180  0.00  0.00    +0.000 C 
ATOM     12  C   UNL     1      36.139 -20.543 -19.131  0.00  0.00    +0.001 C 
ATOM     13  C   UNL     1      33.728 -19.075 -21.542  0.00  0.00    +0.000 C 
ATOM     14  C   UNL     1      36.442 -18.900 -20.924  0.00  0.00    +0.000 C 
ATOM     15  C   UNL     1      34.556 -18.221 -22.270  0.00  0.00    +0.000 C 
ATOM     16  C   UNL     1      35.911 -18.134 -21.962  0.00  0.00    +0.000 C 
ENDBRANCH   4   7
ENDBRANCH   2   4
ENDBRANCH   1   2
BRANCH   1  17
ATOM     17  C   UNL     1      33.807 -23.528 -14.049  0.00  0.00    +0.108 C 
BRANCH  17  18
ATOM     18  O   UNL     1      33.058 -24.666 -13.624  0.00  0.00    -0.385 OA
ATOM     19  H   UNL     1      32.119 -24.428 -13.555  0.00  0.00    +0.210 HD
ENDBRANCH  17  18
BRANCH  17  20
ATOM     20  C   UNL     1      35.101 -23.417 -13.207  0.00  0.00    -0.032 C 
BRANCH  20  21
ATOM     21  N   UNL     1      34.786 -22.940 -11.854  0.00  0.00    +0.384 N 
ATOM     22  H   UNL     1      34.973 -23.682 -11.179  0.00  0.00    -0.089 HD
ATOM     23  H   UNL     1      33.801 -22.678 -11.806  0.00  0.00    -0.089 HD
ATOM     24  H   UNL     1      35.365 -22.129 -11.635  0.00  0.00    -0.089 HD
ENDBRANCH  20  21
BRANCH  20  25
ATOM     25  C   UNL     1      35.869 -24.753 -13.087  0.00  0.00    +0.007 C 
BRANCH  25  26
ATOM     26  C   UNL     1      37.268 -24.700 -13.653  0.00  0.00    -0.024 C 
ATOM     27  C   UNL     1      37.555 -23.805 -14.671  0.00  0.00    -0.004 C 
ATOM     28  C   UNL     1      38.239 -25.548 -13.145  0.00  0.00    -0.004 C 
ATOM     29  C   UNL     1      38.848 -23.756 -15.194  0.00  0.00    -0.000 C 
ATOM     30  C   UNL     1      39.531 -25.498 -13.667  0.00  0.00    -0.000 C 
ATOM     31  C   UNL     1      39.836 -24.603 -14.692  0.00  0.00    -0.000 C 
ENDBRANCH  25  26
ENDBRANCH  20  25
ENDBRANCH  17  20
ENDBRANCH   1  17
TORSDOF 9
ENDMDL
MODEL 8
REMARK VINA RESULT:     -11.1      3.149      5.512
REMARK  Name = 9543486
REMARK  9 active torsions:
REMARK  status: ('A' for Active; 'I' for Inactive)
REMARK    1  A    between atoms: C_1  and  N_2
REMARK    2  A    between atoms: C_1  and  C_17
REMARK    3  A    between atoms: N_2  and  S_4
REMARK    4  A    between atoms: S_4  and  C_7
REMARK    5  A    between atoms: C_17  and  O_18
REMARK    6  A    between atoms: C_17  and  C_20
REMARK    7  A    between atoms: C_20  and  N_21
REMARK    8  A    between atoms: C_20  and  C_25
REMARK    9  A    between atoms: C_25  and  C_26
REMARK                            x       y       z     vdW  Elec       q    Type
REMARK                         _______ _______ _______ _____ _____    ______ ____
ROOT
ATOM      1  C   UNL     1      34.332 -15.469 -22.342  0.00  0.00    +0.118 C 
ENDROOT
BRANCH   1   2
ATOM      2  N   UNL     1      34.827 -16.581 -21.494  0.00  0.00    -0.177 NA
ATOM      3  H   UNL     1      35.681 -16.250 -21.044  0.00  0.00    +0.149 HD
BRANCH   2   4
ATOM      4  S   UNL     1      35.189 -18.083 -22.195  0.00  0.00    +0.060 S 
ATOM      5  O   UNL     1      36.625 -18.291 -22.180  0.00  0.00    -0.153 OA
ATOM      6  O   UNL     1      34.448 -18.210 -23.436  0.00  0.00    -0.153 OA
BRANCH   4   7
ATOM      7  C   UNL     1      34.463 -19.210 -21.043  0.00  0.00    +0.122 C 
ATOM      8  C   UNL     1      35.274 -19.852 -20.123  0.00  0.00    +0.020 C 
ATOM      9  C   UNL     1      34.712 -20.750 -19.202  0.00  0.00    +0.001 C 
ATOM     10  C   UNL     1      33.099 -19.427 -21.082  0.00  0.00    +0.020 C 
ATOM     11  C   UNL     1      33.317 -20.986 -19.227  0.00  0.00    +0.000 C 
ATOM     12  C   UNL     1      32.525 -20.316 -20.174  0.00  0.00    +0.001 C 
ATOM     13  C   UNL     1      35.505 -21.419 -18.254  0.00  0.00    +0.000 C 
ATOM     14  C   UNL     1      32.755 -21.885 -18.305  0.00  0.00    +0.000 C 
ATOM     15  C   UNL     1      34.930 -22.308 -17.345  0.00  0.00    +0.000 C 
ATOM     16  C   UNL     1      33.558 -22.540 -17.371  0.00  0.00    +0.000 C 
ENDBRANCH   4   7
ENDBRANCH   2   4
ENDBRANCH   1   2
BRANCH   1  17
ATOM     17  C   UNL     1      33.512 -14.501 -21.485  0.00  0.00    +0.108 C 
BRANCH  17  18
ATOM     18  O   UNL     1      34.164 -14.319 -20.227  0.00  0.00    -0.385 OA
ATOM     19  H   UNL     1      33.818 -14.961 -19.587  0.00  0.00    +0.210 HD
ENDBRANCH  17  18
BRANCH  17  20
ATOM     20  C   UNL     1      33.306 -13.126 -22.164  0.00  0.00    -0.032 C 
BRANCH  20  21
ATOM     21  N   UNL     1      33.783 -13.171 -23.552  0.00  0.00    +0.384 N 
ATOM     22  H   UNL     1      34.400 -12.377 -23.726  0.00  0.00    -0.089 HD
ATOM     23  H   UNL     1      32.986 -13.127 -24.188  0.00  0.00    -0.089 HD
ATOM     24  H   UNL     1      34.295 -14.040 -23.709  0.00  0.00    -0.089 HD
ENDBRANCH  20  21
BRANCH  20  25
ATOM     25  C   UNL     1      31.832 -12.660 -22.168  0.00  0.00    +0.007 C 
BRANCH  25  26
ATOM     26  C   UNL     1      31.611 -11.344 -21.461  0.00  0.00    -0.024 C 
ATOM     27  C   UNL     1      31.453 -10.190 -22.212  0.00  0.00    -0.004 C 
ATOM     28  C   UNL     1      31.570 -11.315 -20.077  0.00  0.00    -0.004 C 
ATOM     29  C   UNL     1      31.248  -8.974 -21.559  0.00  0.00    -0.000 C 
ATOM     30  C   UNL     1      31.364 -10.099 -19.425  0.00  0.00    -0.000 C 
ATOM     31  C   UNL     1      31.203  -8.928 -20.165  0.00  0.00    -0.000 C 
ENDBRANCH  25  26
ENDBRANCH  20  25
ENDBRANCH  17  20
ENDBRANCH   1  17
TORSDOF 9
ENDMDL
MODEL 9
REMARK VINA RESULT:     -11.0      4.099      6.363
REMARK  Name = 9543486
REMARK  9 active torsions:
REMARK  status: ('A' for Active; 'I' for Inactive)
REMARK    1  A    between atoms: C_1  and  N_2
REMARK    2  A    between atoms: C_1  and  C_17
REMARK    3  A    between atoms: N_2  and  S_4
REMARK    4  A    between atoms: S_4  and  C_7
REMARK    5  A    between atoms: C_17  and  O_18
REMARK    6  A    between atoms: C_17  and  C_20
REMARK    7  A    between atoms: C_20  and  N_21
REMARK    8  A    between atoms: C_20  and  C_25
REMARK    9  A    between atoms: C_25  and  C_26
REMARK                            x       y       z     vdW  Elec       q    Type
REMARK                         _______ _______ _______ _____ _____    ______ ____
ROOT
ATOM      1  C   UNL     1      36.248 -21.829 -14.172  0.00  0.00    +0.118 C 
ENDROOT
BRANCH   1   2
ATOM      2  N   UNL     1      34.876 -22.346 -14.392  0.00  0.00    -0.177 NA
ATOM      3  H   UNL     1      34.237 -21.685 -13.948  0.00  0.00    +0.149 HD
BRANCH   2   4
ATOM      4  S   UNL     1      34.455 -23.891 -13.831  0.00  0.00    +0.060 S 
ATOM      5  O   UNL     1      34.705 -23.973 -12.404  0.00  0.00    -0.153 OA
ATOM      6  O   UNL     1      35.019 -24.883 -14.727  0.00  0.00    -0.153 OA
BRANCH   4   7
ATOM      7  C   UNL     1      32.705 -23.907 -14.080  0.00  0.00    +0.122 C 
ATOM      8  C   UNL     1      32.158 -23.124 -15.082  0.00  0.00    +0.020 C 
ATOM      9  C   UNL     1      30.770 -23.125 -15.292  0.00  0.00    +0.001 C 
ATOM     10  C   UNL     1      31.916 -24.700 -13.269  0.00  0.00    +0.020 C 
ATOM     11  C   UNL     1      29.946 -23.931 -14.471  0.00  0.00    +0.000 C 
ATOM     12  C   UNL     1      30.536 -24.713 -13.464  0.00  0.00    +0.001 C 
ATOM     13  C   UNL     1      30.181 -22.343 -16.299  0.00  0.00    +0.000 C 
ATOM     14  C   UNL     1      28.557 -23.931 -14.681  0.00  0.00    +0.000 C 
ATOM     15  C   UNL     1      28.800 -22.356 -16.494  0.00  0.00    +0.000 C 
ATOM     16  C   UNL     1      27.989 -23.148 -15.687  0.00  0.00    +0.000 C 
ENDBRANCH   4   7
ENDBRANCH   2   4
ENDBRANCH   1   2
BRANCH   1  17
ATOM     17  C   UNL     1      37.023 -21.865 -15.493  0.00  0.00    +0.108 C 
BRANCH  17  18
ATOM     18  O   UNL     1      37.073 -23.209 -15.972  0.00  0.00    -0.385 OA
ATOM     19  H   UNL     1      37.085 -23.207 -16.942  0.00  0.00    +0.210 HD
ENDBRANCH  17  18
BRANCH  17  20
ATOM     20  C   UNL     1      36.400 -20.953 -16.578  0.00  0.00    -0.032 C 
BRANCH  20  21
ATOM     21  N   UNL     1      37.240 -19.767 -16.785  0.00  0.00    +0.384 N 
ATOM     22  H   UNL     1      37.209 -19.496 -17.769  0.00  0.00    -0.089 HD
ATOM     23  H   UNL     1      38.202 -19.980 -16.521  0.00  0.00    -0.089 HD
ATOM     24  H   UNL     1      36.892 -18.998 -16.211  0.00  0.00    -0.089 HD
ENDBRANCH  20  21
BRANCH  20  25
ATOM     25  C   UNL     1      36.209 -21.661 -17.938  0.00  0.00    +0.007 C 
BRANCH  25  26
ATOM     26  C   UNL     1      34.970 -21.224 -18.681  0.00  0.00    -0.024 C 
ATOM     27  C   UNL     1      33.732 -21.695 -18.271  0.00  0.00    -0.004 C 
ATOM     28  C   UNL     1      35.092 -20.363 -19.759  0.00  0.00    -0.004 C 
ATOM     29  C   UNL     1      32.586 -21.291 -18.958  0.00  0.00    -0.000 C 
ATOM     30  C   UNL     1      33.947 -19.959 -20.444  0.00  0.00    -0.000 C 
ATOM     31  C   UNL     1      32.693 -20.423 -20.044  0.00  0.00    -0.000 C 
ENDBRANCH  25  26
ENDBRANCH  20  25
ENDBRANCH  17  20
ENDBRANCH   1  17
TORSDOF 9
ENDMDL
