MODEL 1
REMARK VINA RESULT:     -10.5      0.000      0.000
REMARK  Name = 24798721
REMARK  5 active torsions:
REMARK  status: ('A' for Active; 'I' for Inactive)
REMARK    1  A    between atoms: N_1  and  C_14
REMARK    2  A    between atoms: C_2  and  C_7
REMARK    3  A    between atoms: C_3  and  N_24
REMARK    4  A    between atoms: C_17  and  O_20
REMARK    5  A    between atoms: C_19  and  O_22
REMARK                            x       y       z     vdW  Elec       q    Type
REMARK                         _______ _______ _______ _____ _____    ______ ____
ROOT
ATOM      1  N   UNL     1      33.307 -14.212 -22.794  0.00  0.00    -0.307 N 
ATOM      2  C   UNL     1      34.627 -16.289 -22.563  0.00  0.00    +0.022 C 
ATOM      3  C   UNL     1      34.426 -16.594 -24.067  0.00  0.00    -0.058 C 
ATOM      4  C   UNL     1      33.478 -15.431 -21.990  0.00  0.00    +0.093 C 
ATOM      5  C   UNL     1      34.242 -15.267 -24.820  0.00  0.00    -0.000 C 
ATOM      6  C   UNL     1      33.126 -14.397 -24.240  0.00  0.00    +0.089 C 
ENDROOT
BRANCH   2   7
ATOM      7  C   UNL     1      34.943 -17.543 -21.759  0.00  0.00    -0.023 C 
ATOM      8  C   UNL     1      33.906 -18.336 -21.268  0.00  0.00    -0.009 C 
ATOM      9  C   UNL     1      36.270 -17.898 -21.514  0.00  0.00    -0.004 C 
ATOM     10  C   UNL     1      34.196 -19.486 -20.534  0.00  0.00    -0.022 C 
ATOM     11  C   UNL     1      36.559 -19.047 -20.778  0.00  0.00    -0.001 C 
ATOM     12  C   UNL     1      35.522 -19.841 -20.288  0.00  0.00    -0.004 C 
ATOM     13  C   UNL     1      33.088 -20.336 -20.010  0.00  0.00    +0.031 C 
ENDBRANCH   2   7
BRANCH   1  14
ATOM     14  C   UNL     1      32.718 -13.083 -22.212  0.00  0.00    +0.051 C 
ATOM     15  C   UNL     1      32.539 -11.923 -22.965  0.00  0.00    +0.055 C 
ATOM     16  C   UNL     1      32.310 -13.119 -20.878  0.00  0.00    +0.018 C 
ATOM     17  C   UNL     1      31.952 -10.799 -22.384  0.00  0.00    +0.174 C 
ATOM     18  C   UNL     1      31.723 -11.995 -20.297  0.00  0.00    +0.041 C 
ATOM     19  C   UNL     1      31.544 -10.834 -21.051  0.00  0.00    +0.172 C 
BRANCH  17  20
ATOM     20  O   UNL     1      31.782  -9.671 -23.130  0.00  0.00    -0.468 OA
ATOM     21  C   UNL     1      32.854  -8.730 -23.133  0.00  0.00    +0.253 C 
ENDBRANCH  17  20
BRANCH  19  22
ATOM     22  O   UNL     1      30.970  -9.743 -20.473  0.00  0.00    -0.468 OA
ATOM     23  C   UNL     1      31.151  -9.582 -19.068  0.00  0.00    +0.253 C 
ENDBRANCH  19  22
ENDBRANCH   1  14
BRANCH   3  24
ATOM     24  N   UNL     1      33.295 -17.492 -24.312  0.00  0.00    +0.382 N 
ATOM     25  H   UNL     1      32.919 -17.817 -23.422  0.00  0.00    -0.089 HD
ATOM     26  H   UNL     1      33.610 -18.293 -24.861  0.00  0.00    -0.089 HD
ATOM     27  H   UNL     1      32.569 -16.993 -24.827  0.00  0.00    -0.089 HD
ENDBRANCH   3  24
TORSDOF 5
ENDMDL
MODEL 2
REMARK VINA RESULT:      -9.4      7.423     11.110
REMARK  Name = 24798721
REMARK  5 active torsions:
REMARK  status: ('A' for Active; 'I' for Inactive)
REMARK    1  A    between atoms: N_1  and  C_14
REMARK    2  A    between atoms: C_2  and  C_7
REMARK    3  A    between atoms: C_3  and  N_24
REMARK    4  A    between atoms: C_17  and  O_20
REMARK    5  A    between atoms: C_19  and  O_22
REMARK                            x       y       z     vdW  Elec       q    Type
REMARK                         _______ _______ _______ _____ _____    ______ ____
ROOT
ATOM      1  N   UNL     1      34.675 -22.058 -17.120  0.00  0.00    -0.307 N 
ATOM      2  C   UNL     1      34.208 -20.518 -18.996  0.00  0.00    +0.022 C 
ATOM      3  C   UNL     1      32.861 -21.236 -19.260  0.00  0.00    -0.058 C 
ATOM      4  C   UNL     1      35.242 -21.457 -18.337  0.00  0.00    +0.093 C 
ATOM      5  C   UNL     1      32.358 -21.841 -17.941  0.00  0.00    -0.000 C 
ATOM      6  C   UNL     1      33.387 -22.748 -17.264  0.00  0.00    +0.089 C 
ENDROOT
BRANCH   2   7
ATOM      7  C   UNL     1      34.717 -19.781 -20.227  0.00  0.00    -0.023 C 
ATOM      8  C   UNL     1      33.870 -19.572 -21.316  0.00  0.00    -0.009 C 
ATOM      9  C   UNL     1      36.031 -19.315 -20.266  0.00  0.00    -0.004 C 
ATOM     10  C   UNL     1      34.337 -18.896 -22.442  0.00  0.00    -0.022 C 
ATOM     11  C   UNL     1      36.498 -18.639 -21.394  0.00  0.00    -0.001 C 
ATOM     12  C   UNL     1      35.651 -18.429 -22.481  0.00  0.00    -0.004 C 
ATOM     13  C   UNL     1      33.432 -18.670 -23.606  0.00  0.00    +0.031 C 
ENDBRANCH   2   7
BRANCH   1  14
ATOM     14  C   UNL     1      35.537 -22.510 -16.113  0.00  0.00    +0.051 C 
ATOM     15  C   UNL     1      35.036 -23.268 -15.055  0.00  0.00    +0.055 C 
ATOM     16  C   UNL     1      36.896 -22.201 -16.168  0.00  0.00    +0.018 C 
ATOM     17  C   UNL     1      35.895 -23.718 -14.052  0.00  0.00    +0.174 C 
ATOM     18  C   UNL     1      37.755 -22.651 -15.165  0.00  0.00    +0.041 C 
ATOM     19  C   UNL     1      37.254 -23.409 -14.107  0.00  0.00    +0.172 C 
BRANCH  17  20
ATOM     20  O   UNL     1      35.394 -24.459 -13.023  0.00  0.00    -0.468 OA
ATOM     21  C   UNL     1      34.767 -23.746 -11.960  0.00  0.00    +0.253 C 
ENDBRANCH  17  20
BRANCH  19  22
ATOM     22  O   UNL     1      38.103 -23.843 -13.133  0.00  0.00    -0.468 OA
ATOM     23  C   UNL     1      38.910 -24.979 -13.436  0.00  0.00    +0.253 C 
ENDBRANCH  19  22
ENDBRANCH   1  14
BRANCH   3  24
ATOM     24  N   UNL     1      32.966 -22.264 -20.298  0.00  0.00    +0.382 N 
ATOM     25  H   UNL     1      33.129 -21.821 -21.201  0.00  0.00    -0.089 HD
ATOM     26  H   UNL     1      32.099 -22.800 -20.334  0.00  0.00    -0.089 HD
ATOM     27  H   UNL     1      33.742 -22.890 -20.081  0.00  0.00    -0.089 HD
ENDBRANCH   3  24
TORSDOF 5
ENDMDL
MODEL 3
REMARK VINA RESULT:      -9.4      3.313      9.045
REMARK  Name = 24798721
REMARK  5 active torsions:
REMARK  status: ('A' for Active; 'I' for Inactive)
REMARK    1  A    between atoms: N_1  and  C_14
REMARK    2  A    between atoms: C_2  and  C_7
REMARK    3  A    between atoms: C_3  and  N_24
REMARK    4  A    between atoms: C_17  and  O_20
REMARK    5  A    between atoms: C_19  and  O_22
REMARK                            x       y       z     vdW  Elec       q    Type
REMARK                         _______ _______ _______ _____ _____    ______ ____
ROOT
ATOM      1  N   UNL     1      32.365 -11.340 -22.674  0.00  0.00    -0.307 N 
ATOM      2  C   UNL     1      32.612  -8.908 -22.310  0.00  0.00    +0.022 C 
ATOM      3  C   UNL     1      31.291  -8.886 -21.504  0.00  0.00    -0.058 C 
ATOM      4  C   UNL     1      32.640 -10.058 -23.340  0.00  0.00    +0.093 C 
ATOM      5  C   UNL     1      31.082 -10.265 -20.860  0.00  0.00    -0.000 C 
ATOM      6  C   UNL     1      31.139 -11.414 -21.868  0.00  0.00    +0.089 C 
ENDROOT
BRANCH   2   7
ATOM      7  C   UNL     1      32.961  -7.539 -22.880  0.00  0.00    -0.023 C 
ATOM      8  C   UNL     1      33.620  -7.441 -24.105  0.00  0.00    -0.009 C 
ATOM      9  C   UNL     1      32.622  -6.384 -22.175  0.00  0.00    -0.004 C 
ATOM     10  C   UNL     1      33.937  -6.188 -24.628  0.00  0.00    -0.022 C 
ATOM     11  C   UNL     1      32.940  -5.130 -22.697  0.00  0.00    -0.001 C 
ATOM     12  C   UNL     1      33.598  -5.032 -23.923  0.00  0.00    -0.004 C 
ATOM     13  C   UNL     1      34.639  -6.081 -25.938  0.00  0.00    +0.031 C 
ENDBRANCH   2   7
BRANCH   1  14
ATOM     14  C   UNL     1      32.823 -12.528 -23.256  0.00  0.00    +0.051 C 
ATOM     15  C   UNL     1      33.517 -13.460 -22.485  0.00  0.00    +0.055 C 
ATOM     16  C   UNL     1      32.587 -12.778 -24.608  0.00  0.00    +0.018 C 
ATOM     17  C   UNL     1      33.973 -14.644 -23.065  0.00  0.00    +0.174 C 
ATOM     18  C   UNL     1      33.044 -13.962 -25.189  0.00  0.00    +0.041 C 
ATOM     19  C   UNL     1      33.738 -14.894 -24.417  0.00  0.00    +0.172 C 
BRANCH  17  20
ATOM     20  O   UNL     1      34.650 -15.547 -22.302  0.00  0.00    -0.468 OA
ATOM     21  C   UNL     1      34.240 -15.682 -20.943  0.00  0.00    +0.253 C 
ENDBRANCH  17  20
BRANCH  19  22
ATOM     22  O   UNL     1      34.178 -16.046 -24.996  0.00  0.00    -0.468 OA
ATOM     23  C   UNL     1      33.430 -17.231 -24.734  0.00  0.00    +0.253 C 
ENDBRANCH  19  22
ENDBRANCH   1  14
BRANCH   3  24
ATOM     24  N   UNL     1      30.136  -8.515 -22.327  0.00  0.00    +0.382 N 
ATOM     25  H   UNL     1      29.293  -8.939 -21.941  0.00  0.00    -0.089 HD
ATOM     26  H   UNL     1      30.278  -8.848 -23.281  0.00  0.00    -0.089 HD
ATOM     27  H   UNL     1      30.035  -7.500 -22.333  0.00  0.00    -0.089 HD
ENDBRANCH   3  24
TORSDOF 5
ENDMDL
MODEL 4
REMARK VINA RESULT:      -9.2      7.390     11.177
REMARK  Name = 24798721
REMARK  5 active torsions:
REMARK  status: ('A' for Active; 'I' for Inactive)
REMARK    1  A    between atoms: N_1  and  C_14
REMARK    2  A    between atoms: C_2  and  C_7
REMARK    3  A    between atoms: C_3  and  N_24
REMARK    4  A    between atoms: C_17  and  O_20
REMARK    5  A    between atoms: C_19  and  O_22
REMARK                            x       y       z     vdW  Elec       q    Type
REMARK                         _______ _______ _______ _____ _____    ______ ____
ROOT
ATOM      1  N   UNL     1      34.683 -22.207 -16.723  0.00  0.00    -0.307 N 
ATOM      2  C   UNL     1      34.226 -20.788 -18.694  0.00  0.00    +0.022 C 
ATOM      3  C   UNL     1      32.997 -21.660 -19.046  0.00  0.00    -0.058 C 
ATOM      4  C   UNL     1      35.291 -21.583 -17.908  0.00  0.00    +0.093 C 
ATOM      5  C   UNL     1      32.443 -22.279 -17.754  0.00  0.00    -0.000 C 
ATOM      6  C   UNL     1      33.497 -23.043 -16.953  0.00  0.00    +0.089 C 
ENDROOT
BRANCH   2   7
ATOM      7  C   UNL     1      34.763 -20.035 -19.904  0.00  0.00    -0.023 C 
ATOM      8  C   UNL     1      33.923 -19.759 -20.983  0.00  0.00    -0.009 C 
ATOM      9  C   UNL     1      36.095 -19.622 -19.932  0.00  0.00    -0.004 C 
ATOM     10  C   UNL     1      34.415 -19.068 -22.090  0.00  0.00    -0.022 C 
ATOM     11  C   UNL     1      36.587 -18.932 -21.040  0.00  0.00    -0.001 C 
ATOM     12  C   UNL     1      35.747 -18.655 -22.119  0.00  0.00    -0.004 C 
ATOM     13  C   UNL     1      33.518 -18.771 -23.243  0.00  0.00    +0.031 C 
ENDBRANCH   2   7
BRANCH   1  14
ATOM     14  C   UNL     1      35.493 -22.528 -15.626  0.00  0.00    +0.051 C 
ATOM     15  C   UNL     1      36.842 -22.824 -15.819  0.00  0.00    +0.055 C 
ATOM     16  C   UNL     1      34.949 -22.553 -14.342  0.00  0.00    +0.018 C 
ATOM     17  C   UNL     1      37.648 -23.144 -14.726  0.00  0.00    +0.174 C 
ATOM     18  C   UNL     1      35.755 -22.873 -13.249  0.00  0.00    +0.041 C 
ATOM     19  C   UNL     1      37.105 -23.169 -13.441  0.00  0.00    +0.172 C 
BRANCH  17  20
ATOM     20  O   UNL     1      38.965 -23.431 -14.926  0.00  0.00    -0.468 OA
ATOM     21  C   UNL     1      39.325 -24.810 -14.980  0.00  0.00    +0.253 C 
ENDBRANCH  17  20
BRANCH  19  22
ATOM     22  O   UNL     1      37.882 -23.480 -12.366  0.00  0.00    -0.468 OA
ATOM     23  C   UNL     1      37.495 -24.615 -11.593  0.00  0.00    +0.253 C 
ENDBRANCH  19  22
ENDBRANCH   1  14
BRANCH   3  24
ATOM     24  N   UNL     1      33.309 -22.701 -20.029  0.00  0.00    +0.382 N 
ATOM     25  H   UNL     1      32.443 -23.082 -20.409  0.00  0.00    -0.089 HD
ATOM     26  H   UNL     1      33.839 -23.447 -19.577  0.00  0.00    -0.089 HD
ATOM     27  H   UNL     1      33.865 -22.300 -20.785  0.00  0.00    -0.089 HD
ENDBRANCH   3  24
TORSDOF 5
ENDMDL
MODEL 5
REMARK VINA RESULT:      -9.2      3.163      9.030
REMARK  Name = 24798721
REMARK  5 active torsions:
REMARK  status: ('A' for Active; 'I' for Inactive)
REMARK    1  A    between atoms: N_1  and  C_14
REMARK    2  A    between atoms: C_2  and  C_7
REMARK    3  A    between atoms: C_3  and  N_24
REMARK    4  A    between atoms: C_17  and  O_20
REMARK    5  A    between atoms: C_19  and  O_22
REMARK                            x       y       z     vdW  Elec       q    Type
REMARK                         _______ _______ _______ _____ _____    ______ ____
ROOT
ATOM      1  N   UNL     1      32.245 -10.910 -22.339  0.00  0.00    -0.307 N 
ATOM      2  C   UNL     1      32.467  -8.450 -22.241  0.00  0.00    +0.022 C 
ATOM      3  C   UNL     1      31.079  -8.344 -21.563  0.00  0.00    -0.058 C 
ATOM      4  C   UNL     1      32.582  -9.713 -23.123  0.00  0.00    +0.093 C 
ATOM      5  C   UNL     1      30.809  -9.640 -20.784  0.00  0.00    -0.000 C 
ATOM      6  C   UNL     1      30.951 -10.898 -21.642  0.00  0.00    +0.089 C 
ENDROOT
BRANCH   2   7
ATOM      7  C   UNL     1      32.870  -7.155 -22.933  0.00  0.00    -0.023 C 
ATOM      8  C   UNL     1      33.584  -7.197 -24.130  0.00  0.00    -0.009 C 
ATOM      9  C   UNL     1      32.524  -5.927 -22.369  0.00  0.00    -0.004 C 
ATOM     10  C   UNL     1      33.951  -6.011 -24.765  0.00  0.00    -0.022 C 
ATOM     11  C   UNL     1      32.892  -4.740 -23.003  0.00  0.00    -0.001 C 
ATOM     12  C   UNL     1      33.606  -4.783 -24.201  0.00  0.00    -0.004 C 
ATOM     13  C   UNL     1      34.713  -6.054 -26.046  0.00  0.00    +0.031 C 
ENDBRANCH   2   7
BRANCH   1  14
ATOM     14  C   UNL     1      32.749 -12.155 -22.736  0.00  0.00    +0.051 C 
ATOM     15  C   UNL     1      32.658 -12.550 -24.070  0.00  0.00    +0.055 C 
ATOM     16  C   UNL     1      33.341 -12.999 -21.796  0.00  0.00    +0.018 C 
ATOM     17  C   UNL     1      33.161 -13.790 -24.465  0.00  0.00    +0.174 C 
ATOM     18  C   UNL     1      33.843 -14.239 -22.191  0.00  0.00    +0.041 C 
ATOM     19  C   UNL     1      33.753 -14.635 -23.526  0.00  0.00    +0.172 C 
BRANCH  17  20
ATOM     20  O   UNL     1      33.067 -14.166 -25.772  0.00  0.00    -0.468 OA
ATOM     21  C   UNL     1      32.868 -13.129 -26.731  0.00  0.00    +0.253 C 
ENDBRANCH  17  20
BRANCH  19  22
ATOM     22  O   UNL     1      34.247 -15.848 -23.900  0.00  0.00    -0.468 OA
ATOM     23  C   UNL     1      34.582 -16.761 -22.857  0.00  0.00    +0.253 C 
ENDBRANCH  19  22
ENDBRANCH   1  14
BRANCH   3  24
ATOM     24  N   UNL     1      30.004  -8.080 -22.523  0.00  0.00    +0.382 N 
ATOM     25  H   UNL     1      29.220  -7.640 -22.042  0.00  0.00    -0.089 HD
ATOM     26  H   UNL     1      29.697  -8.959 -22.939  0.00  0.00    -0.089 HD
ATOM     27  H   UNL     1      30.346  -7.459 -23.256  0.00  0.00    -0.089 HD
ENDBRANCH   3  24
TORSDOF 5
ENDMDL
MODEL 6
REMARK VINA RESULT:      -9.2      3.267      7.814
REMARK  Name = 24798721
REMARK  5 active torsions:
REMARK  status: ('A' for Active; 'I' for Inactive)
REMARK    1  A    between atoms: N_1  and  C_14
REMARK    2  A    between atoms: C_2  and  C_7
REMARK    3  A    between atoms: C_3  and  N_24
REMARK    4  A    between atoms: C_17  and  O_20
REMARK    5  A    between atoms: C_19  and  O_22
REMARK                            x       y       z     vdW  Elec       q    Type
REMARK                         _______ _______ _______ _____ _____    ______ ____
ROOT
ATOM      1  N   UNL     1      33.490 -14.555 -23.018  0.00  0.00    -0.307 N 
ATOM      2  C   UNL     1      32.218 -12.467 -22.660  0.00  0.00    +0.022 C 
ATOM      3  C   UNL     1      32.620 -11.972 -24.071  0.00  0.00    -0.058 C 
ATOM      4  C   UNL     1      33.257 -13.449 -22.077  0.00  0.00    +0.093 C 
ATOM      5  C   UNL     1      32.856 -13.192 -24.974  0.00  0.00    -0.000 C 
ATOM      6  C   UNL     1      33.861 -14.186 -24.391  0.00  0.00    +0.089 C 
ENDROOT
BRANCH   2   7
ATOM      7  C   UNL     1      31.842 -11.319 -21.734  0.00  0.00    -0.023 C 
ATOM      8  C   UNL     1      31.579 -10.054 -22.260  0.00  0.00    -0.009 C 
ATOM      9  C   UNL     1      31.762 -11.532 -20.357  0.00  0.00    -0.004 C 
ATOM     10  C   UNL     1      31.234  -9.003 -21.411  0.00  0.00    -0.022 C 
ATOM     11  C   UNL     1      31.417 -10.481 -19.508  0.00  0.00    -0.001 C 
ATOM     12  C   UNL     1      31.153  -9.217 -20.035  0.00  0.00    -0.004 C 
ATOM     13  C   UNL     1      30.951  -7.652 -21.972  0.00  0.00    +0.031 C 
ENDBRANCH   2   7
BRANCH   1  14
ATOM     14  C   UNL     1      33.965 -15.780 -22.532  0.00  0.00    +0.051 C 
ATOM     15  C   UNL     1      33.964 -16.905 -23.357  0.00  0.00    +0.055 C 
ATOM     16  C   UNL     1      34.438 -15.875 -21.223  0.00  0.00    +0.018 C 
ATOM     17  C   UNL     1      34.437 -18.124 -22.872  0.00  0.00    +0.174 C 
ATOM     18  C   UNL     1      34.910 -17.095 -20.738  0.00  0.00    +0.041 C 
ATOM     19  C   UNL     1      34.909 -18.220 -21.563  0.00  0.00    +0.172 C 
BRANCH  17  20
ATOM     20  O   UNL     1      34.430 -19.217 -23.687  0.00  0.00    -0.468 OA
ATOM     21  C   UNL     1      33.433 -19.259 -24.706  0.00  0.00    +0.253 C 
ENDBRANCH  17  20
BRANCH  19  22
ATOM     22  O   UNL     1      35.373 -19.406 -21.079  0.00  0.00    -0.468 OA
ATOM     23  C   UNL     1      34.488 -20.160 -20.253  0.00  0.00    +0.253 C 
ENDBRANCH  19  22
ENDBRANCH   1  14
BRANCH   3  24
ATOM     24  N   UNL     1      33.801 -11.105 -24.048  0.00  0.00    +0.382 N 
ATOM     25  H   UNL     1      34.508 -11.475 -24.681  0.00  0.00    -0.089 HD
ATOM     26  H   UNL     1      34.178 -11.070 -23.100  0.00  0.00    -0.089 HD
ATOM     27  H   UNL     1      33.538 -10.164 -24.343  0.00  0.00    -0.089 HD
ENDBRANCH   3  24
TORSDOF 5
ENDMDL
MODEL 7
REMARK VINA RESULT:      -9.0      3.131      8.946
REMARK  Name = 24798721
REMARK  5 active torsions:
REMARK  status: ('A' for Active; 'I' for Inactive)
REMARK    1  A    between atoms: N_1  and  C_14
REMARK    2  A    between atoms: C_2  and  C_7
REMARK    3  A    between atoms: C_3  and  N_24
REMARK    4  A    between atoms: C_17  and  O_20
REMARK    5  A    between atoms: C_19  and  O_22
REMARK                            x       y       z     vdW  Elec       q    Type
REMARK                         _______ _______ _______ _____ _____    ______ ____
ROOT
ATOM      1  N   UNL     1      32.194 -11.063 -21.969  0.00  0.00    -0.307 N 
ATOM      2  C   UNL     1      32.382  -8.604 -22.141  0.00  0.00    +0.022 C 
ATOM      3  C   UNL     1      30.906  -8.453 -21.697  0.00  0.00    -0.058 C 
ATOM      4  C   UNL     1      32.639  -9.960 -22.834  0.00  0.00    +0.093 C 
ATOM      5  C   UNL     1      30.530  -9.653 -20.815  0.00  0.00    -0.000 C 
ATOM      6  C   UNL     1      30.810 -11.000 -21.481  0.00  0.00    +0.089 C 
ENDROOT
BRANCH   2   7
ATOM      7  C   UNL     1      32.876  -7.392 -22.918  0.00  0.00    -0.023 C 
ATOM      8  C   UNL     1      32.262  -6.152 -22.742  0.00  0.00    -0.009 C 
ATOM      9  C   UNL     1      33.944  -7.522 -23.806  0.00  0.00    -0.004 C 
ATOM     10  C   UNL     1      32.715  -5.041 -23.453  0.00  0.00    -0.022 C 
ATOM     11  C   UNL     1      34.397  -6.411 -24.518  0.00  0.00    -0.001 C 
ATOM     12  C   UNL     1      33.783  -5.171 -24.341  0.00  0.00    -0.004 C 
ATOM     13  C   UNL     1      32.061  -3.716 -23.264  0.00  0.00    +0.031 C 
ENDBRANCH   2   7
BRANCH   1  14
ATOM     14  C   UNL     1      32.762 -12.333 -22.130  0.00  0.00    +0.051 C 
ATOM     15  C   UNL     1      32.798 -12.925 -23.392  0.00  0.00    +0.055 C 
ATOM     16  C   UNL     1      33.292 -13.005 -21.028  0.00  0.00    +0.018 C 
ATOM     17  C   UNL     1      33.363 -14.190 -23.552  0.00  0.00    +0.174 C 
ATOM     18  C   UNL     1      33.857 -14.270 -21.188  0.00  0.00    +0.041 C 
ATOM     19  C   UNL     1      33.892 -14.863 -22.450  0.00  0.00    +0.172 C 
BRANCH  17  20
ATOM     20  O   UNL     1      33.392 -14.760 -24.790  0.00  0.00    -0.468 OA
ATOM     21  C   UNL     1      32.983 -13.945 -25.887  0.00  0.00    +0.253 C 
ENDBRANCH  17  20
BRANCH  19  22
ATOM     22  O   UNL     1      34.447 -16.099 -22.594  0.00  0.00    -0.468 OA
ATOM     23  C   UNL     1      34.789 -16.799 -21.400  0.00  0.00    +0.253 C 
ENDBRANCH  19  22
ENDBRANCH   1  14
BRANCH   3  24
ATOM     24  N   UNL     1      29.988  -8.333 -22.833  0.00  0.00    +0.382 N 
ATOM     25  H   UNL     1      29.094  -8.761 -22.594  0.00  0.00    -0.089 HD
ATOM     26  H   UNL     1      30.386  -8.808 -23.643  0.00  0.00    -0.089 HD
ATOM     27  H   UNL     1      29.845  -7.348 -23.053  0.00  0.00    -0.089 HD
ENDBRANCH   3  24
TORSDOF 5
ENDMDL
MODEL 8
REMARK VINA RESULT:      -9.0      1.466      2.048
REMARK  Name = 24798721
REMARK  5 active torsions:
REMARK  status: ('A' for Active; 'I' for Inactive)
REMARK    1  A    between atoms: N_1  and  C_14
REMARK    2  A    between atoms: C_2  and  C_7
REMARK    3  A    between atoms: C_3  and  N_24
REMARK    4  A    between atoms: C_17  and  O_20
REMARK    5  A    between atoms: C_19  and  O_22
REMARK                            x       y       z     vdW  Elec       q    Type
REMARK                         _______ _______ _______ _____ _____    ______ ____
ROOT
ATOM      1  N   UNL     1      32.773 -12.640 -23.402  0.00  0.00    -0.307 N 
ATOM      2  C   UNL     1      34.011 -14.778 -23.448  0.00  0.00    +0.022 C 
ATOM      3  C   UNL     1      33.633 -14.974 -24.937  0.00  0.00    -0.058 C 
ATOM      4  C   UNL     1      32.973 -13.916 -22.698  0.00  0.00    +0.093 C 
ATOM      5  C   UNL     1      33.430 -13.594 -25.580  0.00  0.00    -0.000 C 
ATOM      6  C   UNL     1      32.426 -12.720 -24.827  0.00  0.00    +0.089 C 
ENDROOT
BRANCH   2   7
ATOM      7  C   UNL     1      34.353 -16.094 -22.764  0.00  0.00    -0.023 C 
ATOM      8  C   UNL     1      34.346 -17.283 -23.493  0.00  0.00    -0.009 C 
ATOM      9  C   UNL     1      34.674 -16.111 -21.406  0.00  0.00    -0.004 C 
ATOM     10  C   UNL     1      34.661 -18.488 -22.867  0.00  0.00    -0.022 C 
ATOM     11  C   UNL     1      34.988 -17.317 -20.779  0.00  0.00    -0.001 C 
ATOM     12  C   UNL     1      34.981 -18.505 -21.509  0.00  0.00    -0.004 C 
ATOM     13  C   UNL     1      34.655 -19.759 -23.646  0.00  0.00    +0.031 C 
ENDBRANCH   2   7
BRANCH   1  14
ATOM     14  C   UNL     1      32.304 -11.530 -22.689  0.00  0.00    +0.051 C 
ATOM     15  C   UNL     1      32.448 -10.248 -23.220  0.00  0.00    +0.055 C 
ATOM     16  C   UNL     1      31.693 -11.705 -21.447  0.00  0.00    +0.018 C 
ATOM     17  C   UNL     1      31.980  -9.143 -22.510  0.00  0.00    +0.174 C 
ATOM     18  C   UNL     1      31.226 -10.600 -20.736  0.00  0.00    +0.041 C 
ATOM     19  C   UNL     1      31.370  -9.318 -21.268  0.00  0.00    +0.172 C 
BRANCH  17  20
ATOM     20  O   UNL     1      32.126  -7.895 -23.039  0.00  0.00    -0.468 OA
ATOM     21  C   UNL     1      33.435  -7.329 -23.010  0.00  0.00    +0.253 C 
ENDBRANCH  17  20
BRANCH  19  22
ATOM     22  O   UNL     1      30.910  -8.246 -20.564  0.00  0.00    -0.468 OA
ATOM     23  C   UNL     1      31.784  -7.689 -19.585  0.00  0.00    +0.253 C 
ENDBRANCH  19  22
ENDBRANCH   1  14
BRANCH   3  24
ATOM     24  N   UNL     1      32.441 -15.809 -25.109  0.00  0.00    +0.382 N 
ATOM     25  H   UNL     1      31.910 -15.481 -25.915  0.00  0.00    -0.089 HD
ATOM     26  H   UNL     1      31.860 -15.748 -24.271  0.00  0.00    -0.089 HD
ATOM     27  H   UNL     1      32.723 -16.778 -25.257  0.00  0.00    -0.089 HD
ENDBRANCH   3  24
TORSDOF 5
ENDMDL
MODEL 9
REMARK VINA RESULT:      -8.8      3.050      5.968
REMARK  Name = 24798721
REMARK  5 active torsions:
REMARK  status: ('A' for Active; 'I' for Inactive)
REMARK    1  A    between atoms: N_1  and  C_14
REMARK    2  A    between atoms: C_2  and  C_7
REMARK    3  A    between atoms: C_3  and  N_24
REMARK    4  A    between atoms: C_17  and  O_20
REMARK    5  A    between atoms: C_19  and  O_22
REMARK                            x       y       z     vdW  Elec       q    Type
REMARK                         _______ _______ _______ _____ _____    ______ ____
ROOT
ATOM      1  N   UNL     1      32.016  -9.333 -22.542  0.00  0.00    -0.307 N 
ATOM      2  C   UNL     1      31.941 -11.781 -22.877  0.00  0.00    +0.022 C 
ATOM      3  C   UNL     1      31.197 -11.950 -21.530  0.00  0.00    -0.058 C 
ATOM      4  C   UNL     1      32.822 -10.513 -22.893  0.00  0.00    +0.093 C 
ATOM      5  C   UNL     1      30.399 -10.670 -21.243  0.00  0.00    -0.000 C 
ATOM      6  C   UNL     1      31.257  -9.404 -21.287  0.00  0.00    +0.089 C 
ENDROOT
BRANCH   2   7
ATOM      7  C   UNL     1      32.659 -13.055 -23.302  0.00  0.00    -0.023 C 
ATOM      8  C   UNL     1      33.292 -13.850 -22.348  0.00  0.00    -0.009 C 
ATOM      9  C   UNL     1      32.683 -13.426 -24.647  0.00  0.00    -0.004 C 
ATOM     10  C   UNL     1      33.948 -15.018 -22.737  0.00  0.00    -0.022 C 
ATOM     11  C   UNL     1      33.340 -14.594 -25.036  0.00  0.00    -0.001 C 
ATOM     12  C   UNL     1      33.972 -15.389 -24.081  0.00  0.00    -0.004 C 
ATOM     13  C   UNL     1      34.624 -15.870 -21.717  0.00  0.00    +0.031 C 
ENDBRANCH   2   7
BRANCH   1  14
ATOM     14  C   UNL     1      32.432  -8.067 -22.971  0.00  0.00    +0.051 C 
ATOM     15  C   UNL     1      31.504  -7.032 -23.089  0.00  0.00    +0.055 C 
ATOM     16  C   UNL     1      33.773  -7.840 -23.280  0.00  0.00    +0.018 C 
ATOM     17  C   UNL     1      31.918  -5.770 -23.516  0.00  0.00    +0.174 C 
ATOM     18  C   UNL     1      34.187  -6.578 -23.708  0.00  0.00    +0.041 C 
ATOM     19  C   UNL     1      33.259  -5.544 -23.826  0.00  0.00    +0.172 C 
BRANCH  17  20
ATOM     20  O   UNL     1      31.003  -4.767 -23.628  0.00  0.00    -0.468 OA
ATOM     21  C   UNL     1      30.395  -4.308 -22.423  0.00  0.00    +0.253 C 
ENDBRANCH  17  20
BRANCH  19  22
ATOM     22  O   UNL     1      33.676  -4.316 -24.244  0.00  0.00    -0.468 OA
ATOM     23  C   UNL     1      34.287  -4.241 -25.530  0.00  0.00    +0.253 C 
ENDBRANCH  19  22
ENDBRANCH   1  14
BRANCH   3  24
ATOM     24  N   UNL     1      32.103 -12.259 -20.422  0.00  0.00    +0.382 N 
ATOM     25  H   UNL     1      31.559 -12.484 -19.590  0.00  0.00    -0.089 HD
ATOM     26  H   UNL     1      32.696 -11.451 -20.232  0.00  0.00    -0.089 HD
ATOM     27  H   UNL     1      32.688 -13.057 -20.672  0.00  0.00    -0.089 HD
ENDBRANCH   3  24
TORSDOF 5
ENDMDL
