MODEL 1
REMARK VINA RESULT:     -11.8      0.000      0.000
REMARK  Name = 10042950
REMARK  5 active torsions:
REMARK  status: ('A' for Active; 'I' for Inactive)
REMARK    1  A    between atoms: C_4  and  C_16
REMARK    2  A    between atoms: C_7  and  N_19
REMARK    3  A    between atoms: C_8  and  C_10
REMARK    4  A    between atoms: N_19  and  C_21
REMARK    5  A    between atoms: C_21  and  C_23
REMARK                            x       y       z     vdW  Elec       q    Type
REMARK                         _______ _______ _______ _____ _____    ______ ____
ROOT
ATOM      1  N   UNL     1      31.908 -23.393 -15.344  0.00  0.00    -0.152 N 
ATOM      2  N   UNL     1      31.178 -23.987 -14.358  0.00  0.00    -0.174 NA
ATOM      3  N   UNL     1      31.577 -22.042 -17.311  0.00  0.00    -0.389 NA
ATOM      4  C   UNL     1      29.789 -22.890 -15.788  0.00  0.00    +0.112 C 
ATOM      5  C   UNL     1      31.078 -22.713 -16.238  0.00  0.00    +0.189 C 
ATOM      6  C   UNL     1      29.914 -23.676 -14.637  0.00  0.00    +0.100 C 
ATOM      7  C   UNL     1      33.301 -23.408 -15.511  0.00  0.00    +0.126 C 
ATOM      8  C   UNL     1      32.868 -22.067 -17.474  0.00  0.00    +0.135 C 
ATOM      9  C   UNL     1      33.832 -22.757 -16.560  0.00  0.00    +0.064 C 
ENDROOT
BRANCH   8  10
ATOM     10  C   UNL     1      33.457 -21.352 -18.637  0.00  0.00    +0.030 C 
ATOM     11  C   UNL     1      32.632 -20.643 -19.507  0.00  0.00    +0.003 C 
ATOM     12  C   UNL     1      34.833 -21.395 -18.852  0.00  0.00    +0.003 C 
ATOM     13  C   UNL     1      33.186 -19.973 -20.597  0.00  0.00    +0.000 C 
ATOM     14  C   UNL     1      35.386 -20.724 -19.943  0.00  0.00    +0.000 C 
ATOM     15  C   UNL     1      34.563 -20.013 -20.816  0.00  0.00    +0.000 C 
ENDBRANCH   8  10
BRANCH   4  16
ATOM     16  C   UNL     1      28.512 -22.352 -16.406  0.00  0.00    +0.014 C 
ATOM     17  C   UNL     1      27.218 -22.444 -15.632  0.00  0.00    +0.001 C 
ATOM     18  C   UNL     1      27.431 -23.316 -16.835  0.00  0.00    +0.001 C 
ENDBRANCH   4  16
BRANCH   7  19
ATOM     19  N   UNL     1      34.040 -24.085 -14.582  0.00  0.00    -0.316 N 
ATOM     20  H   UNL     1      34.023 -25.070 -14.599  0.00  0.00    +0.148 HD
BRANCH  19  21
ATOM     21  C   UNL     1      34.840 -23.434 -13.579  0.00  0.00    +0.117 C 
BRANCH  21  23
ATOM     22  N   UNL     1      38.457 -23.808 -14.565  0.00  0.00    -0.243 NA
ATOM     23  C   UNL     1      36.261 -23.918 -13.591  0.00  0.00    +0.017 C 
ATOM     24  C   UNL     1      36.683 -24.879 -12.689  0.00  0.00    +0.001 C 
ATOM     25  C   UNL     1      37.165 -23.415 -14.500  0.00  0.00    +0.096 C 
ATOM     26  C   UNL     1      38.005 -25.309 -12.724  0.00  0.00    +0.020 C 
ATOM     27  C   UNL     1      38.844 -24.748 -13.673  0.00  0.00    +0.099 C 
ENDBRANCH  21  23
ENDBRANCH  19  21
ENDBRANCH   7  19
TORSDOF 5
ENDMDL
MODEL 2
REMARK VINA RESULT:     -11.6      2.160      7.283
REMARK  Name = 10042950
REMARK  5 active torsions:
REMARK  status: ('A' for Active; 'I' for Inactive)
REMARK    1  A    between atoms: C_4  and  C_16
REMARK    2  A    between atoms: C_7  and  N_19
REMARK    3  A    between atoms: C_8  and  C_10
REMARK    4  A    between atoms: N_19  and  C_21
REMARK    5  A    between atoms: C_21  and  C_23
REMARK                            x       y       z     vdW  Elec       q    Type
REMARK                         _______ _______ _______ _____ _____    ______ ____
ROOT
ATOM      1  N   UNL     1      34.921 -22.188 -16.842  0.00  0.00    -0.152 N 
ATOM      2  N   UNL     1      36.253 -21.936 -16.986  0.00  0.00    -0.174 NA
ATOM      3  N   UNL     1      33.356 -22.873 -15.144  0.00  0.00    -0.389 NA
ATOM      4  C   UNL     1      35.813 -22.548 -14.838  0.00  0.00    +0.112 C 
ATOM      5  C   UNL     1      34.623 -22.568 -15.531  0.00  0.00    +0.189 C 
ATOM      6  C   UNL     1      36.771 -22.154 -15.779  0.00  0.00    +0.100 C 
ATOM      7  C   UNL     1      33.918 -22.099 -17.820  0.00  0.00    +0.126 C 
ATOM      8  C   UNL     1      32.428 -22.804 -16.053  0.00  0.00    +0.135 C 
ATOM      9  C   UNL     1      32.654 -22.395 -17.476  0.00  0.00    +0.064 C 
ENDROOT
BRANCH   8  10
ATOM     10  C   UNL     1      31.028 -23.136 -15.676  0.00  0.00    +0.030 C 
ATOM     11  C   UNL     1      29.968 -22.497 -16.314  0.00  0.00    +0.003 C 
ATOM     12  C   UNL     1      30.784 -24.084 -14.685  0.00  0.00    +0.003 C 
ATOM     13  C   UNL     1      28.656 -22.809 -15.959  0.00  0.00    +0.000 C 
ATOM     14  C   UNL     1      29.472 -24.396 -14.330  0.00  0.00    +0.000 C 
ATOM     15  C   UNL     1      28.407 -23.759 -14.967  0.00  0.00    +0.000 C 
ENDBRANCH   8  10
BRANCH   4  16
ATOM     16  C   UNL     1      36.036 -22.880 -13.374  0.00  0.00    +0.014 C 
ATOM     17  C   UNL     1      37.268 -23.653 -12.970  0.00  0.00    +0.001 C 
ATOM     18  C   UNL     1      35.922 -24.314 -12.914  0.00  0.00    +0.001 C 
ENDBRANCH   4  16
BRANCH   7  19
ATOM     19  N   UNL     1      34.294 -21.706 -19.074  0.00  0.00    -0.316 N 
ATOM     20  H   UNL     1      35.104 -22.107 -19.466  0.00  0.00    +0.148 HD
BRANCH  19  21
ATOM     21  C   UNL     1      33.568 -20.737 -19.850  0.00  0.00    +0.117 C 
BRANCH  21  23
ATOM     22  N   UNL     1      36.610 -18.650 -20.619  0.00  0.00    -0.243 NA
ATOM     23  C   UNL     1      34.485 -19.775 -20.548  0.00  0.00    +0.017 C 
ATOM     24  C   UNL     1      34.085 -19.143 -21.713  0.00  0.00    +0.001 C 
ATOM     25  C   UNL     1      35.737 -19.505 -20.040  0.00  0.00    +0.096 C 
ATOM     26  C   UNL     1      34.955 -18.256 -22.338  0.00  0.00    +0.020 C 
ATOM     27  C   UNL     1      36.194 -18.046 -21.755  0.00  0.00    +0.099 C 
ENDBRANCH  21  23
ENDBRANCH  19  21
ENDBRANCH   7  19
TORSDOF 5
ENDMDL
MODEL 3
REMARK VINA RESULT:     -11.5      1.455      5.001
REMARK  Name = 10042950
REMARK  5 active torsions:
REMARK  status: ('A' for Active; 'I' for Inactive)
REMARK    1  A    between atoms: C_4  and  C_16
REMARK    2  A    between atoms: C_7  and  N_19
REMARK    3  A    between atoms: C_8  and  C_10
REMARK    4  A    between atoms: N_19  and  C_21
REMARK    5  A    between atoms: C_21  and  C_23
REMARK                            x       y       z     vdW  Elec       q    Type
REMARK                         _______ _______ _______ _____ _____    ______ ____
ROOT
ATOM      1  N   UNL     1      34.614 -22.336 -16.491  0.00  0.00    -0.152 N 
ATOM      2  N   UNL     1      35.832 -21.949 -16.967  0.00  0.00    -0.174 NA
ATOM      3  N   UNL     1      32.316 -22.447 -17.202  0.00  0.00    -0.389 NA
ATOM      4  C   UNL     1      34.239 -21.609 -18.557  0.00  0.00    +0.112 C 
ATOM      5  C   UNL     1      33.617 -22.137 -17.447  0.00  0.00    +0.189 C 
ATOM      6  C   UNL     1      35.590 -21.519 -18.204  0.00  0.00    +0.100 C 
ATOM      7  C   UNL     1      34.317 -22.875 -15.229  0.00  0.00    +0.126 C 
ATOM      8  C   UNL     1      32.037 -22.933 -16.028  0.00  0.00    +0.135 C 
ATOM      9  C   UNL     1      33.042 -23.193 -14.949  0.00  0.00    +0.064 C 
ENDROOT
BRANCH   8  10
ATOM     10  C   UNL     1      30.626 -23.281 -15.713  0.00  0.00    +0.030 C 
ATOM     11  C   UNL     1      29.588 -22.527 -16.255  0.00  0.00    +0.003 C 
ATOM     12  C   UNL     1      30.348 -24.360 -14.877  0.00  0.00    +0.003 C 
ATOM     13  C   UNL     1      28.265 -22.853 -15.959  0.00  0.00    +0.000 C 
ATOM     14  C   UNL     1      29.025 -24.686 -14.581  0.00  0.00    +0.000 C 
ATOM     15  C   UNL     1      27.983 -23.933 -15.122  0.00  0.00    +0.000 C 
ENDBRANCH   8  10
BRANCH   4  16
ATOM     16  C   UNL     1      33.599 -21.213 -19.875  0.00  0.00    +0.014 C 
ATOM     17  C   UNL     1      33.808 -19.816 -20.409  0.00  0.00    +0.001 C 
ATOM     18  C   UNL     1      32.463 -20.217 -19.877  0.00  0.00    +0.001 C 
ENDBRANCH   4  16
BRANCH   7  19
ATOM     19  N   UNL     1      35.355 -23.051 -14.358  0.00  0.00    -0.316 N 
ATOM     20  H   UNL     1      35.892 -22.264 -14.107  0.00  0.00    +0.148 HD
BRANCH  19  21
ATOM     21  C   UNL     1      35.705 -24.326 -13.790  0.00  0.00    +0.117 C 
BRANCH  21  23
ATOM     22  N   UNL     1      38.800 -26.433 -14.206  0.00  0.00    -0.243 NA
ATOM     23  C   UNL     1      37.116 -24.718 -14.116  0.00  0.00    +0.017 C 
ATOM     24  C   UNL     1      38.011 -23.782 -14.603  0.00  0.00    +0.001 C 
ATOM     25  C   UNL     1      37.543 -26.015 -13.934  0.00  0.00    +0.096 C 
ATOM     26  C   UNL     1      39.312 -24.173 -14.895  0.00  0.00    +0.020 C 
ATOM     27  C   UNL     1      39.654 -25.498 -14.680  0.00  0.00    +0.099 C 
ENDBRANCH  21  23
ENDBRANCH  19  21
ENDBRANCH   7  19
TORSDOF 5
ENDMDL
MODEL 4
REMARK VINA RESULT:     -11.5      1.356      1.766
REMARK  Name = 10042950
REMARK  5 active torsions:
REMARK  status: ('A' for Active; 'I' for Inactive)
REMARK    1  A    between atoms: C_4  and  C_16
REMARK    2  A    between atoms: C_7  and  N_19
REMARK    3  A    between atoms: C_8  and  C_10
REMARK    4  A    between atoms: N_19  and  C_21
REMARK    5  A    between atoms: C_21  and  C_23
REMARK                            x       y       z     vdW  Elec       q    Type
REMARK                         _______ _______ _______ _____ _____    ______ ____
ROOT
ATOM      1  N   UNL     1      32.043 -23.317 -15.623  0.00  0.00    -0.152 N 
ATOM      2  N   UNL     1      31.401 -23.963 -14.609  0.00  0.00    -0.174 NA
ATOM      3  N   UNL     1      31.545 -21.875 -17.487  0.00  0.00    -0.389 NA
ATOM      4  C   UNL     1      29.893 -22.807 -15.863  0.00  0.00    +0.112 C 
ATOM      5  C   UNL     1      31.140 -22.600 -16.410  0.00  0.00    +0.189 C 
ATOM      6  C   UNL     1      30.117 -23.647 -14.766  0.00  0.00    +0.100 C 
ATOM      7  C   UNL     1      33.418 -23.314 -15.906  0.00  0.00    +0.126 C 
ATOM      8  C   UNL     1      32.818 -21.883 -17.759  0.00  0.00    +0.135 C 
ATOM      9  C   UNL     1      33.857 -22.610 -16.963  0.00  0.00    +0.064 C 
ENDROOT
BRANCH   8  10
ATOM     10  C   UNL     1      33.306 -21.109 -18.931  0.00  0.00    +0.030 C 
ATOM     11  C   UNL     1      32.395 -20.465 -19.764  0.00  0.00    +0.003 C 
ATOM     12  C   UNL     1      34.672 -21.032 -19.191  0.00  0.00    +0.003 C 
ATOM     13  C   UNL     1      32.853 -19.739 -20.864  0.00  0.00    +0.000 C 
ATOM     14  C   UNL     1      35.130 -20.306 -20.290  0.00  0.00    +0.000 C 
ATOM     15  C   UNL     1      34.221 -19.659 -21.127  0.00  0.00    +0.000 C 
ENDBRANCH   8  10
BRANCH   4  16
ATOM     16  C   UNL     1      28.568 -22.248 -16.345  0.00  0.00    +0.014 C 
ATOM     17  C   UNL     1      27.319 -22.499 -15.532  0.00  0.00    +0.001 C 
ATOM     18  C   UNL     1      27.503 -23.194 -16.850  0.00  0.00    +0.001 C 
ENDBRANCH   4  16
BRANCH   7  19
ATOM     19  N   UNL     1      34.234 -24.031 -15.077  0.00  0.00    -0.316 N 
ATOM     20  H   UNL     1      33.936 -24.922 -14.783  0.00  0.00    +0.148 HD
BRANCH  19  21
ATOM     21  C   UNL     1      35.506 -23.549 -14.608  0.00  0.00    +0.117 C 
BRANCH  21  23
ATOM     22  N   UNL     1      34.731 -24.330 -11.004  0.00  0.00    -0.243 NA
ATOM     23  C   UNL     1      35.587 -23.540 -13.109  0.00  0.00    +0.017 C 
ATOM     24  C   UNL     1      36.540 -22.775 -12.461  0.00  0.00    +0.001 C 
ATOM     25  C   UNL     1      34.713 -24.294 -12.356  0.00  0.00    +0.096 C 
ATOM     26  C   UNL     1      36.590 -22.785 -11.072  0.00  0.00    +0.020 C 
ATOM     27  C   UNL     1      35.672 -23.572 -10.396  0.00  0.00    +0.099 C 
ENDBRANCH  21  23
ENDBRANCH  19  21
ENDBRANCH   7  19
TORSDOF 5
ENDMDL
MODEL 5
REMARK VINA RESULT:     -11.5      1.950      5.288
REMARK  Name = 10042950
REMARK  5 active torsions:
REMARK  status: ('A' for Active; 'I' for Inactive)
REMARK    1  A    between atoms: C_4  and  C_16
REMARK    2  A    between atoms: C_7  and  N_19
REMARK    3  A    between atoms: C_8  and  C_10
REMARK    4  A    between atoms: N_19  and  C_21
REMARK    5  A    between atoms: C_21  and  C_23
REMARK                            x       y       z     vdW  Elec       q    Type
REMARK                         _______ _______ _______ _____ _____    ______ ____
ROOT
ATOM      1  N   UNL     1      35.398 -21.985 -16.791  0.00  0.00    -0.152 N 
ATOM      2  N   UNL     1      36.398 -21.447 -17.545  0.00  0.00    -0.174 NA
ATOM      3  N   UNL     1      33.045 -22.474 -16.943  0.00  0.00    -0.389 NA
ATOM      4  C   UNL     1      34.452 -21.436 -18.726  0.00  0.00    +0.112 C 
ATOM      5  C   UNL     1      34.191 -21.988 -17.491  0.00  0.00    +0.189 C 
ATOM      6  C   UNL     1      35.817 -21.126 -18.699  0.00  0.00    +0.100 C 
ATOM      7  C   UNL     1      35.485 -22.491 -15.484  0.00  0.00    +0.126 C 
ATOM      8  C   UNL     1      33.121 -22.931 -15.727  0.00  0.00    +0.135 C 
ATOM      9  C   UNL     1      34.373 -22.979 -14.908  0.00  0.00    +0.064 C 
ENDROOT
BRANCH   8  10
ATOM     10  C   UNL     1      31.891 -23.467 -15.085  0.00  0.00    +0.030 C 
ATOM     11  C   UNL     1      30.652 -23.276 -15.692  0.00  0.00    +0.003 C 
ATOM     12  C   UNL     1      31.984 -24.157 -13.879  0.00  0.00    +0.003 C 
ATOM     13  C   UNL     1      29.500 -23.779 -15.089  0.00  0.00    +0.000 C 
ATOM     14  C   UNL     1      30.831 -24.660 -13.276  0.00  0.00    +0.000 C 
ATOM     15  C   UNL     1      29.588 -24.471 -13.880  0.00  0.00    +0.000 C 
ENDBRANCH   8  10
BRANCH   4  16
ATOM     16  C   UNL     1      33.475 -21.212 -19.864  0.00  0.00    +0.014 C 
ATOM     17  C   UNL     1      33.406 -19.856 -20.526  0.00  0.00    +0.001 C 
ATOM     18  C   UNL     1      32.278 -20.316 -19.649  0.00  0.00    +0.001 C 
ENDBRANCH   4  16
BRANCH   7  19
ATOM     19  N   UNL     1      36.708 -22.462 -14.876  0.00  0.00    -0.316 N 
ATOM     20  H   UNL     1      37.219 -21.621 -14.895  0.00  0.00    +0.148 HD
BRANCH  19  21
ATOM     21  C   UNL     1      37.288 -23.599 -14.211  0.00  0.00    +0.117 C 
BRANCH  21  23
ATOM     22  N   UNL     1      35.933 -25.215 -11.089  0.00  0.00    -0.243 NA
ATOM     23  C   UNL     1      36.766 -23.760 -12.814  0.00  0.00    +0.017 C 
ATOM     24  C   UNL     1      36.631 -22.660 -11.983  0.00  0.00    +0.001 C 
ATOM     25  C   UNL     1      36.411 -25.002 -12.336  0.00  0.00    +0.096 C 
ATOM     26  C   UNL     1      36.143 -22.839 -10.694  0.00  0.00    +0.020 C 
ATOM     27  C   UNL     1      35.811 -24.124 -10.299  0.00  0.00    +0.099 C 
ENDBRANCH  21  23
ENDBRANCH  19  21
ENDBRANCH   7  19
TORSDOF 5
ENDMDL
MODEL 6
REMARK VINA RESULT:     -11.4      1.517      6.569
REMARK  Name = 10042950
REMARK  5 active torsions:
REMARK  status: ('A' for Active; 'I' for Inactive)
REMARK    1  A    between atoms: C_4  and  C_16
REMARK    2  A    between atoms: C_7  and  N_19
REMARK    3  A    between atoms: C_8  and  C_10
REMARK    4  A    between atoms: N_19  and  C_21
REMARK    5  A    between atoms: C_21  and  C_23
REMARK                            x       y       z     vdW  Elec       q    Type
REMARK                         _______ _______ _______ _____ _____    ______ ____
ROOT
ATOM      1  N   UNL     1      33.991 -23.606 -13.262  0.00  0.00    -0.152 N 
ATOM      2  N   UNL     1      34.057 -24.111 -11.997  0.00  0.00    -0.174 NA
ATOM      3  N   UNL     1      35.459 -22.976 -15.064  0.00  0.00    -0.389 NA
ATOM      4  C   UNL     1      36.156 -23.900 -12.852  0.00  0.00    +0.112 C 
ATOM      5  C   UNL     1      35.268 -23.465 -13.810  0.00  0.00    +0.189 C 
ATOM      6  C   UNL     1      35.357 -24.282 -11.768  0.00  0.00    +0.100 C 
ATOM      7  C   UNL     1      32.843 -23.255 -13.988  0.00  0.00    +0.126 C 
ATOM      8  C   UNL     1      34.396 -22.637 -15.734  0.00  0.00    +0.135 C 
ATOM      9  C   UNL     1      32.991 -22.767 -15.231  0.00  0.00    +0.064 C 
ENDROOT
BRANCH   8  10
ATOM     10  C   UNL     1      34.557 -22.092 -17.108  0.00  0.00    +0.030 C 
ATOM     11  C   UNL     1      33.489 -22.130 -18.000  0.00  0.00    +0.003 C 
ATOM     12  C   UNL     1      35.778 -21.545 -17.497  0.00  0.00    +0.003 C 
ATOM     13  C   UNL     1      33.641 -21.619 -19.288  0.00  0.00    +0.000 C 
ATOM     14  C   UNL     1      35.930 -21.033 -18.786  0.00  0.00    +0.000 C 
ATOM     15  C   UNL     1      34.862 -21.070 -19.682  0.00  0.00    +0.000 C 
ENDBRANCH   8  10
BRANCH   4  16
ATOM     16  C   UNL     1      37.669 -23.952 -12.950  0.00  0.00    +0.014 C 
ATOM     17  C   UNL     1      38.312 -24.523 -14.192  0.00  0.00    +0.001 C 
ATOM     18  C   UNL     1      38.369 -25.290 -12.904  0.00  0.00    +0.001 C 
ENDBRANCH   4  16
BRANCH   7  19
ATOM     19  N   UNL     1      31.632 -23.439 -13.382  0.00  0.00    -0.316 N 
ATOM     20  H   UNL     1      31.423 -22.902 -12.583  0.00  0.00    +0.148 HD
BRANCH  19  21
ATOM     21  C   UNL     1      30.648 -24.379 -13.850  0.00  0.00    +0.117 C 
BRANCH  21  23
ATOM     22  N   UNL     1      28.339 -21.712 -15.174  0.00  0.00    -0.243 NA
ATOM     23  C   UNL     1      29.572 -23.711 -14.655  0.00  0.00    +0.017 C 
ATOM     24  C   UNL     1      28.840 -24.431 -15.583  0.00  0.00    +0.001 C 
ATOM     25  C   UNL     1      29.295 -22.372 -14.482  0.00  0.00    +0.096 C 
ATOM     26  C   UNL     1      27.848 -23.786 -16.314  0.00  0.00    +0.020 C 
ATOM     27  C   UNL     1      27.639 -22.439 -16.074  0.00  0.00    +0.099 C 
ENDBRANCH  21  23
ENDBRANCH  19  21
ENDBRANCH   7  19
TORSDOF 5
ENDMDL
MODEL 7
REMARK VINA RESULT:     -11.1      1.824      6.316
REMARK  Name = 10042950
REMARK  5 active torsions:
REMARK  status: ('A' for Active; 'I' for Inactive)
REMARK    1  A    between atoms: C_4  and  C_16
REMARK    2  A    between atoms: C_7  and  N_19
REMARK    3  A    between atoms: C_8  and  C_10
REMARK    4  A    between atoms: N_19  and  C_21
REMARK    5  A    between atoms: C_21  and  C_23
REMARK                            x       y       z     vdW  Elec       q    Type
REMARK                         _______ _______ _______ _____ _____    ______ ____
ROOT
ATOM      1  N   UNL     1      32.432 -22.485 -16.691  0.00  0.00    -0.152 N 
ATOM      2  N   UNL     1      31.270 -22.155 -17.324  0.00  0.00    -0.174 NA
ATOM      3  N   UNL     1      33.181 -23.427 -14.605  0.00  0.00    -0.389 NA
ATOM      4  C   UNL     1      30.809 -23.030 -15.274  0.00  0.00    +0.112 C 
ATOM      5  C   UNL     1      32.177 -23.024 -15.428  0.00  0.00    +0.189 C 
ATOM      6  C   UNL     1      30.310 -22.488 -16.464  0.00  0.00    +0.100 C 
ATOM      7  C   UNL     1      33.743 -22.341 -17.171  0.00  0.00    +0.126 C 
ATOM      8  C   UNL     1      34.398 -23.281 -15.044  0.00  0.00    +0.135 C 
ATOM      9  C   UNL     1      34.763 -22.727 -16.386  0.00  0.00    +0.064 C 
ENDROOT
BRANCH   8  10
ATOM     10  C   UNL     1      35.529 -23.703 -14.174  0.00  0.00    +0.030 C 
ATOM     11  C   UNL     1      36.028 -22.828 -13.213  0.00  0.00    +0.003 C 
ATOM     12  C   UNL     1      36.083 -24.972 -14.326  0.00  0.00    +0.003 C 
ATOM     13  C   UNL     1      37.089 -23.224 -12.399  0.00  0.00    +0.000 C 
ATOM     14  C   UNL     1      37.143 -25.368 -13.511  0.00  0.00    +0.000 C 
ATOM     15  C   UNL     1      37.647 -24.495 -12.547  0.00  0.00    +0.000 C 
ENDBRANCH   8  10
BRANCH   4  16
ATOM     16  C   UNL     1      30.016 -23.518 -14.076  0.00  0.00    +0.014 C 
ATOM     17  C   UNL     1      30.485 -24.741 -13.325  0.00  0.00    +0.001 C 
ATOM     18  C   UNL     1      29.249 -24.816 -14.173  0.00  0.00    +0.001 C 
ENDBRANCH   4  16
BRANCH   7  19
ATOM     19  N   UNL     1      33.902 -21.817 -18.424  0.00  0.00    -0.316 N 
ATOM     20  H   UNL     1      33.096 -21.622 -18.954  0.00  0.00    +0.148 HD
BRANCH  19  21
ATOM     21  C   UNL     1      35.187 -21.539 -19.007  0.00  0.00    +0.117 C 
BRANCH  21  23
ATOM     22  N   UNL     1      36.318 -18.356 -20.678  0.00  0.00    -0.243 NA
ATOM     23  C   UNL     1      35.164 -20.298 -19.852  0.00  0.00    +0.017 C 
ATOM     24  C   UNL     1      34.026 -19.951 -20.558  0.00  0.00    +0.001 C 
ATOM     25  C   UNL     1      36.274 -19.487 -19.937  0.00  0.00    +0.096 C 
ATOM     26  C   UNL     1      34.032 -18.796 -21.331  0.00  0.00    +0.020 C 
ATOM     27  C   UNL     1      35.193 -18.040 -21.357  0.00  0.00    +0.099 C 
ENDBRANCH  21  23
ENDBRANCH  19  21
ENDBRANCH   7  19
TORSDOF 5
ENDMDL
MODEL 8
REMARK VINA RESULT:     -11.0      1.432      7.316
REMARK  Name = 10042950
REMARK  5 active torsions:
REMARK  status: ('A' for Active; 'I' for Inactive)
REMARK    1  A    between atoms: C_4  and  C_16
REMARK    2  A    between atoms: C_7  and  N_19
REMARK    3  A    between atoms: C_8  and  C_10
REMARK    4  A    between atoms: N_19  and  C_21
REMARK    5  A    between atoms: C_21  and  C_23
REMARK                            x       y       z     vdW  Elec       q    Type
REMARK                         _______ _______ _______ _____ _____    ______ ____
ROOT
ATOM      1  N   UNL     1      32.410 -22.662 -16.240  0.00  0.00    -0.152 N 
ATOM      2  N   UNL     1      31.482 -22.088 -17.057  0.00  0.00    -0.174 NA
ATOM      3  N   UNL     1      34.753 -23.222 -16.234  0.00  0.00    -0.389 NA
ATOM      4  C   UNL     1      33.508 -22.114 -18.094  0.00  0.00    +0.112 C 
ATOM      5  C   UNL     1      33.664 -22.693 -16.854  0.00  0.00    +0.189 C 
ATOM      6  C   UNL     1      32.154 -21.765 -18.160  0.00  0.00    +0.100 C 
ATOM      7  C   UNL     1      32.219 -23.174 -14.947  0.00  0.00    +0.126 C 
ATOM      8  C   UNL     1      34.573 -23.708 -15.041  0.00  0.00    +0.135 C 
ATOM      9  C   UNL     1      33.271 -23.706 -14.303  0.00  0.00    +0.064 C 
ENDROOT
BRANCH   8  10
ATOM     10  C   UNL     1      35.735 -24.303 -14.327  0.00  0.00    +0.030 C 
ATOM     11  C   UNL     1      36.259 -25.522 -14.750  0.00  0.00    +0.003 C 
ATOM     12  C   UNL     1      36.294 -23.638 -13.238  0.00  0.00    +0.003 C 
ATOM     13  C   UNL     1      37.348 -26.079 -14.080  0.00  0.00    +0.000 C 
ATOM     14  C   UNL     1      37.383 -24.195 -12.569  0.00  0.00    +0.000 C 
ATOM     15  C   UNL     1      37.911 -25.416 -12.989  0.00  0.00    +0.000 C 
ENDBRANCH   8  10
BRANCH   4  16
ATOM     16  C   UNL     1      34.570 -21.903 -19.156  0.00  0.00    +0.014 C 
ATOM     17  C   UNL     1      35.767 -21.035 -18.845  0.00  0.00    +0.001 C 
ATOM     18  C   UNL     1      34.717 -20.543 -19.798  0.00  0.00    +0.001 C 
ENDBRANCH   4  16
BRANCH   7  19
ATOM     19  N   UNL     1      30.962 -23.091 -14.416  0.00  0.00    -0.316 N 
ATOM     20  H   UNL     1      30.758 -22.339 -13.815  0.00  0.00    +0.148 HD
BRANCH  19  21
ATOM     21  C   UNL     1      29.923 -24.049 -14.689  0.00  0.00    +0.117 C 
BRANCH  21  23
ATOM     22  N   UNL     1      27.144 -23.664 -17.204  0.00  0.00    -0.243 NA
ATOM     23  C   UNL     1      28.790 -23.442 -15.464  0.00  0.00    +0.017 C 
ATOM     24  C   UNL     1      28.352 -22.160 -15.180  0.00  0.00    +0.001 C 
ATOM     25  C   UNL     1      28.168 -24.151 -16.468  0.00  0.00    +0.096 C 
ATOM     26  C   UNL     1      27.300 -21.624 -15.915  0.00  0.00    +0.020 C 
ATOM     27  C   UNL     1      26.736 -22.409 -16.907  0.00  0.00    +0.099 C 
ENDBRANCH  21  23
ENDBRANCH  19  21
ENDBRANCH   7  19
TORSDOF 5
ENDMDL
MODEL 9
REMARK VINA RESULT:     -10.1      1.825      6.852
REMARK  Name = 10042950
REMARK  5 active torsions:
REMARK  status: ('A' for Active; 'I' for Inactive)
REMARK    1  A    between atoms: C_4  and  C_16
REMARK    2  A    between atoms: C_7  and  N_19
REMARK    3  A    between atoms: C_8  and  C_10
REMARK    4  A    between atoms: N_19  and  C_21
REMARK    5  A    between atoms: C_21  and  C_23
REMARK                            x       y       z     vdW  Elec       q    Type
REMARK                         _______ _______ _______ _____ _____    ______ ____
ROOT
ATOM      1  N   UNL     1      34.004 -22.671 -16.265  0.00  0.00    -0.152 N 
ATOM      2  N   UNL     1      35.358 -22.796 -16.174  0.00  0.00    -0.174 NA
ATOM      3  N   UNL     1      32.048 -22.834 -14.870  0.00  0.00    -0.389 NA
ATOM      4  C   UNL     1      34.411 -23.174 -14.139  0.00  0.00    +0.112 C 
ATOM      5  C   UNL     1      33.397 -22.900 -15.029  0.00  0.00    +0.189 C 
ATOM      6  C   UNL     1      35.585 -23.095 -14.897  0.00  0.00    +0.100 C 
ATOM      7  C   UNL     1      33.245 -22.355 -17.403  0.00  0.00    +0.126 C 
ATOM      8  C   UNL     1      31.342 -22.554 -15.927  0.00  0.00    +0.135 C 
ATOM      9  C   UNL     1      31.908 -22.282 -17.286  0.00  0.00    +0.064 C 
ENDROOT
BRANCH   8  10
ATOM     10  C   UNL     1      29.862 -22.478 -15.802  0.00  0.00    +0.030 C 
ATOM     11  C   UNL     1      29.054 -22.898 -16.855  0.00  0.00    +0.003 C 
ATOM     12  C   UNL     1      29.291 -21.986 -14.631  0.00  0.00    +0.003 C 
ATOM     13  C   UNL     1      27.666 -22.826 -16.736  0.00  0.00    +0.000 C 
ATOM     14  C   UNL     1      27.903 -21.914 -14.512  0.00  0.00    +0.000 C 
ATOM     15  C   UNL     1      27.090 -22.334 -15.565  0.00  0.00    +0.000 C 
ENDBRANCH   8  10
BRANCH   4  16
ATOM     16  C   UNL     1      34.283 -23.492 -12.661  0.00  0.00    +0.014 C 
ATOM     17  C   UNL     1      35.342 -22.999 -11.703  0.00  0.00    +0.001 C 
ATOM     18  C   UNL     1      35.250 -24.462 -12.025  0.00  0.00    +0.001 C 
ENDBRANCH   4  16
BRANCH   7  19
ATOM     19  N   UNL     1      33.921 -22.132 -18.570  0.00  0.00    -0.316 N 
ATOM     20  H   UNL     1      34.841 -22.472 -18.649  0.00  0.00    +0.148 HD
BRANCH  19  21
ATOM     21  C   UNL     1      33.356 -21.423 -19.688  0.00  0.00    +0.117 C 
BRANCH  21  23
ATOM     22  N   UNL     1      36.402 -19.241 -20.092  0.00  0.00    -0.243 NA
ATOM     23  C   UNL     1      34.247 -20.309 -20.154  0.00  0.00    +0.017 C 
ATOM     24  C   UNL     1      33.773 -19.353 -21.037  0.00  0.00    +0.001 C 
ATOM     25  C   UNL     1      35.549 -20.219 -19.712  0.00  0.00    +0.096 C 
ATOM     26  C   UNL     1      34.620 -18.332 -21.451  0.00  0.00    +0.020 C 
ATOM     27  C   UNL     1      35.913 -18.320 -20.954  0.00  0.00    +0.099 C 
ENDBRANCH  21  23
ENDBRANCH  19  21
ENDBRANCH   7  19
TORSDOF 5
ENDMDL
