MODEL 1
REMARK VINA RESULT:     -12.2      0.000      0.000
REMARK  Name = 17749728
REMARK  5 active torsions:
REMARK  status: ('A' for Active; 'I' for Inactive)
REMARK    1  A    between atoms: C_3  and  C_23
REMARK    2  A    between atoms: C_6  and  S_11
REMARK    3  A    between atoms: S_11  and  N_14
REMARK    4  A    between atoms: N_14  and  C_17
REMARK    5  A    between atoms: C_23  and  C_25
REMARK                            x       y       z     vdW  Elec       q    Type
REMARK                         _______ _______ _______ _____ _____    ______ ____
ROOT
ATOM      1  O   UNL     1      32.625 -12.160 -25.552  0.00  0.00    -0.210 OA
ATOM      2  N   UNL     1      32.817 -14.480 -25.677  0.00  0.00    -0.333 NA
ATOM      3  C   UNL     1      33.677 -13.406 -23.795  0.00  0.00    +0.081 C 
ATOM      4  C   UNL     1      33.901 -14.712 -23.640  0.00  0.00    +0.040 C 
ATOM      5  C   UNL     1      33.340 -15.323 -24.850  0.00  0.00    +0.145 C 
ATOM      6  C   UNL     1      34.567 -16.838 -22.801  0.00  0.00    +0.126 C 
ATOM      7  C   UNL     1      34.518 -15.507 -22.622  0.00  0.00    +0.023 C 
ATOM      8  C   UNL     1      32.981 -13.238 -25.099  0.00  0.00    +0.201 C 
ATOM      9  C   UNL     1      33.436 -16.792 -24.977  0.00  0.00    +0.034 C 
ATOM     10  C   UNL     1      34.025 -17.479 -23.986  0.00  0.00    +0.023 C 
ENDROOT
BRANCH   6  11
ATOM     11  S   UNL     1      35.317 -17.772 -21.567  0.00  0.00    +0.077 S 
ATOM     12  O   UNL     1      36.724 -17.941 -21.909  0.00  0.00    -0.150 OA
ATOM     13  O   UNL     1      34.986 -17.171 -20.279  0.00  0.00    -0.150 OA
BRANCH  11  14
ATOM     14  N   UNL     1      34.550 -19.339 -21.620  0.00  0.00    -0.189 N 
ATOM     15  C   UNL     1      34.685 -20.099 -22.892  0.00  0.00    +0.139 C 
BRANCH  14  17
ATOM     16 CL   UNL     1      32.183 -21.981 -17.869  0.00  0.00    -0.082 Cl
ATOM     17  C   UNL     1      34.653 -20.114 -20.401  0.00  0.00    +0.070 C 
ATOM     18  C   UNL     1      33.502 -20.616 -19.794  0.00  0.00    +0.028 C 
ATOM     19  C   UNL     1      35.904 -20.357 -19.833  0.00  0.00    +0.016 C 
ATOM     20  C   UNL     1      33.603 -21.362 -18.619  0.00  0.00    +0.059 C 
ATOM     21  C   UNL     1      36.004 -21.102 -18.659  0.00  0.00    +0.002 C 
ATOM     22  C   UNL     1      34.853 -21.605 -18.051  0.00  0.00    +0.011 C 
ENDBRANCH  14  17
ENDBRANCH  11  14
ENDBRANCH   6  11
BRANCH   3  23
ATOM     23  C   UNL     1      34.006 -12.258 -22.918  0.00  0.00    +0.082 C 
BRANCH  23  25
ATOM     24  N   UNL     1      32.573 -10.210 -23.157  0.00  0.00    -0.360 N 
ATOM     25  C   UNL     1      32.830 -11.395 -22.517  0.00  0.00    +0.034 A 
ATOM     26  C   UNL     1      31.869 -11.568 -21.546  0.00  0.00    -0.013 A 
ATOM     27  C   UNL     1      31.003 -10.447 -21.603  0.00  0.00    -0.013 A 
ATOM     28  C   UNL     1      31.462  -9.624 -22.608  0.00  0.00    +0.029 A 
ATOM     29  C   UNL     1      31.762 -12.713 -20.619  0.00  0.00    +0.032 C 
ATOM     30  C   UNL     1      29.825 -10.205 -20.746  0.00  0.00    +0.032 C 
ATOM     31  C   UNL     1      30.958  -8.331 -23.110  0.00  0.00    +0.049 C 
ATOM     32  H   UNL     1      33.105  -9.837 -23.896  0.00  0.00    +0.165 HD
ENDBRANCH  23  25
ENDBRANCH   3  23
TORSDOF 5
ENDMDL
MODEL 2
REMARK VINA RESULT:     -11.7      1.620      2.159
REMARK  Name = 17749728
REMARK  5 active torsions:
REMARK  status: ('A' for Active; 'I' for Inactive)
REMARK    1  A    between atoms: C_3  and  C_23
REMARK    2  A    between atoms: C_6  and  S_11
REMARK    3  A    between atoms: S_11  and  N_14
REMARK    4  A    between atoms: N_14  and  C_17
REMARK    5  A    between atoms: C_23  and  C_25
REMARK                            x       y       z     vdW  Elec       q    Type
REMARK                         _______ _______ _______ _____ _____    ______ ____
ROOT
ATOM      1  O   UNL     1      33.101 -13.714 -25.082  0.00  0.00    -0.210 OA
ATOM      2  N   UNL     1      33.088 -16.042 -25.195  0.00  0.00    -0.333 NA
ATOM      3  C   UNL     1      33.956 -15.040 -23.278  0.00  0.00    +0.081 C 
ATOM      4  C   UNL     1      34.055 -16.359 -23.111  0.00  0.00    +0.040 C 
ATOM      5  C   UNL     1      33.495 -16.924 -24.344  0.00  0.00    +0.145 C 
ATOM      6  C   UNL     1      34.488 -18.532 -22.240  0.00  0.00    +0.126 C 
ATOM      7  C   UNL     1      34.550 -17.202 -22.065  0.00  0.00    +0.023 C 
ATOM      8  C   UNL     1      33.337 -14.817 -24.612  0.00  0.00    +0.201 C 
ATOM      9  C   UNL     1      33.463 -18.396 -24.465  0.00  0.00    +0.034 C 
ATOM     10  C   UNL     1      33.944 -19.129 -23.447  0.00  0.00    +0.023 C 
ENDROOT
BRANCH   6  11
ATOM     11  S   UNL     1      35.093 -19.523 -20.971  0.00  0.00    +0.077 S 
ATOM     12  O   UNL     1      35.576 -20.769 -21.553  0.00  0.00    -0.150 OA
ATOM     13  O   UNL     1      36.022 -18.726 -20.177  0.00  0.00    -0.150 OA
BRANCH  11  14
ATOM     14  N   UNL     1      33.723 -19.890 -19.954  0.00  0.00    -0.189 N 
ATOM     15  C   UNL     1      32.406 -20.009 -20.636  0.00  0.00    +0.139 C 
BRANCH  14  17
ATOM     16 CL   UNL     1      37.042 -21.892 -16.543  0.00  0.00    -0.082 Cl
ATOM     17  C   UNL     1      33.982 -20.846 -18.897  0.00  0.00    +0.070 C 
ATOM     18  C   UNL     1      35.241 -20.901 -18.299  0.00  0.00    +0.028 C 
ATOM     19  C   UNL     1      32.972 -21.713 -18.480  0.00  0.00    +0.016 C 
ATOM     20  C   UNL     1      35.489 -21.823 -17.281  0.00  0.00    +0.059 C 
ATOM     21  C   UNL     1      33.221 -22.635 -17.464  0.00  0.00    +0.002 C 
ATOM     22  C   UNL     1      34.480 -22.690 -16.864  0.00  0.00    +0.011 C 
ENDBRANCH  14  17
ENDBRANCH  11  14
ENDBRANCH   6  11
BRANCH   3  23
ATOM     23  C   UNL     1      34.348 -13.921 -22.389  0.00  0.00    +0.082 C 
BRANCH  23  25
ATOM     24  N   UNL     1      33.383 -11.723 -23.122  0.00  0.00    -0.360 N 
ATOM     25  C   UNL     1      33.337 -12.801 -22.278  0.00  0.00    +0.034 A 
ATOM     26  C   UNL     1      32.276 -12.621 -21.419  0.00  0.00    -0.013 A 
ATOM     27  C   UNL     1      31.661 -11.390 -21.759  0.00  0.00    -0.013 A 
ATOM     28  C   UNL     1      32.366 -10.856 -22.815  0.00  0.00    +0.029 A 
ATOM     29  C   UNL     1      31.856 -13.543 -20.344  0.00  0.00    +0.032 C 
ATOM     30  C   UNL     1      30.482 -10.788 -21.103  0.00  0.00    +0.032 C 
ATOM     31  C   UNL     1      32.180  -9.603 -23.572  0.00  0.00    +0.049 C 
ATOM     32  H   UNL     1      34.045 -11.590 -23.839  0.00  0.00    +0.165 HD
ENDBRANCH  23  25
ENDBRANCH   3  23
TORSDOF 5
ENDMDL
MODEL 3
REMARK VINA RESULT:     -11.2      6.250     12.020
REMARK  Name = 17749728
REMARK  5 active torsions:
REMARK  status: ('A' for Active; 'I' for Inactive)
REMARK    1  A    between atoms: C_3  and  C_23
REMARK    2  A    between atoms: C_6  and  S_11
REMARK    3  A    between atoms: S_11  and  N_14
REMARK    4  A    between atoms: N_14  and  C_17
REMARK    5  A    between atoms: C_23  and  C_25
REMARK                            x       y       z     vdW  Elec       q    Type
REMARK                         _______ _______ _______ _____ _____    ______ ____
ROOT
ATOM      1  O   UNL     1      31.426 -10.380 -18.541  0.00  0.00    -0.210 OA
ATOM      2  N   UNL     1      31.963  -8.169 -19.044  0.00  0.00    -0.333 NA
ATOM      3  C   UNL     1      31.107  -9.507 -20.750  0.00  0.00    +0.081 C 
ATOM      4  C   UNL     1      31.333  -8.301 -21.272  0.00  0.00    +0.040 C 
ATOM      5  C   UNL     1      31.867  -7.515 -20.154  0.00  0.00    +0.145 C 
ATOM      6  C   UNL     1      31.503  -6.437 -22.743  0.00  0.00    +0.126 C 
ATOM      7  C   UNL     1      31.163  -7.725 -22.572  0.00  0.00    +0.023 C 
ATOM      8  C   UNL     1      31.506  -9.441 -19.318  0.00  0.00    +0.201 C 
ATOM      9  C   UNL     1      32.222  -6.106 -20.421  0.00  0.00    +0.034 C 
ATOM     10  C   UNL     1      32.037  -5.628 -21.662  0.00  0.00    +0.023 C 
ENDROOT
BRANCH   6  11
ATOM     11  S   UNL     1      31.294  -5.769 -24.315  0.00  0.00    +0.077 S 
ATOM     12  O   UNL     1      30.731  -6.798 -25.180  0.00  0.00    -0.150 OA
ATOM     13  O   UNL     1      30.571  -4.509 -24.179  0.00  0.00    -0.150 OA
BRANCH  11  14
ATOM     14  N   UNL     1      32.897  -5.389 -24.890  0.00  0.00    -0.189 N 
ATOM     15  C   UNL     1      33.960  -6.387 -24.597  0.00  0.00    +0.139 C 
BRANCH  14  17
ATOM     16 CL   UNL     1      33.426  -5.931 -29.998  0.00  0.00    -0.082 Cl
ATOM     17  C   UNL     1      32.947  -4.771 -26.200  0.00  0.00    +0.070 C 
ATOM     18  C   UNL     1      33.139  -5.557 -27.336  0.00  0.00    +0.028 C 
ATOM     19  C   UNL     1      32.806  -3.389 -26.324  0.00  0.00    +0.016 C 
ATOM     20  C   UNL     1      33.188  -4.961 -28.596  0.00  0.00    +0.059 C 
ATOM     21  C   UNL     1      32.857  -2.793 -27.583  0.00  0.00    +0.002 C 
ATOM     22  C   UNL     1      33.048  -3.579 -28.720  0.00  0.00    +0.011 C 
ENDBRANCH  14  17
ENDBRANCH  11  14
ENDBRANCH   6  11
BRANCH   3  23
ATOM     23  C   UNL     1      30.570 -10.743 -21.367  0.00  0.00    +0.082 C 
BRANCH  23  25
ATOM     24  N   UNL     1      31.865 -12.746 -20.585  0.00  0.00    -0.360 N 
ATOM     25  C   UNL     1      31.579 -11.848 -21.580  0.00  0.00    +0.034 A 
ATOM     26  C   UNL     1      32.348 -12.173 -22.676  0.00  0.00    -0.013 A 
ATOM     27  C   UNL     1      33.124 -13.306 -22.326  0.00  0.00    -0.013 A 
ATOM     28  C   UNL     1      32.805 -13.639 -21.028  0.00  0.00    +0.029 A 
ATOM     29  C   UNL     1      32.358 -11.470 -23.975  0.00  0.00    +0.032 C 
ATOM     30  C   UNL     1      34.096 -14.004 -23.193  0.00  0.00    +0.032 C 
ATOM     31  C   UNL     1      33.299 -14.720 -20.154  0.00  0.00    +0.049 C 
ATOM     32  H   UNL     1      31.458 -12.748 -19.688  0.00  0.00    +0.165 HD
ENDBRANCH  23  25
ENDBRANCH   3  23
TORSDOF 5
ENDMDL
MODEL 4
REMARK VINA RESULT:     -11.2      3.345      8.770
REMARK  Name = 17749728
REMARK  5 active torsions:
REMARK  status: ('A' for Active; 'I' for Inactive)
REMARK    1  A    between atoms: C_3  and  C_23
REMARK    2  A    between atoms: C_6  and  S_11
REMARK    3  A    between atoms: S_11  and  N_14
REMARK    4  A    between atoms: N_14  and  C_17
REMARK    5  A    between atoms: C_23  and  C_25
REMARK                            x       y       z     vdW  Elec       q    Type
REMARK                         _______ _______ _______ _____ _____    ______ ____
ROOT
ATOM      1  O   UNL     1      35.010 -19.899 -23.917  0.00  0.00    -0.210 OA
ATOM      2  N   UNL     1      33.821 -18.037 -24.659  0.00  0.00    -0.333 NA
ATOM      3  C   UNL     1      35.042 -17.845 -22.683  0.00  0.00    +0.081 C 
ATOM      4  C   UNL     1      34.456 -16.666 -22.899  0.00  0.00    +0.040 C 
ATOM      5  C   UNL     1      33.710 -16.856 -24.148  0.00  0.00    +0.145 C 
ATOM      6  C   UNL     1      33.720 -14.409 -22.731  0.00  0.00    +0.126 C 
ATOM      7  C   UNL     1      34.439 -15.415 -22.205  0.00  0.00    +0.023 C 
ATOM      8  C   UNL     1      34.645 -18.739 -23.804  0.00  0.00    +0.201 C 
ATOM      9  C   UNL     1      32.940 -15.704 -24.662  0.00  0.00    +0.034 C 
ATOM     10  C   UNL     1      32.967 -14.558 -23.963  0.00  0.00    +0.023 C 
ENDROOT
BRANCH   6  11
ATOM     11  S   UNL     1      33.712 -12.916 -21.876  0.00  0.00    +0.077 S 
ATOM     12  O   UNL     1      34.654 -13.016 -20.769  0.00  0.00    -0.150 OA
ATOM     13  O   UNL     1      33.894 -11.839 -22.843  0.00  0.00    -0.150 OA
BRANCH  11  14
ATOM     14  N   UNL     1      32.106 -12.753 -21.213  0.00  0.00    -0.189 N 
ATOM     15  C   UNL     1      31.696 -13.774 -20.212  0.00  0.00    +0.139 C 
BRANCH  14  17
ATOM     16 CL   UNL     1      30.473  -8.204 -23.031  0.00  0.00    -0.082 Cl
ATOM     17  C   UNL     1      31.689 -11.392 -20.943  0.00  0.00    +0.070 C 
ATOM     18  C   UNL     1      31.324 -10.552 -21.995  0.00  0.00    +0.028 C 
ATOM     19  C   UNL     1      31.655 -10.922 -19.630  0.00  0.00    +0.016 C 
ATOM     20  C   UNL     1      30.923  -9.242 -21.733  0.00  0.00    +0.059 C 
ATOM     21  C   UNL     1      31.255  -9.612 -19.369  0.00  0.00    +0.002 C 
ATOM     22  C   UNL     1      30.889  -8.771 -20.421  0.00  0.00    +0.011 C 
ENDBRANCH  14  17
ENDBRANCH  11  14
ENDBRANCH   6  11
BRANCH   3  23
ATOM     23  C   UNL     1      35.930 -18.296 -21.586  0.00  0.00    +0.082 C 
BRANCH  23  25
ATOM     24  N   UNL     1      36.089 -19.937 -19.692  0.00  0.00    -0.360 N 
ATOM     25  C   UNL     1      35.324 -19.311 -20.642  0.00  0.00    +0.034 A 
ATOM     26  C   UNL     1      34.036 -19.784 -20.526  0.00  0.00    -0.013 A 
ATOM     27  C   UNL     1      34.026 -20.730 -19.470  0.00  0.00    -0.013 A 
ATOM     28  C   UNL     1      35.309 -20.804 -18.972  0.00  0.00    +0.029 A 
ATOM     29  C   UNL     1      32.880 -19.379 -21.351  0.00  0.00    +0.032 C 
ATOM     30  C   UNL     1      32.858 -21.494 -18.988  0.00  0.00    +0.032 C 
ATOM     31  C   UNL     1      35.881 -21.614 -17.879  0.00  0.00    +0.049 C 
ATOM     32  H   UNL     1      37.052 -19.788 -19.550  0.00  0.00    +0.165 HD
ENDBRANCH  23  25
ENDBRANCH   3  23
TORSDOF 5
ENDMDL
MODEL 5
REMARK VINA RESULT:     -11.1      6.488     11.997
REMARK  Name = 17749728
REMARK  5 active torsions:
REMARK  status: ('A' for Active; 'I' for Inactive)
REMARK    1  A    between atoms: C_3  and  C_23
REMARK    2  A    between atoms: C_6  and  S_11
REMARK    3  A    between atoms: S_11  and  N_14
REMARK    4  A    between atoms: N_14  and  C_17
REMARK    5  A    between atoms: C_23  and  C_25
REMARK                            x       y       z     vdW  Elec       q    Type
REMARK                         _______ _______ _______ _____ _____    ______ ____
ROOT
ATOM      1  O   UNL     1      31.342 -10.106 -18.402  0.00  0.00    -0.210 OA
ATOM      2  N   UNL     1      31.858  -7.910 -18.987  0.00  0.00    -0.333 NA
ATOM      3  C   UNL     1      31.021  -9.321 -20.643  0.00  0.00    +0.081 C 
ATOM      4  C   UNL     1      31.237  -8.133 -21.210  0.00  0.00    +0.040 C 
ATOM      5  C   UNL     1      31.759  -7.300 -20.121  0.00  0.00    +0.145 C 
ATOM      6  C   UNL     1      31.394  -6.324 -22.750  0.00  0.00    +0.126 C 
ATOM      7  C   UNL     1      31.066  -7.608 -22.531  0.00  0.00    +0.023 C 
ATOM      8  C   UNL     1      31.415  -9.197 -19.214  0.00  0.00    +0.201 C 
ATOM      9  C   UNL     1      32.102  -5.898 -20.440  0.00  0.00    +0.034 C 
ATOM     10  C   UNL     1      31.916  -5.469 -21.698  0.00  0.00    +0.023 C 
ENDROOT
BRANCH   6  11
ATOM     11  S   UNL     1      31.183  -5.717 -24.346  0.00  0.00    +0.077 S 
ATOM     12  O   UNL     1      30.595  -6.771 -25.163  0.00  0.00    -0.150 OA
ATOM     13  O   UNL     1      30.484  -4.440 -24.257  0.00  0.00    -0.150 OA
BRANCH  11  14
ATOM     14  N   UNL     1      32.788  -5.390 -24.949  0.00  0.00    -0.189 N 
ATOM     15  C   UNL     1      33.824  -6.420 -24.669  0.00  0.00    +0.139 C 
BRANCH  14  17
ATOM     16 CL   UNL     1      33.750  -5.870 -29.999  0.00  0.00    -0.082 Cl
ATOM     17  C   UNL     1      32.837  -4.778 -26.261  0.00  0.00    +0.070 C 
ATOM     18  C   UNL     1      33.224  -5.531 -27.369  0.00  0.00    +0.028 C 
ATOM     19  C   UNL     1      32.498  -3.433 -26.416  0.00  0.00    +0.016 C 
ATOM     20  C   UNL     1      33.271  -4.941 -28.632  0.00  0.00    +0.059 C 
ATOM     21  C   UNL     1      32.546  -2.843 -27.678  0.00  0.00    +0.002 C 
ATOM     22  C   UNL     1      32.933  -3.597 -28.787  0.00  0.00    +0.011 C 
ENDBRANCH  14  17
ENDBRANCH  11  14
ENDBRANCH   6  11
BRANCH   3  23
ATOM     23  C   UNL     1      30.498 -10.583 -21.215  0.00  0.00    +0.082 C 
BRANCH  23  25
ATOM     24  N   UNL     1      32.034 -11.219 -23.097  0.00  0.00    -0.360 N 
ATOM     25  C   UNL     1      31.536 -11.483 -21.847  0.00  0.00    +0.034 A 
ATOM     26  C   UNL     1      32.146 -12.628 -21.383  0.00  0.00    -0.013 A 
ATOM     27  C   UNL     1      33.041 -13.068 -22.390  0.00  0.00    -0.013 A 
ATOM     28  C   UNL     1      32.952 -12.178 -23.438  0.00  0.00    +0.029 A 
ATOM     29  C   UNL     1      31.910 -13.275 -20.076  0.00  0.00    +0.032 C 
ATOM     30  C   UNL     1      33.912 -14.260 -22.329  0.00  0.00    +0.032 C 
ATOM     31  C   UNL     1      33.647 -12.137 -24.739  0.00  0.00    +0.049 C 
ATOM     32  H   UNL     1      31.771 -10.458 -23.663  0.00  0.00    +0.165 HD
ENDBRANCH  23  25
ENDBRANCH   3  23
TORSDOF 5
ENDMDL
MODEL 6
REMARK VINA RESULT:     -11.1      2.420      3.988
REMARK  Name = 17749728
REMARK  5 active torsions:
REMARK  status: ('A' for Active; 'I' for Inactive)
REMARK    1  A    between atoms: C_3  and  C_23
REMARK    2  A    between atoms: C_6  and  S_11
REMARK    3  A    between atoms: S_11  and  N_14
REMARK    4  A    between atoms: N_14  and  C_17
REMARK    5  A    between atoms: C_23  and  C_25
REMARK                            x       y       z     vdW  Elec       q    Type
REMARK                         _______ _______ _______ _____ _____    ______ ____
ROOT
ATOM      1  O   UNL     1      30.971  -9.889 -20.432  0.00  0.00    -0.210 OA
ATOM      2  N   UNL     1      31.922 -11.953 -19.914  0.00  0.00    -0.333 NA
ATOM      3  C   UNL     1      31.879 -11.293 -22.149  0.00  0.00    +0.081 C 
ATOM      4  C   UNL     1      32.464 -12.491 -22.104  0.00  0.00    +0.040 C 
ATOM      5  C   UNL     1      32.458 -12.844 -20.680  0.00  0.00    +0.145 C 
ATOM      6  C   UNL     1      33.548 -14.534 -22.669  0.00  0.00    +0.126 C 
ATOM      7  C   UNL     1      33.023 -13.370 -23.086  0.00  0.00    +0.023 C 
ATOM      8  C   UNL     1      31.524 -10.931 -20.751  0.00  0.00    +0.201 C 
ATOM      9  C   UNL     1      33.050 -14.143 -20.298  0.00  0.00    +0.034 C 
ATOM     10  C   UNL     1      33.558 -14.920 -21.269  0.00  0.00    +0.023 C 
ENDROOT
BRANCH   6  11
ATOM     11  S   UNL     1      34.209 -15.575 -23.868  0.00  0.00    +0.077 S 
ATOM     12  O   UNL     1      33.648 -15.201 -25.160  0.00  0.00    -0.150 OA
ATOM     13  O   UNL     1      35.660 -15.575 -23.718  0.00  0.00    -0.150 OA
BRANCH  11  14
ATOM     14  N   UNL     1      33.646 -17.179 -23.472  0.00  0.00    -0.189 N 
ATOM     15  C   UNL     1      33.147 -18.004 -24.605  0.00  0.00    +0.139 C 
BRANCH  14  17
ATOM     16 CL   UNL     1      33.862 -20.733 -19.732  0.00  0.00    -0.082 Cl
ATOM     17  C   UNL     1      34.431 -17.876 -22.473  0.00  0.00    +0.070 C 
ATOM     18  C   UNL     1      33.837 -18.855 -21.677  0.00  0.00    +0.028 C 
ATOM     19  C   UNL     1      35.781 -17.565 -22.308  0.00  0.00    +0.016 C 
ATOM     20  C   UNL     1      34.594 -19.525 -20.716  0.00  0.00    +0.059 C 
ATOM     21  C   UNL     1      36.537 -18.234 -21.346  0.00  0.00    +0.002 C 
ATOM     22  C   UNL     1      35.944 -19.214 -20.549  0.00  0.00    +0.011 C 
ENDBRANCH  14  17
ENDBRANCH  11  14
ENDBRANCH   6  11
BRANCH   3  23
ATOM     23  C   UNL     1      31.586 -10.403 -23.297  0.00  0.00    +0.082 C 
BRANCH  23  25
ATOM     24  N   UNL     1      30.858  -8.091 -22.646  0.00  0.00    -0.360 N 
ATOM     25  C   UNL     1      31.856  -8.934 -23.060  0.00  0.00    +0.034 A 
ATOM     26  C   UNL     1      33.010  -8.193 -23.187  0.00  0.00    -0.013 A 
ATOM     27  C   UNL     1      32.695  -6.856 -22.837  0.00  0.00    -0.013 A 
ATOM     28  C   UNL     1      31.358  -6.822 -22.507  0.00  0.00    +0.029 A 
ATOM     29  C   UNL     1      34.332  -8.701 -23.608  0.00  0.00    +0.032 C 
ATOM     30  C   UNL     1      33.627  -5.710 -22.827  0.00  0.00    +0.032 C 
ATOM     31  C   UNL     1      30.494  -5.708 -22.071  0.00  0.00    +0.049 C 
ATOM     32  H   UNL     1      29.925  -8.355 -22.476  0.00  0.00    +0.165 HD
ENDBRANCH  23  25
ENDBRANCH   3  23
TORSDOF 5
ENDMDL
MODEL 7
REMARK VINA RESULT:     -10.9      4.410      8.113
REMARK  Name = 17749728
REMARK  5 active torsions:
REMARK  status: ('A' for Active; 'I' for Inactive)
REMARK    1  A    between atoms: C_3  and  C_23
REMARK    2  A    between atoms: C_6  and  S_11
REMARK    3  A    between atoms: S_11  and  N_14
REMARK    4  A    between atoms: N_14  and  C_17
REMARK    5  A    between atoms: C_23  and  C_25
REMARK                            x       y       z     vdW  Elec       q    Type
REMARK                         _______ _______ _______ _____ _____    ______ ____
ROOT
ATOM      1  O   UNL     1      32.940 -20.052 -21.168  0.00  0.00    -0.210 OA
ATOM      2  N   UNL     1      32.687 -21.340 -19.242  0.00  0.00    -0.333 NA
ATOM      3  C   UNL     1      34.788 -20.434 -19.690  0.00  0.00    +0.081 C 
ATOM      4  C   UNL     1      34.890 -21.121 -18.551  0.00  0.00    +0.040 C 
ATOM      5  C   UNL     1      33.543 -21.660 -18.330  0.00  0.00    +0.145 C 
ATOM      6  C   UNL     1      35.691 -22.136 -16.553  0.00  0.00    +0.126 C 
ATOM      7  C   UNL     1      35.956 -21.382 -17.632  0.00  0.00    +0.023 C 
ATOM      8  C   UNL     1      33.378 -20.564 -20.150  0.00  0.00    +0.201 C 
ATOM      9  C   UNL     1      33.330 -22.484 -17.122  0.00  0.00    +0.034 C 
ATOM     10  C   UNL     1      34.372 -22.690 -16.300  0.00  0.00    +0.023 C 
ENDROOT
BRANCH   6  11
ATOM     11  S   UNL     1      36.989 -22.440 -15.465  0.00  0.00    +0.077 S 
ATOM     12  O   UNL     1      38.229 -22.472 -16.230  0.00  0.00    -0.150 OA
ATOM     13  O   UNL     1      36.883 -21.496 -14.358  0.00  0.00    -0.150 OA
BRANCH  11  14
ATOM     14  N   UNL     1      36.706 -24.035 -14.816  0.00  0.00    -0.189 N 
ATOM     15  C   UNL     1      37.861 -24.973 -14.837  0.00  0.00    +0.139 C 
BRANCH  14  17
ATOM     16 CL   UNL     1      31.972 -23.971 -12.756  0.00  0.00    -0.082 Cl
ATOM     17  C   UNL     1      35.873 -24.076 -13.631  0.00  0.00    +0.070 C 
ATOM     18  C   UNL     1      34.485 -24.012 -13.751  0.00  0.00    +0.028 C 
ATOM     19  C   UNL     1      36.461 -24.179 -12.370  0.00  0.00    +0.016 C 
ATOM     20  C   UNL     1      33.685 -24.052 -12.609  0.00  0.00    +0.059 C 
ATOM     21  C   UNL     1      35.661 -24.217 -11.229  0.00  0.00    +0.002 C 
ATOM     22  C   UNL     1      34.272 -24.153 -11.348  0.00  0.00    +0.011 C 
ENDBRANCH  14  17
ENDBRANCH  11  14
ENDBRANCH   6  11
BRANCH   3  23
ATOM     23  C   UNL     1      35.799 -19.659 -20.445  0.00  0.00    +0.082 C 
BRANCH  23  25
ATOM     24  N   UNL     1      34.975 -17.293 -20.608  0.00  0.00    -0.360 N 
ATOM     25  C   UNL     1      35.258 -18.483 -21.227  0.00  0.00    +0.034 A 
ATOM     26  C   UNL     1      34.961 -18.344 -22.565  0.00  0.00    -0.013 A 
ATOM     27  C   UNL     1      34.480 -17.024 -22.757  0.00  0.00    -0.013 A 
ATOM     28  C   UNL     1      34.500 -16.397 -21.531  0.00  0.00    +0.029 A 
ATOM     29  C   UNL     1      35.116 -19.381 -23.605  0.00  0.00    +0.032 C 
ATOM     30  C   UNL     1      34.041 -16.429 -24.035  0.00  0.00    +0.032 C 
ATOM     31  C   UNL     1      34.115 -15.029 -21.134  0.00  0.00    +0.049 C 
ATOM     32  H   UNL     1      35.093 -17.110 -19.648  0.00  0.00    +0.165 HD
ENDBRANCH  23  25
ENDBRANCH   3  23
TORSDOF 5
ENDMDL
MODEL 8
REMARK VINA RESULT:     -10.9      7.482     11.070
REMARK  Name = 17749728
REMARK  5 active torsions:
REMARK  status: ('A' for Active; 'I' for Inactive)
REMARK    1  A    between atoms: C_3  and  C_23
REMARK    2  A    between atoms: C_6  and  S_11
REMARK    3  A    between atoms: S_11  and  N_14
REMARK    4  A    between atoms: N_14  and  C_17
REMARK    5  A    between atoms: C_23  and  C_25
REMARK                            x       y       z     vdW  Elec       q    Type
REMARK                         _______ _______ _______ _____ _____    ______ ____
ROOT
ATOM      1  O   UNL     1      30.357 -22.089 -17.497  0.00  0.00    -0.210 OA
ATOM      2  N   UNL     1      30.472 -22.196 -15.171  0.00  0.00    -0.333 NA
ATOM      3  C   UNL     1      32.293 -22.979 -16.398  0.00  0.00    +0.081 C 
ATOM      4  C   UNL     1      32.589 -23.141 -15.108  0.00  0.00    +0.040 C 
ATOM      5  C   UNL     1      31.410 -22.633 -14.398  0.00  0.00    +0.145 C 
ATOM      6  C   UNL     1      33.673 -23.669 -13.056  0.00  0.00    +0.126 C 
ATOM      7  C   UNL     1      33.718 -23.661 -14.398  0.00  0.00    +0.023 C 
ATOM      8  C   UNL     1      30.936 -22.372 -16.459  0.00  0.00    +0.201 C 
ATOM      9  C   UNL     1      31.433 -22.678 -12.921  0.00  0.00    +0.034 C 
ATOM     10  C   UNL     1      32.524 -23.177 -12.317  0.00  0.00    +0.023 C 
ENDROOT
BRANCH   6  11
ATOM     11  S   UNL     1      35.040 -24.301 -12.225  0.00  0.00    +0.077 S 
ATOM     12  O   UNL     1      34.716 -24.386 -10.806  0.00  0.00    -0.150 OA
ATOM     13  O   UNL     1      35.465 -25.517 -12.910  0.00  0.00    -0.150 OA
BRANCH  11  14
ATOM     14  N   UNL     1      36.311 -23.122 -12.425  0.00  0.00    -0.189 N 
ATOM     15  C   UNL     1      36.826 -22.485 -11.183  0.00  0.00    +0.139 C 
BRANCH  14  17
ATOM     16 CL   UNL     1      40.416 -25.934 -13.804  0.00  0.00    -0.082 Cl
ATOM     17  C   UNL     1      37.302 -23.452 -13.430  0.00  0.00    +0.070 C 
ATOM     18  C   UNL     1      38.268 -24.421 -13.164  0.00  0.00    +0.028 C 
ATOM     19  C   UNL     1      37.289 -22.798 -14.662  0.00  0.00    +0.016 C 
ATOM     20  C   UNL     1      39.222 -24.738 -14.131  0.00  0.00    +0.059 C 
ATOM     21  C   UNL     1      38.243 -23.114 -15.628  0.00  0.00    +0.002 C 
ATOM     22  C   UNL     1      39.210 -24.084 -15.363  0.00  0.00    +0.011 C 
ENDBRANCH  14  17
ENDBRANCH  11  14
ENDBRANCH   6  11
BRANCH   3  23
ATOM     23  C   UNL     1      33.074 -23.297 -17.617  0.00  0.00    +0.082 C 
BRANCH  23  25
ATOM     24  N   UNL     1      32.381 -21.596 -19.328  0.00  0.00    -0.360 N 
ATOM     25  C   UNL     1      33.360 -22.123 -18.525  0.00  0.00    +0.034 A 
ATOM     26  C   UNL     1      34.513 -21.400 -18.735  0.00  0.00    -0.013 A 
ATOM     27  C   UNL     1      34.219 -20.404 -19.700  0.00  0.00    -0.013 A 
ATOM     28  C   UNL     1      32.894 -20.548 -20.048  0.00  0.00    +0.029 A 
ATOM     29  C   UNL     1      35.816 -21.623 -18.075  0.00  0.00    +0.032 C 
ATOM     30  C   UNL     1      35.157 -19.395 -20.233  0.00  0.00    +0.032 C 
ATOM     31  C   UNL     1      32.052 -19.795 -20.999  0.00  0.00    +0.049 C 
ATOM     32  H   UNL     1      31.454 -21.921 -19.381  0.00  0.00    +0.165 HD
ENDBRANCH  23  25
ENDBRANCH   3  23
TORSDOF 5
ENDMDL
MODEL 9
REMARK VINA RESULT:     -10.8      3.758     10.582
REMARK  Name = 17749728
REMARK  5 active torsions:
REMARK  status: ('A' for Active; 'I' for Inactive)
REMARK    1  A    between atoms: C_3  and  C_23
REMARK    2  A    between atoms: C_6  and  S_11
REMARK    3  A    between atoms: S_11  and  N_14
REMARK    4  A    between atoms: N_14  and  C_17
REMARK    5  A    between atoms: C_23  and  C_25
REMARK                            x       y       z     vdW  Elec       q    Type
REMARK                         _______ _______ _______ _____ _____    ______ ____
ROOT
ATOM      1  O   UNL     1      34.106 -23.626 -16.485  0.00  0.00    -0.210 OA
ATOM      2  N   UNL     1      33.084 -22.453 -18.220  0.00  0.00    -0.333 NA
ATOM      3  C   UNL     1      35.246 -21.838 -17.601  0.00  0.00    +0.081 C 
ATOM      4  C   UNL     1      34.879 -21.034 -18.601  0.00  0.00    +0.040 C 
ATOM      5  C   UNL     1      33.520 -21.472 -18.939  0.00  0.00    +0.145 C 
ATOM      6  C   UNL     1      34.825 -19.358 -20.290  0.00  0.00    +0.126 C 
ATOM      7  C   UNL     1      35.511 -19.959 -19.304  0.00  0.00    +0.023 C 
ATOM      8  C   UNL     1      34.104 -22.756 -17.342  0.00  0.00    +0.201 C 
ATOM      9  C   UNL     1      32.828 -20.760 -20.033  0.00  0.00    +0.034 C 
ATOM     10  C   UNL     1      33.477 -19.761 -20.653  0.00  0.00    +0.023 C 
ENDROOT
BRANCH   6  11
ATOM     11  S   UNL     1      35.603 -18.066 -21.118  0.00  0.00    +0.077 S 
ATOM     12  O   UNL     1      35.211 -16.814 -20.484  0.00  0.00    -0.150 OA
ATOM     13  O   UNL     1      37.025 -18.378 -21.210  0.00  0.00    -0.150 OA
BRANCH  11  14
ATOM     14  N   UNL     1      34.962 -18.082 -22.741  0.00  0.00    -0.189 N 
ATOM     15  C   UNL     1      34.231 -19.311 -23.153  0.00  0.00    +0.139 C 
BRANCH  14  17
ATOM     16 CL   UNL     1      33.851 -13.142 -21.728  0.00  0.00    -0.082 Cl
ATOM     17  C   UNL     1      34.397 -16.825 -23.189  0.00  0.00    +0.070 C 
ATOM     18  C   UNL     1      34.397 -15.718 -22.341  0.00  0.00    +0.028 C 
ATOM     19  C   UNL     1      33.853 -16.724 -24.470  0.00  0.00    +0.016 C 
ATOM     20  C   UNL     1      33.852 -14.509 -22.774  0.00  0.00    +0.059 C 
ATOM     21  C   UNL     1      33.307 -15.516 -24.902  0.00  0.00    +0.002 C 
ATOM     22  C   UNL     1      33.307 -14.407 -24.054  0.00  0.00    +0.011 C 
ENDBRANCH  14  17
ENDBRANCH  11  14
ENDBRANCH   6  11
BRANCH   3  23
ATOM     23  C   UNL     1      36.506 -21.901 -16.825  0.00  0.00    +0.082 C 
BRANCH  23  25
ATOM     24  N   UNL     1      35.308 -22.414 -14.679  0.00  0.00    -0.360 N 
ATOM     25  C   UNL     1      36.403 -22.592 -15.483  0.00  0.00    +0.034 A 
ATOM     26  C   UNL     1      37.267 -23.448 -14.837  0.00  0.00    -0.013 A 
ATOM     27  C   UNL     1      36.671 -23.796 -13.599  0.00  0.00    -0.013 A 
ATOM     28  C   UNL     1      35.460 -23.143 -13.528  0.00  0.00    +0.029 A 
ATOM     29  C   UNL     1      38.574 -23.916 -15.343  0.00  0.00    +0.032 C 
ATOM     30  C   UNL     1      37.239 -24.694 -12.574  0.00  0.00    +0.032 C 
ATOM     31  C   UNL     1      34.422 -23.133 -12.479  0.00  0.00    +0.049 C 
ATOM     32  H   UNL     1      34.531 -21.848 -14.894  0.00  0.00    +0.165 HD
ENDBRANCH  23  25
ENDBRANCH   3  23
TORSDOF 5
ENDMDL
