MODEL 1
REMARK VINA RESULT:     -11.6      0.000      0.000
REMARK  Name = 5288215
REMARK  8 active torsions:
REMARK  status: ('A' for Active; 'I' for Inactive)
REMARK    1  A    between atoms: N_2  and  C_5
REMARK    2  A    between atoms: C_3  and  C_18
REMARK    3  A    between atoms: C_7  and  C_14
REMARK    4  A    between atoms: C_9  and  N_17
REMARK    5  A    between atoms: C_18  and  O_20
REMARK    6  A    between atoms: C_18  and  C_22
REMARK    7  A    between atoms: C_22  and  O_23
REMARK    8  A    between atoms: O_23  and  C_25
REMARK                            x       y       z     vdW  Elec       q    Type
REMARK                         _______ _______ _______ _____ _____    ______ ____
ROOT
ATOM      1  O   UNL     1      33.177 -19.298 -20.864  0.00  0.00    -0.272 OA
ATOM      2  N   UNL     1      35.322 -20.064 -20.325  0.00  0.00    -0.282 N 
ATOM      3  C   UNL     1      34.385 -19.366 -21.079  0.00  0.00    +0.254 C 
ATOM      4  H   UNL     1      36.254 -20.013 -20.637  0.00  0.00    +0.155 HD
ENDROOT
BRANCH   2   5
ATOM      5  C   UNL     1      35.093 -20.839 -19.163  0.00  0.00    +0.050 C 
ATOM      6  C   UNL     1      36.071 -20.896 -18.184  0.00  0.00    +0.020 C 
ATOM      7  C   UNL     1      35.845 -21.661 -17.039  0.00  0.00    +0.095 C 
ATOM      8  C   UNL     1      33.897 -21.524 -19.031  0.00  0.00    +0.016 C 
ATOM      9  C   UNL     1      34.646 -22.357 -16.891  0.00  0.00    +0.147 C 
ATOM     10  C   UNL     1      33.672 -22.289 -17.886  0.00  0.00    +0.025 C 
BRANCH   7  14
ATOM     11  F   UNL     1      36.425 -21.638 -14.718  0.00  0.00    -0.166 F 
ATOM     12  F   UNL     1      37.648 -22.862 -16.026  0.00  0.00    -0.166 F 
ATOM     13  F   UNL     1      37.808 -20.696 -16.106  0.00  0.00    -0.166 F 
ATOM     14  C   UNL     1      36.910 -21.715 -15.992  0.00  0.00    +0.420 C 
ENDBRANCH   7  14
BRANCH   9  17
ATOM     15  O   UNL     1      34.903 -24.288 -15.656  0.00  0.00    -0.126 OA
ATOM     16  O   UNL     1      33.675 -22.670 -14.822  0.00  0.00    -0.126 OA
ATOM     17  N   UNL     1      34.395 -23.144 -15.733  0.00  0.00    +0.058 N 
ENDBRANCH   9  17
ENDBRANCH   2   5
BRANCH   3  18
ATOM     18  C   UNL     1      35.011 -18.634 -22.282  0.00  0.00    +0.197 C 
ATOM     19  C   UNL     1      36.495 -18.354 -22.039  0.00  0.00    +0.043 C 
BRANCH  18  20
ATOM     20  O   UNL     1      34.911 -19.502 -23.412  0.00  0.00    -0.375 OA
ATOM     21  H   UNL     1      34.674 -20.394 -23.115  0.00  0.00    +0.211 HD
ENDBRANCH  18  20
BRANCH  18  22
ATOM     22  C   UNL     1      34.266 -17.341 -22.636  0.00  0.00    +0.241 C 
BRANCH  22  23
ATOM     23  O   UNL     1      34.885 -16.213 -22.024  0.00  0.00    -0.472 OA
BRANCH  23  25
ATOM     24  F   UNL     1      32.080 -11.495 -22.155  0.00  0.00    -0.204 F 
ATOM     25  C   UNL     1      34.185 -15.036 -22.056  0.00  0.00    +0.139 C 
ATOM     26  C   UNL     1      33.769 -14.449 -20.866  0.00  0.00    +0.039 C 
ATOM     27  C   UNL     1      33.898 -14.438 -23.279  0.00  0.00    +0.039 C 
ATOM     28  C   UNL     1      33.055 -13.250 -20.899  0.00  0.00    +0.033 C 
ATOM     29  C   UNL     1      33.186 -13.240 -23.311  0.00  0.00    +0.033 C 
ATOM     30  C   UNL     1      32.764 -12.646 -22.122  0.00  0.00    +0.140 C 
ENDBRANCH  23  25
ENDBRANCH  22  23
ENDBRANCH  18  22
ENDBRANCH   3  18
TORSDOF 8
ENDMDL
MODEL 2
REMARK VINA RESULT:     -11.1      3.857      5.198
REMARK  Name = 5288215
REMARK  8 active torsions:
REMARK  status: ('A' for Active; 'I' for Inactive)
REMARK    1  A    between atoms: N_2  and  C_5
REMARK    2  A    between atoms: C_3  and  C_18
REMARK    3  A    between atoms: C_7  and  C_14
REMARK    4  A    between atoms: C_9  and  N_17
REMARK    5  A    between atoms: C_18  and  O_20
REMARK    6  A    between atoms: C_18  and  C_22
REMARK    7  A    between atoms: C_22  and  O_23
REMARK    8  A    between atoms: O_23  and  C_25
REMARK                            x       y       z     vdW  Elec       q    Type
REMARK                         _______ _______ _______ _____ _____    ______ ____
ROOT
ATOM      1  O   UNL     1      32.132 -21.072 -18.703  0.00  0.00    -0.272 OA
ATOM      2  N   UNL     1      33.594 -22.363 -17.409  0.00  0.00    -0.282 N 
ATOM      3  C   UNL     1      33.233 -21.578 -18.499  0.00  0.00    +0.254 C 
ATOM      4  H   UNL     1      34.522 -22.691 -17.400  0.00  0.00    +0.155 HD
ENDROOT
BRANCH   2   5
ATOM      5  C   UNL     1      32.785 -22.746 -16.312  0.00  0.00    +0.050 C 
ATOM      6  C   UNL     1      31.422 -22.507 -16.361  0.00  0.00    +0.020 C 
ATOM      7  C   UNL     1      30.625 -22.883 -15.279  0.00  0.00    +0.095 C 
ATOM      8  C   UNL     1      33.375 -23.350 -15.215  0.00  0.00    +0.016 C 
ATOM      9  C   UNL     1      31.204 -23.492 -14.165  0.00  0.00    +0.147 C 
ATOM     10  C   UNL     1      32.579 -23.726 -14.133  0.00  0.00    +0.025 C 
BRANCH   7  14
ATOM     11  F   UNL     1      28.393 -23.742 -15.217  0.00  0.00    -0.166 F 
ATOM     12  F   UNL     1      28.713 -21.773 -14.367  0.00  0.00    -0.166 F 
ATOM     13  F   UNL     1      28.779 -22.047 -16.522  0.00  0.00    -0.166 F 
ATOM     14  C   UNL     1      29.156 -22.617 -15.343  0.00  0.00    +0.420 C 
ENDBRANCH   7  14
BRANCH   9  17
ATOM     15  O   UNL     1      30.329 -23.112 -12.066  0.00  0.00    -0.126 OA
ATOM     16  O   UNL     1      29.818 -24.987 -13.087  0.00  0.00    -0.126 OA
ATOM     17  N   UNL     1      30.411 -23.883 -13.051  0.00  0.00    +0.058 N 
ENDBRANCH   9  17
ENDBRANCH   2   5
BRANCH   3  18
ATOM     18  C   UNL     1      34.388 -21.375 -19.498  0.00  0.00    +0.197 C 
ATOM     19  C   UNL     1      35.663 -20.932 -18.777  0.00  0.00    +0.043 C 
BRANCH  18  20
ATOM     20  O   UNL     1      34.652 -22.636 -20.112  0.00  0.00    -0.375 OA
ATOM     21  H   UNL     1      33.920 -22.867 -20.706  0.00  0.00    +0.211 HD
ENDBRANCH  18  20
BRANCH  18  22
ATOM     22  C   UNL     1      34.030 -20.391 -20.618  0.00  0.00    +0.241 C 
BRANCH  22  23
ATOM     23  O   UNL     1      34.828 -19.214 -20.537  0.00  0.00    -0.472 OA
BRANCH  23  25
ATOM     24  F   UNL     1      34.055 -15.436 -24.446  0.00  0.00    -0.204 F 
ATOM     25  C   UNL     1      34.635 -18.272 -21.513  0.00  0.00    +0.139 C 
ATOM     26  C   UNL     1      34.240 -18.669 -22.786  0.00  0.00    +0.039 C 
ATOM     27  C   UNL     1      34.835 -16.927 -21.221  0.00  0.00    +0.039 C 
ATOM     28  C   UNL     1      34.044 -17.709 -23.780  0.00  0.00    +0.033 C 
ATOM     29  C   UNL     1      34.638 -15.968 -22.214  0.00  0.00    +0.033 C 
ATOM     30  C   UNL     1      34.243 -16.358 -23.493  0.00  0.00    +0.140 C 
ENDBRANCH  23  25
ENDBRANCH  22  23
ENDBRANCH  18  22
ENDBRANCH   3  18
TORSDOF 8
ENDMDL
MODEL 3
REMARK VINA RESULT:     -11.1      1.749      2.515
REMARK  Name = 5288215
REMARK  8 active torsions:
REMARK  status: ('A' for Active; 'I' for Inactive)
REMARK    1  A    between atoms: N_2  and  C_5
REMARK    2  A    between atoms: C_3  and  C_18
REMARK    3  A    between atoms: C_7  and  C_14
REMARK    4  A    between atoms: C_9  and  N_17
REMARK    5  A    between atoms: C_18  and  O_20
REMARK    6  A    between atoms: C_18  and  C_22
REMARK    7  A    between atoms: C_22  and  O_23
REMARK    8  A    between atoms: O_23  and  C_25
REMARK                            x       y       z     vdW  Elec       q    Type
REMARK                         _______ _______ _______ _____ _____    ______ ____
ROOT
ATOM      1  O   UNL     1      33.320 -19.548 -20.684  0.00  0.00    -0.272 OA
ATOM      2  N   UNL     1      35.542 -19.990 -20.096  0.00  0.00    -0.282 N 
ATOM      3  C   UNL     1      34.529 -19.447 -20.879  0.00  0.00    +0.254 C 
ATOM      4  H   UNL     1      36.463 -19.813 -20.395  0.00  0.00    +0.155 HD
ENDROOT
BRANCH   2   5
ATOM      5  C   UNL     1      35.405 -20.767 -18.921  0.00  0.00    +0.050 C 
ATOM      6  C   UNL     1      34.180 -21.343 -18.629  0.00  0.00    +0.020 C 
ATOM      7  C   UNL     1      34.046 -22.107 -17.470  0.00  0.00    +0.095 C 
ATOM      8  C   UNL     1      36.499 -20.932 -18.088  0.00  0.00    +0.016 C 
ATOM      9  C   UNL     1      35.138 -22.283 -16.619  0.00  0.00    +0.147 C 
ATOM     10  C   UNL     1      36.364 -21.696 -16.929  0.00  0.00    +0.025 C 
BRANCH   7  14
ATOM     11  F   UNL     1      32.647 -24.049 -17.481  0.00  0.00    -0.166 F 
ATOM     12  F   UNL     1      32.374 -22.649 -15.848  0.00  0.00    -0.166 F 
ATOM     13  F   UNL     1      31.698 -22.127 -17.847  0.00  0.00    -0.166 F 
ATOM     14  C   UNL     1      32.718 -22.722 -17.166  0.00  0.00    +0.420 C 
ENDBRANCH   7  14
BRANCH   9  17
ATOM     15  O   UNL     1      34.887 -22.467 -14.335  0.00  0.00    -0.126 OA
ATOM     16  O   UNL     1      35.061 -24.308 -15.518  0.00  0.00    -0.126 OA
ATOM     17  N   UNL     1      35.023 -23.058 -15.432  0.00  0.00    +0.058 N 
ENDBRANCH   9  17
ENDBRANCH   2   5
BRANCH   3  18
ATOM     18  C   UNL     1      35.066 -18.658 -22.089  0.00  0.00    +0.197 C 
ATOM     19  C   UNL     1      36.537 -18.287 -21.889  0.00  0.00    +0.043 C 
BRANCH  18  20
ATOM     20  O   UNL     1      34.984 -19.511 -23.230  0.00  0.00    -0.375 OA
ATOM     21  H   UNL     1      35.347 -20.383 -23.010  0.00  0.00    +0.211 HD
ENDBRANCH  18  20
BRANCH  18  22
ATOM     22  C   UNL     1      34.230 -17.409 -22.394  0.00  0.00    +0.241 C 
BRANCH  22  23
ATOM     23  O   UNL     1      34.917 -16.226 -21.998  0.00  0.00    -0.472 OA
BRANCH  23  25
ATOM     24  F   UNL     1      32.008 -11.569 -22.002  0.00  0.00    -0.204 F 
ATOM     25  C   UNL     1      34.192 -15.064 -22.000  0.00  0.00    +0.139 C 
ATOM     26  C   UNL     1      33.875 -14.450 -23.207  0.00  0.00    +0.039 C 
ATOM     27  C   UNL     1      33.777 -14.509 -20.794  0.00  0.00    +0.039 C 
ATOM     28  C   UNL     1      33.137 -13.266 -23.208  0.00  0.00    +0.033 C 
ATOM     29  C   UNL     1      33.038 -13.327 -20.795  0.00  0.00    +0.033 C 
ATOM     30  C   UNL     1      32.718 -12.705 -22.002  0.00  0.00    +0.140 C 
ENDBRANCH  23  25
ENDBRANCH  22  23
ENDBRANCH  18  22
ENDBRANCH   3  18
TORSDOF 8
ENDMDL
MODEL 4
REMARK VINA RESULT:     -10.8      5.010      7.216
REMARK  Name = 5288215
REMARK  8 active torsions:
REMARK  status: ('A' for Active; 'I' for Inactive)
REMARK    1  A    between atoms: N_2  and  C_5
REMARK    2  A    between atoms: C_3  and  C_18
REMARK    3  A    between atoms: C_7  and  C_14
REMARK    4  A    between atoms: C_9  and  N_17
REMARK    5  A    between atoms: C_18  and  O_20
REMARK    6  A    between atoms: C_18  and  C_22
REMARK    7  A    between atoms: C_22  and  O_23
REMARK    8  A    between atoms: O_23  and  C_25
REMARK                            x       y       z     vdW  Elec       q    Type
REMARK                         _______ _______ _______ _____ _____    ______ ____
ROOT
ATOM      1  O   UNL     1      32.991 -24.702 -14.302  0.00  0.00    -0.272 OA
ATOM      2  N   UNL     1      34.168 -22.785 -14.948  0.00  0.00    -0.282 N 
ATOM      3  C   UNL     1      33.028 -23.525 -14.656  0.00  0.00    +0.254 C 
ATOM      4  H   UNL     1      34.020 -21.850 -15.218  0.00  0.00    +0.155 HD
ENDROOT
BRANCH   2   5
ATOM      5  C   UNL     1      35.515 -23.217 -14.905  0.00  0.00    +0.050 C 
ATOM      6  C   UNL     1      35.843 -24.341 -14.165  0.00  0.00    +0.020 C 
ATOM      7  C   UNL     1      37.171 -24.765 -14.122  0.00  0.00    +0.095 C 
ATOM      8  C   UNL     1      36.477 -22.505 -15.602  0.00  0.00    +0.016 C 
ATOM      9  C   UNL     1      38.152 -24.059 -14.818  0.00  0.00    +0.147 C 
ATOM     10  C   UNL     1      37.805 -22.930 -15.559  0.00  0.00    +0.025 C 
BRANCH   7  14
ATOM     11  F   UNL     1      37.812 -27.070 -14.080  0.00  0.00    -0.166 F 
ATOM     12  F   UNL     1      38.588 -25.804 -12.500  0.00  0.00    -0.166 F 
ATOM     13  F   UNL     1      36.489 -26.369 -12.504  0.00  0.00    -0.166 F 
ATOM     14  C   UNL     1      37.510 -25.978 -13.318  0.00  0.00    +0.420 C 
ENDBRANCH   7  14
BRANCH   9  17
ATOM     15  O   UNL     1      40.283 -23.957 -13.945  0.00  0.00    -0.126 OA
ATOM     16  O   UNL     1      39.900 -25.343 -15.604  0.00  0.00    -0.126 OA
ATOM     17  N   UNL     1      39.512 -24.473 -14.788  0.00  0.00    +0.058 N 
ENDBRANCH   9  17
ENDBRANCH   2   5
BRANCH   3  18
ATOM     18  C   UNL     1      31.729 -22.712 -14.816  0.00  0.00    +0.197 C 
ATOM     19  C   UNL     1      30.524 -23.501 -14.300  0.00  0.00    +0.043 C 
BRANCH  18  20
ATOM     20  O   UNL     1      31.856 -21.537 -14.016  0.00  0.00    -0.375 OA
ATOM     21  H   UNL     1      32.291 -21.761 -13.179  0.00  0.00    +0.211 HD
ENDBRANCH  18  20
BRANCH  18  22
ATOM     22  C   UNL     1      31.498 -22.254 -16.262  0.00  0.00    +0.241 C 
BRANCH  22  23
ATOM     23  O   UNL     1      32.470 -22.818 -17.137  0.00  0.00    -0.472 OA
BRANCH  23  25
ATOM     24  F   UNL     1      34.472 -19.522 -21.046  0.00  0.00    -0.204 F 
ATOM     25  C   UNL     1      32.968 -21.995 -18.113  0.00  0.00    +0.139 C 
ATOM     26  C   UNL     1      32.104 -21.184 -18.840  0.00  0.00    +0.039 C 
ATOM     27  C   UNL     1      34.336 -21.978 -18.366  0.00  0.00    +0.039 C 
ATOM     28  C   UNL     1      32.613 -20.347 -19.834  0.00  0.00    +0.033 C 
ATOM     29  C   UNL     1      34.844 -21.140 -19.358  0.00  0.00    +0.033 C 
ATOM     30  C   UNL     1      33.983 -20.325 -20.093  0.00  0.00    +0.140 C 
ENDBRANCH  23  25
ENDBRANCH  22  23
ENDBRANCH  18  22
ENDBRANCH   3  18
TORSDOF 8
ENDMDL
MODEL 5
REMARK VINA RESULT:     -10.7      3.755     10.118
REMARK  Name = 5288215
REMARK  8 active torsions:
REMARK  status: ('A' for Active; 'I' for Inactive)
REMARK    1  A    between atoms: N_2  and  C_5
REMARK    2  A    between atoms: C_3  and  C_18
REMARK    3  A    between atoms: C_7  and  C_14
REMARK    4  A    between atoms: C_9  and  N_17
REMARK    5  A    between atoms: C_18  and  O_20
REMARK    6  A    between atoms: C_18  and  C_22
REMARK    7  A    between atoms: C_22  and  O_23
REMARK    8  A    between atoms: O_23  and  C_25
REMARK                            x       y       z     vdW  Elec       q    Type
REMARK                         _______ _______ _______ _____ _____    ______ ____
ROOT
ATOM      1  O   UNL     1      34.408 -15.228 -20.967  0.00  0.00    -0.272 OA
ATOM      2  N   UNL     1      33.673 -14.814 -23.150  0.00  0.00    -0.282 N 
ATOM      3  C   UNL     1      34.200 -15.589 -22.123  0.00  0.00    +0.254 C 
ATOM      4  H   UNL     1      33.569 -15.261 -24.022  0.00  0.00    +0.155 HD
ENDROOT
BRANCH   2   5
ATOM      5  C   UNL     1      33.268 -13.459 -23.091  0.00  0.00    +0.050 C 
ATOM      6  C   UNL     1      32.587 -13.003 -21.975  0.00  0.00    +0.020 C 
ATOM      7  C   UNL     1      32.187 -11.668 -21.918  0.00  0.00    +0.095 C 
ATOM      8  C   UNL     1      33.560 -12.619 -24.153  0.00  0.00    +0.016 C 
ATOM      9  C   UNL     1      32.473 -10.809 -22.979  0.00  0.00    +0.147 C 
ATOM     10  C   UNL     1      33.160 -11.283 -24.096  0.00  0.00    +0.025 C 
BRANCH   7  14
ATOM     11  F   UNL     1      30.114 -11.020 -20.915  0.00  0.00    -0.166 F 
ATOM     12  F   UNL     1      31.545 -12.041 -19.645  0.00  0.00    -0.166 F 
ATOM     13  F   UNL     1      31.911  -9.988 -20.259  0.00  0.00    -0.166 F 
ATOM     14  C   UNL     1      31.452 -11.190 -20.708  0.00  0.00    +0.420 C 
ENDBRANCH   7  14
BRANCH   9  17
ATOM     15  O   UNL     1      30.859  -9.165 -23.072  0.00  0.00    -0.126 OA
ATOM     16  O   UNL     1      32.950  -8.560 -22.782  0.00  0.00    -0.126 OA
ATOM     17  N   UNL     1      32.075  -9.444 -22.943  0.00  0.00    +0.058 N 
ENDBRANCH   9  17
ENDBRANCH   2   5
BRANCH   3  18
ATOM     18  C   UNL     1      34.524 -17.028 -22.567  0.00  0.00    +0.197 C 
ATOM     19  C   UNL     1      34.075 -17.270 -24.010  0.00  0.00    +0.043 C 
BRANCH  18  20
ATOM     20  O   UNL     1      35.942 -17.183 -22.521  0.00  0.00    -0.375 OA
ATOM     21  H   UNL     1      36.200 -17.552 -21.662  0.00  0.00    +0.211 HD
ENDBRANCH  18  20
BRANCH  18  22
ATOM     22  C   UNL     1      33.922 -18.082 -21.629  0.00  0.00    +0.241 C 
BRANCH  22  23
ATOM     23  O   UNL     1      34.916 -19.008 -21.198  0.00  0.00    -0.472 OA
BRANCH  23  25
ATOM     24  F   UNL     1      33.345 -22.784 -17.534  0.00  0.00    -0.204 F 
ATOM     25  C   UNL     1      34.522 -19.950 -20.284  0.00  0.00    +0.139 C 
ATOM     26  C   UNL     1      33.169 -20.199 -20.089  0.00  0.00    +0.039 C 
ATOM     27  C   UNL     1      35.483 -20.649 -19.560  0.00  0.00    +0.039 C 
ATOM     28  C   UNL     1      32.770 -21.158 -19.157  0.00  0.00    +0.033 C 
ATOM     29  C   UNL     1      35.084 -21.609 -18.630  0.00  0.00    +0.033 C 
ATOM     30  C   UNL     1      33.727 -21.863 -18.428  0.00  0.00    +0.140 C 
ENDBRANCH  23  25
ENDBRANCH  22  23
ENDBRANCH  18  22
ENDBRANCH   3  18
TORSDOF 8
ENDMDL
MODEL 6
REMARK VINA RESULT:     -10.6      3.166      9.824
REMARK  Name = 5288215
REMARK  8 active torsions:
REMARK  status: ('A' for Active; 'I' for Inactive)
REMARK    1  A    between atoms: N_2  and  C_5
REMARK    2  A    between atoms: C_3  and  C_18
REMARK    3  A    between atoms: C_7  and  C_14
REMARK    4  A    between atoms: C_9  and  N_17
REMARK    5  A    between atoms: C_18  and  O_20
REMARK    6  A    between atoms: C_18  and  C_22
REMARK    7  A    between atoms: C_22  and  O_23
REMARK    8  A    between atoms: O_23  and  C_25
REMARK                            x       y       z     vdW  Elec       q    Type
REMARK                         _______ _______ _______ _____ _____    ______ ____
ROOT
ATOM      1  O   UNL     1      34.967 -16.819 -20.161  0.00  0.00    -0.272 OA
ATOM      2  N   UNL     1      34.900 -16.402 -22.463  0.00  0.00    -0.282 N 
ATOM      3  C   UNL     1      35.213 -17.134 -21.323  0.00  0.00    +0.254 C 
ATOM      4  H   UNL     1      35.170 -16.800 -23.322  0.00  0.00    +0.155 HD
ENDROOT
BRANCH   2   5
ATOM      5  C   UNL     1      34.240 -15.152 -22.534  0.00  0.00    +0.050 C 
ATOM      6  C   UNL     1      33.857 -14.657 -23.769  0.00  0.00    +0.020 C 
ATOM      7  C   UNL     1      33.208 -13.424 -23.838  0.00  0.00    +0.095 C 
ATOM      8  C   UNL     1      33.992 -14.451 -21.366  0.00  0.00    +0.016 C 
ATOM      9  C   UNL     1      32.951 -12.705 -22.671  0.00  0.00    +0.147 C 
ATOM     10  C   UNL     1      33.342 -13.218 -21.435  0.00  0.00    +0.025 C 
BRANCH   7  14
ATOM     11  F   UNL     1      33.512 -11.804 -25.572  0.00  0.00    -0.166 F 
ATOM     12  F   UNL     1      32.958 -13.809 -26.185  0.00  0.00    -0.166 F 
ATOM     13  F   UNL     1      31.492 -12.527 -25.219  0.00  0.00    -0.166 F 
ATOM     14  C   UNL     1      32.802 -12.901 -25.178  0.00  0.00    +0.420 C 
ENDBRANCH   7  14
BRANCH   9  17
ATOM     15  O   UNL     1      32.915 -10.451 -23.156  0.00  0.00    -0.126 OA
ATOM     16  O   UNL     1      31.104 -11.368 -22.321  0.00  0.00    -0.126 OA
ATOM     17  N   UNL     1      32.290 -11.446 -22.718  0.00  0.00    +0.058 N 
ENDBRANCH   9  17
ENDBRANCH   2   5
BRANCH   3  18
ATOM     18  C   UNL     1      35.939 -18.456 -21.642  0.00  0.00    +0.197 C 
ATOM     19  C   UNL     1      35.342 -19.120 -22.885  0.00  0.00    +0.043 C 
BRANCH  18  20
ATOM     20  O   UNL     1      37.301 -18.140 -21.930  0.00  0.00    -0.375 OA
ATOM     21  H   UNL     1      37.444 -18.167 -22.888  0.00  0.00    +0.211 HD
ENDBRANCH  18  20
BRANCH  18  22
ATOM     22  C   UNL     1      35.938 -19.428 -20.456  0.00  0.00    +0.241 C 
BRANCH  22  23
ATOM     23  O   UNL     1      34.795 -20.277 -20.494  0.00  0.00    -0.472 OA
BRANCH  23  25
ATOM     24  F   UNL     1      33.699 -23.127 -15.930  0.00  0.00    -0.204 F 
ATOM     25  C   UNL     1      34.520 -20.988 -19.355  0.00  0.00    +0.139 C 
ATOM     26  C   UNL     1      33.234 -21.469 -19.135  0.00  0.00    +0.039 C 
ATOM     27  C   UNL     1      35.532 -21.223 -18.430  0.00  0.00    +0.039 C 
ATOM     28  C   UNL     1      32.956 -22.192 -17.975  0.00  0.00    +0.033 C 
ATOM     29  C   UNL     1      35.253 -21.948 -17.271  0.00  0.00    +0.033 C 
ATOM     30  C   UNL     1      33.965 -22.432 -17.043  0.00  0.00    +0.140 C 
ENDBRANCH  23  25
ENDBRANCH  22  23
ENDBRANCH  18  22
ENDBRANCH   3  18
TORSDOF 8
ENDMDL
MODEL 7
REMARK VINA RESULT:     -10.5      6.746     12.983
REMARK  Name = 5288215
REMARK  8 active torsions:
REMARK  status: ('A' for Active; 'I' for Inactive)
REMARK    1  A    between atoms: N_2  and  C_5
REMARK    2  A    between atoms: C_3  and  C_18
REMARK    3  A    between atoms: C_7  and  C_14
REMARK    4  A    between atoms: C_9  and  N_17
REMARK    5  A    between atoms: C_18  and  O_20
REMARK    6  A    between atoms: C_18  and  C_22
REMARK    7  A    between atoms: C_22  and  O_23
REMARK    8  A    between atoms: O_23  and  C_25
REMARK                            x       y       z     vdW  Elec       q    Type
REMARK                         _______ _______ _______ _____ _____    ______ ____
ROOT
ATOM      1  O   UNL     1      33.546 -10.593 -23.485  0.00  0.00    -0.272 OA
ATOM      2  N   UNL     1      31.592 -10.087 -22.300  0.00  0.00    -0.282 N 
ATOM      3  C   UNL     1      32.600 -10.921 -22.772  0.00  0.00    +0.254 C 
ATOM      4  H   UNL     1      30.906 -10.512 -21.736  0.00  0.00    +0.155 HD
ENDROOT
BRANCH   2   5
ATOM      5  C   UNL     1      31.436  -8.700 -22.534  0.00  0.00    +0.050 C 
ATOM      6  C   UNL     1      31.517  -7.820 -21.467  0.00  0.00    +0.020 C 
ATOM      7  C   UNL     1      31.362  -6.453 -21.699  0.00  0.00    +0.095 C 
ATOM      8  C   UNL     1      31.205  -8.253 -23.824  0.00  0.00    +0.016 C 
ATOM      9  C   UNL     1      31.128  -5.987 -22.993  0.00  0.00    +0.147 C 
ATOM     10  C   UNL     1      31.050  -6.886 -24.055  0.00  0.00    +0.025 C 
BRANCH   7  14
ATOM     11  F   UNL     1      31.929  -6.097 -19.402  0.00  0.00    -0.166 F 
ATOM     12  F   UNL     1      32.267  -4.446 -20.766  0.00  0.00    -0.166 F 
ATOM     13  F   UNL     1      30.239  -4.987 -20.201  0.00  0.00    -0.166 F 
ATOM     14  C   UNL     1      31.449  -5.515 -20.539  0.00  0.00    +0.420 C 
ENDBRANCH   7  14
BRANCH   9  17
ATOM     15  O   UNL     1      29.862  -4.059 -23.000  0.00  0.00    -0.126 OA
ATOM     16  O   UNL     1      31.932  -3.952 -23.724  0.00  0.00    -0.126 OA
ATOM     17  N   UNL     1      30.966  -4.597 -23.252  0.00  0.00    +0.058 N 
ENDBRANCH   9  17
ENDBRANCH   2   5
BRANCH   3  18
ATOM     18  C   UNL     1      32.436 -12.380 -22.306  0.00  0.00    +0.197 C 
ATOM     19  C   UNL     1      31.569 -12.458 -21.047  0.00  0.00    +0.043 C 
BRANCH  18  20
ATOM     20  O   UNL     1      31.760 -13.089 -23.344  0.00  0.00    -0.375 OA
ATOM     21  H   UNL     1      30.802 -13.009 -23.221  0.00  0.00    +0.211 HD
ENDBRANCH  18  20
BRANCH  18  22
ATOM     22  C   UNL     1      33.782 -13.080 -22.080  0.00  0.00    +0.241 C 
BRANCH  22  23
ATOM     23  O   UNL     1      34.186 -13.797 -23.243  0.00  0.00    -0.472 OA
BRANCH  23  25
ATOM     24  F   UNL     1      34.368 -19.268 -22.819  0.00  0.00    -0.204 F 
ATOM     25  C   UNL     1      34.230 -15.162 -23.138  0.00  0.00    +0.139 C 
ATOM     26  C   UNL     1      33.899 -15.949 -24.236  0.00  0.00    +0.039 C 
ATOM     27  C   UNL     1      34.609 -15.748 -21.935  0.00  0.00    +0.039 C 
ATOM     28  C   UNL     1      33.945 -17.340 -24.128  0.00  0.00    +0.033 C 
ATOM     29  C   UNL     1      34.655 -17.138 -21.828  0.00  0.00    +0.033 C 
ATOM     30  C   UNL     1      34.323 -17.934 -22.924  0.00  0.00    +0.140 C 
ENDBRANCH  23  25
ENDBRANCH  22  23
ENDBRANCH  18  22
ENDBRANCH   3  18
TORSDOF 8
ENDMDL
MODEL 8
REMARK VINA RESULT:     -10.5      2.921      4.633
REMARK  Name = 5288215
REMARK  8 active torsions:
REMARK  status: ('A' for Active; 'I' for Inactive)
REMARK    1  A    between atoms: N_2  and  C_5
REMARK    2  A    between atoms: C_3  and  C_18
REMARK    3  A    between atoms: C_7  and  C_14
REMARK    4  A    between atoms: C_9  and  N_17
REMARK    5  A    between atoms: C_18  and  O_20
REMARK    6  A    between atoms: C_18  and  C_22
REMARK    7  A    between atoms: C_22  and  O_23
REMARK    8  A    between atoms: O_23  and  C_25
REMARK                            x       y       z     vdW  Elec       q    Type
REMARK                         _______ _______ _______ _____ _____    ______ ____
ROOT
ATOM      1  O   UNL     1      36.105 -21.270 -17.459  0.00  0.00    -0.272 OA
ATOM      2  N   UNL     1      34.383 -22.664 -16.704  0.00  0.00    -0.282 N 
ATOM      3  C   UNL     1      35.020 -21.826 -17.613  0.00  0.00    +0.254 C 
ATOM      4  H   UNL     1      33.513 -23.029 -16.987  0.00  0.00    +0.155 HD
ENDROOT
BRANCH   2   5
ATOM      5  C   UNL     1      34.837 -23.054 -15.422  0.00  0.00    +0.050 C 
ATOM      6  C   UNL     1      36.141 -23.495 -15.270  0.00  0.00    +0.020 C 
ATOM      7  C   UNL     1      36.588 -23.880 -14.005  0.00  0.00    +0.095 C 
ATOM      8  C   UNL     1      33.967 -22.987 -14.347  0.00  0.00    +0.016 C 
ATOM      9  C   UNL     1      35.723 -23.819 -12.912  0.00  0.00    +0.147 C 
ATOM     10  C   UNL     1      34.413 -23.372 -13.083  0.00  0.00    +0.025 C 
BRANCH   7  14
ATOM     11  F   UNL     1      38.795 -24.035 -14.916  0.00  0.00    -0.166 F 
ATOM     12  F   UNL     1      38.630 -23.841 -12.763  0.00  0.00    -0.166 F 
ATOM     13  F   UNL     1      38.080 -25.709 -13.728  0.00  0.00    -0.166 F 
ATOM     14  C   UNL     1      37.996 -24.355 -13.856  0.00  0.00    +0.420 C 
ENDBRANCH   7  14
BRANCH   9  17
ATOM     15  O   UNL     1      36.528 -23.320 -10.810  0.00  0.00    -0.126 OA
ATOM     16  O   UNL     1      36.154 -25.424 -11.313  0.00  0.00    -0.126 OA
ATOM     17  N   UNL     1      36.157 -24.207 -11.615  0.00  0.00    +0.058 N 
ENDBRANCH   9  17
ENDBRANCH   2   5
BRANCH   3  18
ATOM     18  C   UNL     1      34.216 -21.632 -18.913  0.00  0.00    +0.197 C 
ATOM     19  C   UNL     1      33.747 -22.978 -19.471  0.00  0.00    +0.043 C 
BRANCH  18  20
ATOM     20  O   UNL     1      33.055 -20.867 -18.590  0.00  0.00    -0.375 OA
ATOM     21  H   UNL     1      32.267 -21.428 -18.663  0.00  0.00    +0.211 HD
ENDBRANCH  18  20
BRANCH  18  22
ATOM     22  C   UNL     1      34.996 -20.847 -19.975  0.00  0.00    +0.241 C 
BRANCH  22  23
ATOM     23  O   UNL     1      34.771 -19.447 -19.841  0.00  0.00    -0.472 OA
BRANCH  23  25
ATOM     24  F   UNL     1      34.204 -16.591 -24.497  0.00  0.00    -0.204 F 
ATOM     25  C   UNL     1      34.630 -18.733 -21.002  0.00  0.00    +0.139 C 
ATOM     26  C   UNL     1      35.007 -17.395 -21.040  0.00  0.00    +0.039 C 
ATOM     27  C   UNL     1      34.111 -19.355 -22.133  0.00  0.00    +0.039 C 
ATOM     28  C   UNL     1      34.862 -16.670 -22.223  0.00  0.00    +0.033 C 
ATOM     29  C   UNL     1      33.968 -18.630 -23.315  0.00  0.00    +0.033 C 
ATOM     30  C   UNL     1      34.343 -17.287 -23.361  0.00  0.00    +0.140 C 
ENDBRANCH  23  25
ENDBRANCH  22  23
ENDBRANCH  18  22
ENDBRANCH   3  18
TORSDOF 8
ENDMDL
MODEL 9
REMARK VINA RESULT:     -10.4      5.258      7.559
REMARK  Name = 5288215
REMARK  8 active torsions:
REMARK  status: ('A' for Active; 'I' for Inactive)
REMARK    1  A    between atoms: N_2  and  C_5
REMARK    2  A    between atoms: C_3  and  C_18
REMARK    3  A    between atoms: C_7  and  C_14
REMARK    4  A    between atoms: C_9  and  N_17
REMARK    5  A    between atoms: C_18  and  O_20
REMARK    6  A    between atoms: C_18  and  C_22
REMARK    7  A    between atoms: C_22  and  O_23
REMARK    8  A    between atoms: O_23  and  C_25
REMARK                            x       y       z     vdW  Elec       q    Type
REMARK                         _______ _______ _______ _____ _____    ______ ____
ROOT
ATOM      1  O   UNL     1      31.276 -24.738 -13.509  0.00  0.00    -0.272 OA
ATOM      2  N   UNL     1      32.777 -23.288 -14.568  0.00  0.00    -0.282 N 
ATOM      3  C   UNL     1      31.527 -23.840 -14.309  0.00  0.00    +0.254 C 
ATOM      4  H   UNL     1      32.803 -22.572 -15.243  0.00  0.00    +0.155 HD
ENDROOT
BRANCH   2   5
ATOM      5  C   UNL     1      34.015 -23.635 -13.977  0.00  0.00    +0.050 C 
ATOM      6  C   UNL     1      34.804 -24.603 -14.577  0.00  0.00    +0.020 C 
ATOM      7  C   UNL     1      36.024 -24.945 -13.993  0.00  0.00    +0.095 C 
ATOM      8  C   UNL     1      34.410 -23.000 -12.812  0.00  0.00    +0.016 C 
ATOM      9  C   UNL     1      36.437 -24.314 -12.818  0.00  0.00    +0.147 C 
ATOM     10  C   UNL     1      35.630 -23.342 -12.228  0.00  0.00    +0.025 C 
BRANCH   7  14
ATOM     11  F   UNL     1      36.279 -26.551 -15.747  0.00  0.00    -0.166 F 
ATOM     12  F   UNL     1      38.071 -25.526 -15.084  0.00  0.00    -0.166 F 
ATOM     13  F   UNL     1      37.150 -27.031 -13.814  0.00  0.00    -0.166 F 
ATOM     14  C   UNL     1      36.865 -25.992 -14.649  0.00  0.00    +0.420 C 
ENDBRANCH   7  14
BRANCH   9  17
ATOM     15  O   UNL     1      38.708 -24.021 -12.546  0.00  0.00    -0.126 OA
ATOM     16  O   UNL     1      37.701 -25.558 -11.344  0.00  0.00    -0.126 OA
ATOM     17  N   UNL     1      37.676 -24.648 -12.206  0.00  0.00    +0.058 N 
ENDBRANCH   9  17
ENDBRANCH   2   5
BRANCH   3  18
ATOM     18  C   UNL     1      30.406 -23.203 -15.152  0.00  0.00    +0.197 C 
ATOM     19  C   UNL     1      29.488 -24.276 -15.741  0.00  0.00    +0.043 C 
BRANCH  18  20
ATOM     20  O   UNL     1      29.621 -22.391 -14.279  0.00  0.00    -0.375 OA
ATOM     21  H   UNL     1      28.927 -22.931 -13.871  0.00  0.00    +0.211 HD
ENDBRANCH  18  20
BRANCH  18  22
ATOM     22  C   UNL     1      30.948 -22.288 -16.257  0.00  0.00    +0.241 C 
BRANCH  22  23
ATOM     23  O   UNL     1      31.854 -22.992 -17.102  0.00  0.00    -0.472 OA
BRANCH  23  25
ATOM     24  F   UNL     1      35.077 -19.945 -20.340  0.00  0.00    -0.204 F 
ATOM     25  C   UNL     1      32.657 -22.231 -17.910  0.00  0.00    +0.139 C 
ATOM     26  C   UNL     1      32.085 -21.315 -18.786  0.00  0.00    +0.039 C 
ATOM     27  C   UNL     1      34.039 -22.382 -17.846  0.00  0.00    +0.039 C 
ATOM     28  C   UNL     1      32.904 -20.542 -19.609  0.00  0.00    +0.033 C 
ATOM     29  C   UNL     1      34.857 -21.608 -18.668  0.00  0.00    +0.033 C 
ATOM     30  C   UNL     1      34.290 -20.688 -19.550  0.00  0.00    +0.140 C 
ENDBRANCH  23  25
ENDBRANCH  22  23
ENDBRANCH  18  22
ENDBRANCH   3  18
TORSDOF 8
ENDMDL
