MODEL 1
REMARK VINA RESULT:     -11.3      0.000      0.000
REMARK  Name = 72734520
REMARK  6 active torsions:
REMARK  status: ('A' for Active; 'I' for Inactive)
REMARK    1  A    between atoms: N_1  and  C_19
REMARK    2  A    between atoms: C_8  and  O_28
REMARK    3  A    between atoms: C_14  and  N_20
REMARK    4  A    between atoms: O_28  and  C_29
REMARK    5  A    between atoms: C_32  and  N_36
REMARK    6  A    between atoms: C_37  and  C_39
REMARK                            x       y       z     vdW  Elec       q    Type
REMARK                         _______ _______ _______ _____ _____    ______ ____
ROOT
ATOM      1  N   UNL     1      35.835 -22.216 -17.346  0.00  0.00    -0.238 N 
ATOM      2  N   UNL     1      35.785 -23.491 -15.391  0.00  0.00    -0.316 NA
ATOM      3  N   UNL     1      33.922 -22.052 -16.013  0.00  0.00    -0.294 NA
ATOM      4  N   UNL     1      35.414 -24.665 -13.318  0.00  0.00    -0.289 N 
ATOM      5  C   UNL     1      35.142 -22.610 -16.184  0.00  0.00    +0.207 C 
ATOM      6  C   UNL     1      33.781 -23.309 -14.005  0.00  0.00    +0.181 C 
ATOM      7  C   UNL     1      35.044 -23.800 -14.313  0.00  0.00    +0.188 C 
ATOM      8  C   UNL     1      33.226 -22.403 -14.908  0.00  0.00    +0.281 C 
ATOM      9  C   UNL     1      33.391 -23.909 -12.781  0.00  0.00    +0.008 C 
ATOM     10  C   UNL     1      34.416 -24.739 -12.380  0.00  0.00    +0.060 C 
ATOM     11  H   UNL     1      36.719 -22.639 -17.442  0.00  0.00    +0.166 HD
ATOM     12  H   UNL     1      36.265 -25.159 -13.281  0.00  0.00    +0.154 HD
ENDROOT
BRANCH   1  19
ATOM     13  F   UNL     1      32.658 -20.467 -20.479  0.00  0.00    -0.203 F 
ATOM     14  C   UNL     1      34.868 -19.597 -20.485  0.00  0.00    +0.076 C 
ATOM     15  C   UNL     1      33.899 -20.462 -19.975  0.00  0.00    +0.155 C 
ATOM     16  C   UNL     1      36.157 -19.604 -19.953  0.00  0.00    +0.018 C 
ATOM     17  C   UNL     1      34.221 -21.332 -18.932  0.00  0.00    +0.046 C 
ATOM     18  C   UNL     1      36.478 -20.473 -18.910  0.00  0.00    +0.017 C 
ATOM     19  C   UNL     1      35.510 -21.337 -18.400  0.00  0.00    +0.061 C 
BRANCH  14  20
ATOM     20  N   UNL     1      34.549 -18.725 -21.531  0.00  0.00    -0.310 N 
ATOM     21  N   UNL     1      34.152 -16.940 -23.725  0.00  0.00    +0.388 N 
ATOM     22  C   UNL     1      35.064 -17.352 -21.465  0.00  0.00    +0.068 C 
ATOM     23  C   UNL     1      34.330 -19.256 -22.880  0.00  0.00    +0.068 C 
ATOM     24  C   UNL     1      34.233 -16.423 -22.353  0.00  0.00    -0.056 C 
ATOM     25  C   UNL     1      33.523 -18.265 -23.723  0.00  0.00    -0.056 C 
ATOM     26  C   UNL     1      33.402 -16.017 -24.577  0.00  0.00    -0.101 C 
ATOM     27  H   UNL     1      35.096 -17.024 -24.101  0.00  0.00    -0.080 HD
ENDBRANCH  14  20
ENDBRANCH   1  19
BRANCH   8  28
ATOM     28  O   UNL     1      31.985 -21.847 -14.721  0.00  0.00    -0.429 OA
BRANCH  28  29
ATOM     29  C   UNL     1      30.893 -22.585 -15.127  0.00  0.00    +0.149 C 
ATOM     30  C   UNL     1      29.833 -21.959 -15.784  0.00  0.00    +0.052 C 
ATOM     31  C   UNL     1      30.848 -23.958 -14.883  0.00  0.00    +0.038 C 
ATOM     32  C   UNL     1      28.729 -22.705 -16.196  0.00  0.00    +0.054 C 
ATOM     33  C   UNL     1      28.684 -24.077 -15.951  0.00  0.00    +0.015 C 
ATOM     34  C   UNL     1      29.744 -24.704 -15.296  0.00  0.00    +0.004 C 
BRANCH  32  36
ATOM     35  O   UNL     1      26.050 -21.824 -15.166  0.00  0.00    -0.270 OA
ATOM     36  N   UNL     1      27.670 -22.078 -16.853  0.00  0.00    -0.280 N 
ATOM     37  C   UNL     1      26.434 -21.686 -16.321  0.00  0.00    +0.250 C 
ATOM     38  H   UNL     1      27.808 -21.887 -17.809  0.00  0.00    +0.155 HD
BRANCH  37  39
ATOM     39  C   UNL     1      25.569 -21.045 -17.353  0.00  0.00    +0.058 C 
ATOM     40  C   UNL     1      25.603 -21.461 -18.623  0.00  0.00    +0.005 C 
ENDBRANCH  37  39
ENDBRANCH  32  36
ENDBRANCH  28  29
ENDBRANCH   8  28
TORSDOF 6
ENDMDL
MODEL 2
REMARK VINA RESULT:     -11.3     10.422     17.487
REMARK  Name = 72734520
REMARK  6 active torsions:
REMARK  status: ('A' for Active; 'I' for Inactive)
REMARK    1  A    between atoms: N_1  and  C_19
REMARK    2  A    between atoms: C_8  and  O_28
REMARK    3  A    between atoms: C_14  and  N_20
REMARK    4  A    between atoms: O_28  and  C_29
REMARK    5  A    between atoms: C_32  and  N_36
REMARK    6  A    between atoms: C_37  and  C_39
REMARK                            x       y       z     vdW  Elec       q    Type
REMARK                         _______ _______ _______ _____ _____    ______ ____
ROOT
ATOM      1  N   UNL     1      30.724  -8.483 -22.170  0.00  0.00    -0.238 N 
ATOM      2  N   UNL     1      30.234  -6.207 -22.331  0.00  0.00    -0.316 NA
ATOM      3  N   UNL     1      32.326  -7.116 -23.183  0.00  0.00    -0.294 NA
ATOM      4  N   UNL     1      30.045  -3.825 -22.652  0.00  0.00    -0.289 N 
ATOM      5  C   UNL     1      31.116  -7.196 -22.585  0.00  0.00    +0.207 C 
ATOM      6  C   UNL     1      31.917  -4.788 -23.389  0.00  0.00    +0.181 C 
ATOM      7  C   UNL     1      30.701  -5.022 -22.761  0.00  0.00    +0.188 C 
ATOM      8  C   UNL     1      32.738  -5.896 -23.594  0.00  0.00    +0.281 C 
ATOM      9  C   UNL     1      31.981  -3.397 -23.661  0.00  0.00    +0.008 C 
ATOM     10  C   UNL     1      30.815  -2.829 -23.196  0.00  0.00    +0.060 C 
ATOM     11  H   UNL     1      29.839  -8.508 -21.738  0.00  0.00    +0.166 HD
ATOM     12  H   UNL     1      29.157  -3.698 -22.245  0.00  0.00    +0.154 HD
ENDROOT
BRANCH   1  19
ATOM     13  F   UNL     1      31.299 -12.960 -20.557  0.00  0.00    -0.203 F 
ATOM     14  C   UNL     1      32.587 -12.240 -22.418  0.00  0.00    +0.076 C 
ATOM     15  C   UNL     1      31.631 -12.000 -21.432  0.00  0.00    +0.155 C 
ATOM     16  C   UNL     1      32.925 -11.232 -23.321  0.00  0.00    +0.018 C 
ATOM     17  C   UNL     1      31.011 -10.752 -21.350  0.00  0.00    +0.046 C 
ATOM     18  C   UNL     1      32.306  -9.985 -23.239  0.00  0.00    +0.017 C 
ATOM     19  C   UNL     1      31.349  -9.745 -22.254  0.00  0.00    +0.061 C 
BRANCH  14  20
ATOM     20  N   UNL     1      33.211 -13.490 -22.503  0.00  0.00    -0.310 N 
ATOM     21  N   UNL     1      34.694 -15.917 -22.767  0.00  0.00    +0.388 N 
ATOM     22  C   UNL     1      33.563 -13.996 -23.835  0.00  0.00    +0.068 C 
ATOM     23  C   UNL     1      34.062 -13.954 -21.403  0.00  0.00    +0.068 C 
ATOM     24  C   UNL     1      33.734 -15.516 -23.804  0.00  0.00    -0.056 C 
ATOM     25  C   UNL     1      34.218 -15.476 -21.450  0.00  0.00    -0.056 C 
ATOM     26  C   UNL     1      34.891 -17.366 -22.782  0.00  0.00    -0.101 C 
ATOM     27  H   UNL     1      35.590 -15.472 -22.959  0.00  0.00    -0.080 HD
ENDBRANCH  14  20
ENDBRANCH   1  19
BRANCH   8  28
ATOM     28  O   UNL     1      33.964  -5.799 -24.205  0.00  0.00    -0.429 OA
BRANCH  28  29
ATOM     29  C   UNL     1      33.976  -5.566 -25.565  0.00  0.00    +0.149 C 
ATOM     30  C   UNL     1      35.110  -5.021 -26.168  0.00  0.00    +0.052 C 
ATOM     31  C   UNL     1      32.857  -5.876 -26.337  0.00  0.00    +0.038 C 
ATOM     32  C   UNL     1      35.124  -4.786 -27.543  0.00  0.00    +0.054 C 
ATOM     33  C   UNL     1      34.005  -5.096 -28.315  0.00  0.00    +0.015 C 
ATOM     34  C   UNL     1      32.871  -5.642 -27.712  0.00  0.00    +0.004 C 
BRANCH  32  36
ATOM     35  O   UNL     1      37.360  -6.120 -29.039  0.00  0.00    -0.270 OA
ATOM     36  N   UNL     1      36.259  -4.242 -28.146  0.00  0.00    -0.280 N 
ATOM     37  C   UNL     1      37.277  -4.914 -28.836  0.00  0.00    +0.250 C 
ATOM     38  H   UNL     1      36.356  -3.264 -28.079  0.00  0.00    +0.155 HD
BRANCH  37  39
ATOM     39  C   UNL     1      38.319  -3.971 -29.334  0.00  0.00    +0.058 C 
ATOM     40  C   UNL     1      38.859  -3.062 -28.517  0.00  0.00    +0.005 C 
ENDBRANCH  37  39
ENDBRANCH  32  36
ENDBRANCH  28  29
ENDBRANCH   8  28
TORSDOF 6
ENDMDL
MODEL 3
REMARK VINA RESULT:     -10.6     10.830     17.739
REMARK  Name = 72734520
REMARK  6 active torsions:
REMARK  status: ('A' for Active; 'I' for Inactive)
REMARK    1  A    between atoms: N_1  and  C_19
REMARK    2  A    between atoms: C_8  and  O_28
REMARK    3  A    between atoms: C_14  and  N_20
REMARK    4  A    between atoms: O_28  and  C_29
REMARK    5  A    between atoms: C_32  and  N_36
REMARK    6  A    between atoms: C_37  and  C_39
REMARK                            x       y       z     vdW  Elec       q    Type
REMARK                         _______ _______ _______ _____ _____    ______ ____
ROOT
ATOM      1  N   UNL     1      30.641  -8.230 -22.049  0.00  0.00    -0.238 N 
ATOM      2  N   UNL     1      30.169  -5.954 -22.256  0.00  0.00    -0.316 NA
ATOM      3  N   UNL     1      32.256  -6.895 -23.085  0.00  0.00    -0.294 NA
ATOM      4  N   UNL     1      29.998  -3.577 -22.625  0.00  0.00    -0.289 N 
ATOM      5  C   UNL     1      31.044  -6.954 -22.489  0.00  0.00    +0.207 C 
ATOM      6  C   UNL     1      31.865  -4.568 -23.339  0.00  0.00    +0.181 C 
ATOM      7  C   UNL     1      30.645  -4.781 -22.709  0.00  0.00    +0.188 C 
ATOM      8  C   UNL     1      32.679  -5.686 -23.519  0.00  0.00    +0.281 C 
ATOM      9  C   UNL     1      31.940  -3.184 -23.638  0.00  0.00    +0.008 C 
ATOM     10  C   UNL     1      30.776  -2.598 -23.187  0.00  0.00    +0.060 C 
ATOM     11  H   UNL     1      29.756  -8.240 -21.620  0.00  0.00    +0.166 HD
ATOM     12  H   UNL     1      29.110  -3.436 -22.224  0.00  0.00    +0.154 HD
ENDROOT
BRANCH   1  19
ATOM     13  F   UNL     1      33.802 -11.237 -24.034  0.00  0.00    -0.203 F 
ATOM     14  C   UNL     1      32.477 -12.005 -22.219  0.00  0.00    +0.076 C 
ATOM     15  C   UNL     1      32.855 -11.005 -23.115  0.00  0.00    +0.155 C 
ATOM     16  C   UNL     1      31.489 -11.751 -21.268  0.00  0.00    +0.018 C 
ATOM     17  C   UNL     1      32.246  -9.751 -23.058  0.00  0.00    +0.046 C 
ATOM     18  C   UNL     1      30.879 -10.498 -21.211  0.00  0.00    +0.017 C 
ATOM     19  C   UNL     1      31.258  -9.498 -22.106  0.00  0.00    +0.061 C 
BRANCH  14  20
ATOM     20  N   UNL     1      33.085 -13.264 -22.274  0.00  0.00    -0.310 N 
ATOM     21  N   UNL     1      34.092 -15.936 -22.344  0.00  0.00    +0.388 N 
ATOM     22  C   UNL     1      33.091 -14.080 -21.054  0.00  0.00    +0.068 C 
ATOM     23  C   UNL     1      33.103 -14.009 -23.536  0.00  0.00    +0.068 C 
ATOM     24  C   UNL     1      34.198 -15.135 -21.118  0.00  0.00    -0.056 C 
ATOM     25  C   UNL     1      34.209 -15.066 -23.520  0.00  0.00    -0.056 C 
ATOM     26  C   UNL     1      35.121 -16.975 -22.369  0.00  0.00    -0.101 C 
ATOM     27  H   UNL     1      33.180 -16.391 -22.361  0.00  0.00    -0.080 HD
ENDBRANCH  14  20
ENDBRANCH   1  19
BRANCH   8  28
ATOM     28  O   UNL     1      33.906  -5.610 -24.128  0.00  0.00    -0.429 OA
BRANCH  28  29
ATOM     29  C   UNL     1      33.924  -5.457 -25.499  0.00  0.00    +0.149 C 
ATOM     30  C   UNL     1      35.044  -4.909 -26.125  0.00  0.00    +0.052 C 
ATOM     31  C   UNL     1      32.823  -5.851 -26.260  0.00  0.00    +0.038 C 
ATOM     32  C   UNL     1      35.063  -4.755 -27.511  0.00  0.00    +0.054 C 
ATOM     33  C   UNL     1      33.963  -5.149 -28.272  0.00  0.00    +0.015 C 
ATOM     34  C   UNL     1      32.843  -5.698 -27.647  0.00  0.00    +0.004 C 
BRANCH  32  36
ATOM     35  O   UNL     1      35.452  -2.074 -28.805  0.00  0.00    -0.270 OA
ATOM     36  N   UNL     1      36.184  -4.207 -28.137  0.00  0.00    -0.280 N 
ATOM     37  C   UNL     1      36.312  -2.943 -28.727  0.00  0.00    +0.250 C 
ATOM     38  H   UNL     1      36.984  -4.780 -28.166  0.00  0.00    +0.155 HD
BRANCH  37  39
ATOM     39  C   UNL     1      37.677  -2.734 -29.291  0.00  0.00    +0.058 C 
ATOM     40  C   UNL     1      38.743  -3.293 -28.712  0.00  0.00    +0.005 C 
ENDBRANCH  37  39
ENDBRANCH  32  36
ENDBRANCH  28  29
ENDBRANCH   8  28
TORSDOF 6
ENDMDL
MODEL 4
REMARK VINA RESULT:     -10.3      8.465     13.719
REMARK  Name = 72734520
REMARK  6 active torsions:
REMARK  status: ('A' for Active; 'I' for Inactive)
REMARK    1  A    between atoms: N_1  and  C_19
REMARK    2  A    between atoms: C_8  and  O_28
REMARK    3  A    between atoms: C_14  and  N_20
REMARK    4  A    between atoms: O_28  and  C_29
REMARK    5  A    between atoms: C_32  and  N_36
REMARK    6  A    between atoms: C_37  and  C_39
REMARK                            x       y       z     vdW  Elec       q    Type
REMARK                         _______ _______ _______ _____ _____    ______ ____
ROOT
ATOM      1  N   UNL     1      31.330  -8.723 -22.190  0.00  0.00    -0.238 N 
ATOM      2  N   UNL     1      31.224 -10.646 -20.871  0.00  0.00    -0.316 NA
ATOM      3  N   UNL     1      32.598 -10.561 -22.879  0.00  0.00    -0.294 NA
ATOM      4  N   UNL     1      31.337 -12.775 -19.744  0.00  0.00    -0.289 N 
ATOM      5  C   UNL     1      31.741 -10.052 -21.966  0.00  0.00    +0.207 C 
ATOM      6  C   UNL     1      32.553 -12.561 -21.603  0.00  0.00    +0.181 C 
ATOM      7  C   UNL     1      31.674 -11.907 -20.749  0.00  0.00    +0.188 C 
ATOM      8  C   UNL     1      33.015 -11.835 -22.700  0.00  0.00    +0.281 C 
ATOM      9  C   UNL     1      32.742 -13.867 -21.081  0.00  0.00    +0.008 C 
ATOM     10  C   UNL     1      31.981 -13.970 -19.936  0.00  0.00    +0.060 C 
ATOM     11  H   UNL     1      30.706  -8.382 -21.509  0.00  0.00    +0.166 HD
ATOM     12  H   UNL     1      30.727 -12.572 -18.998  0.00  0.00    +0.154 HD
ENDROOT
BRANCH   1  19
ATOM     13  F   UNL     1      34.200  -5.326 -23.977  0.00  0.00    -0.203 F 
ATOM     14  C   UNL     1      32.249  -5.929 -25.189  0.00  0.00    +0.076 C 
ATOM     15  C   UNL     1      33.093  -6.074 -24.089  0.00  0.00    +0.155 C 
ATOM     16  C   UNL     1      31.099  -6.712 -25.292  0.00  0.00    +0.018 C 
ATOM     17  C   UNL     1      32.788  -7.002 -23.093  0.00  0.00    +0.046 C 
ATOM     18  C   UNL     1      30.794  -7.640 -24.297  0.00  0.00    +0.017 C 
ATOM     19  C   UNL     1      31.639  -7.785 -23.197  0.00  0.00    +0.061 C 
BRANCH  14  20
ATOM     20  N   UNL     1      32.551  -4.998 -26.189  0.00  0.00    -0.310 N 
ATOM     21  N   UNL     1      32.967  -3.193 -28.363  0.00  0.00    +0.388 N 
ATOM     22  C   UNL     1      32.992  -5.507 -27.494  0.00  0.00    +0.068 C 
ATOM     23  C   UNL     1      31.860  -3.705 -26.212  0.00  0.00    +0.068 C 
ATOM     24  C   UNL     1      33.757  -4.426 -28.261  0.00  0.00    -0.056 C 
ATOM     25  C   UNL     1      32.662  -2.683 -27.022  0.00  0.00    -0.056 C 
ATOM     26  C   UNL     1      33.685  -2.187 -29.145  0.00  0.00    -0.101 C 
ATOM     27  H   UNL     1      32.091  -3.403 -28.842  0.00  0.00    -0.080 HD
ENDBRANCH  14  20
ENDBRANCH   1  19
BRANCH   8  28
ATOM     28  O   UNL     1      33.887 -12.366 -23.617  0.00  0.00    -0.429 OA
BRANCH  28  29
ATOM     29  C   UNL     1      33.760 -13.710 -23.906  0.00  0.00    +0.149 C 
ATOM     30  C   UNL     1      34.560 -14.643 -23.244  0.00  0.00    +0.052 C 
ATOM     31  C   UNL     1      32.833 -14.135 -24.857  0.00  0.00    +0.038 C 
ATOM     32  C   UNL     1      34.431 -16.001 -23.535  0.00  0.00    +0.054 C 
ATOM     33  C   UNL     1      33.504 -16.427 -24.485  0.00  0.00    +0.015 C 
ATOM     34  C   UNL     1      32.704 -15.494 -25.146  0.00  0.00    +0.004 C 
BRANCH  32  36
ATOM     35  O   UNL     1      34.640 -16.657 -20.612  0.00  0.00    -0.270 OA
ATOM     36  N   UNL     1      35.231 -16.934 -22.872  0.00  0.00    -0.280 N 
ATOM     37  C   UNL     1      35.288 -17.201 -21.498  0.00  0.00    +0.250 C 
ATOM     38  H   UNL     1      35.827 -17.472 -23.442  0.00  0.00    +0.155 HD
BRANCH  37  39
ATOM     39  C   UNL     1      36.274 -18.276 -21.187  0.00  0.00    +0.058 C 
ATOM     40  C   UNL     1      35.937 -19.298 -20.393  0.00  0.00    +0.005 C 
ENDBRANCH  37  39
ENDBRANCH  32  36
ENDBRANCH  28  29
ENDBRANCH   8  28
TORSDOF 6
ENDMDL
MODEL 5
REMARK VINA RESULT:     -10.1      2.839      7.619
REMARK  Name = 72734520
REMARK  6 active torsions:
REMARK  status: ('A' for Active; 'I' for Inactive)
REMARK    1  A    between atoms: N_1  and  C_19
REMARK    2  A    between atoms: C_8  and  O_28
REMARK    3  A    between atoms: C_14  and  N_20
REMARK    4  A    between atoms: O_28  and  C_29
REMARK    5  A    between atoms: C_32  and  N_36
REMARK    6  A    between atoms: C_37  and  C_39
REMARK                            x       y       z     vdW  Elec       q    Type
REMARK                         _______ _______ _______ _____ _____    ______ ____
ROOT
ATOM      1  N   UNL     1      34.062 -24.660 -13.297  0.00  0.00    -0.238 N 
ATOM      2  N   UNL     1      36.337 -25.065 -12.970  0.00  0.00    -0.316 NA
ATOM      3  N   UNL     1      35.559 -23.504 -14.669  0.00  0.00    -0.294 NA
ATOM      4  N   UNL     1      38.739 -25.254 -12.896  0.00  0.00    -0.289 N 
ATOM      5  C   UNL     1      35.395 -24.395 -13.665  0.00  0.00    +0.207 C 
ATOM      6  C   UNL     1      37.893 -23.853 -14.412  0.00  0.00    +0.181 C 
ATOM      7  C   UNL     1      37.571 -24.746 -13.397  0.00  0.00    +0.188 C 
ATOM      8  C   UNL     1      36.826 -23.224 -15.052  0.00  0.00    +0.281 C 
ATOM      9  C   UNL     1      39.307 -23.834 -14.513  0.00  0.00    +0.008 C 
ATOM     10  C   UNL     1      39.802 -24.707 -13.567  0.00  0.00    +0.060 C 
ATOM     11  H   UNL     1      33.975 -25.312 -12.565  0.00  0.00    +0.166 HD
ATOM     12  H   UNL     1      38.807 -25.912 -12.166  0.00  0.00    +0.154 HD
ENDROOT
BRANCH   1  19
ATOM     13  F   UNL     1      29.456 -25.376 -14.414  0.00  0.00    -0.203 F 
ATOM     14  C   UNL     1      30.381 -23.209 -14.709  0.00  0.00    +0.076 C 
ATOM     15  C   UNL     1      30.504 -24.545 -14.331  0.00  0.00    +0.155 C 
ATOM     16  C   UNL     1      31.480 -22.355 -14.620  0.00  0.00    +0.018 C 
ATOM     17  C   UNL     1      31.727 -25.027 -13.861  0.00  0.00    +0.046 C 
ATOM     18  C   UNL     1      32.702 -22.836 -14.151  0.00  0.00    +0.017 C 
ATOM     19  C   UNL     1      32.825 -24.173 -13.771  0.00  0.00    +0.061 C 
BRANCH  14  20
ATOM     20  N   UNL     1      29.157 -22.723 -15.182  0.00  0.00    -0.310 N 
ATOM     21  N   UNL     1      26.558 -21.965 -16.092  0.00  0.00    +0.388 N 
ATOM     22  C   UNL     1      28.593 -23.335 -16.391  0.00  0.00    +0.068 C 
ATOM     23  C   UNL     1      28.182 -22.167 -14.239  0.00  0.00    +0.068 C 
ATOM     24  C   UNL     1      27.585 -22.391 -17.051  0.00  0.00    -0.056 C 
ATOM     25  C   UNL     1      27.186 -21.261 -14.968  0.00  0.00    -0.056 C 
ATOM     26  C   UNL     1      25.569 -21.108 -16.746  0.00  0.00    -0.101 C 
ATOM     27  H   UNL     1      26.077 -22.790 -15.736  0.00  0.00    -0.080 HD
ENDBRANCH  14  20
ENDBRANCH   1  19
BRANCH   8  28
ATOM     28  O   UNL     1      37.009 -22.320 -16.069  0.00  0.00    -0.429 OA
BRANCH  28  29
ATOM     29  C   UNL     1      35.944 -22.099 -16.918  0.00  0.00    +0.149 C 
ATOM     30  C   UNL     1      36.093 -21.250 -18.015  0.00  0.00    +0.052 C 
ATOM     31  C   UNL     1      34.720 -22.723 -16.681  0.00  0.00    +0.038 C 
ATOM     32  C   UNL     1      35.018 -21.026 -18.875  0.00  0.00    +0.054 C 
ATOM     33  C   UNL     1      33.794 -21.651 -18.637  0.00  0.00    +0.015 C 
ATOM     34  C   UNL     1      33.645 -22.500 -17.541  0.00  0.00    +0.004 C 
BRANCH  32  36
ATOM     35  O   UNL     1      32.952 -19.759 -20.648  0.00  0.00    -0.270 OA
ATOM     36  N   UNL     1      35.167 -20.178 -19.973  0.00  0.00    -0.280 N 
ATOM     37  C   UNL     1      34.162 -19.611 -20.769  0.00  0.00    +0.250 C 
ATOM     38  H   UNL     1      36.092 -19.949 -20.217  0.00  0.00    +0.155 HD
BRANCH  37  39
ATOM     39  C   UNL     1      34.733 -18.757 -21.850  0.00  0.00    +0.058 C 
ATOM     40  C   UNL     1      35.966 -18.254 -21.739  0.00  0.00    +0.005 C 
ENDBRANCH  37  39
ENDBRANCH  32  36
ENDBRANCH  28  29
ENDBRANCH   8  28
TORSDOF 6
ENDMDL
MODEL 6
REMARK VINA RESULT:     -10.1     10.919     17.838
REMARK  Name = 72734520
REMARK  6 active torsions:
REMARK  status: ('A' for Active; 'I' for Inactive)
REMARK    1  A    between atoms: N_1  and  C_19
REMARK    2  A    between atoms: C_8  and  O_28
REMARK    3  A    between atoms: C_14  and  N_20
REMARK    4  A    between atoms: O_28  and  C_29
REMARK    5  A    between atoms: C_32  and  N_36
REMARK    6  A    between atoms: C_37  and  C_39
REMARK                            x       y       z     vdW  Elec       q    Type
REMARK                         _______ _______ _______ _____ _____    ______ ____
ROOT
ATOM      1  N   UNL     1      31.150  -7.574 -21.537  0.00  0.00    -0.238 N 
ATOM      2  N   UNL     1      30.539  -5.322 -21.509  0.00  0.00    -0.316 NA
ATOM      3  N   UNL     1      31.322  -6.397 -23.548  0.00  0.00    -0.294 NA
ATOM      4  N   UNL     1      29.992  -2.995 -21.823  0.00  0.00    -0.289 N 
ATOM      5  C   UNL     1      30.994  -6.362 -22.237  0.00  0.00    +0.207 C 
ATOM      6  C   UNL     1      30.724  -4.101 -23.617  0.00  0.00    +0.181 C 
ATOM      7  C   UNL     1      30.427  -4.216 -22.265  0.00  0.00    +0.188 C 
ATOM      8  C   UNL     1      31.187  -5.251 -24.255  0.00  0.00    +0.281 C 
ATOM      9  C   UNL     1      30.455  -2.759 -23.987  0.00  0.00    +0.008 C 
ATOM     10  C   UNL     1      30.006  -2.100 -22.862  0.00  0.00    +0.060 C 
ATOM     11  H   UNL     1      30.904  -7.517 -20.586  0.00  0.00    +0.166 HD
ATOM     12  H   UNL     1      29.713  -2.790 -20.901  0.00  0.00    +0.154 HD
ENDROOT
BRANCH   1  19
ATOM     13  F   UNL     1      31.146 -12.334 -20.975  0.00  0.00    -0.203 F 
ATOM     14  C   UNL     1      32.459 -11.389 -22.714  0.00  0.00    +0.076 C 
ATOM     15  C   UNL     1      31.579 -11.254 -21.640  0.00  0.00    +0.155 C 
ATOM     16  C   UNL     1      32.904 -10.256 -23.396  0.00  0.00    +0.018 C 
ATOM     17  C   UNL     1      31.144  -9.987 -21.249  0.00  0.00    +0.046 C 
ATOM     18  C   UNL     1      32.469  -8.990 -23.006  0.00  0.00    +0.017 C 
ATOM     19  C   UNL     1      31.589  -8.855 -21.933  0.00  0.00    +0.061 C 
BRANCH  14  20
ATOM     20  N   UNL     1      32.897 -12.658 -23.107  0.00  0.00    -0.310 N 
ATOM     21  N   UNL     1      33.992 -15.130 -24.030  0.00  0.00    +0.388 N 
ATOM     22  C   UNL     1      32.896 -12.974 -24.541  0.00  0.00    +0.068 C 
ATOM     23  C   UNL     1      33.901 -13.362 -22.303  0.00  0.00    +0.068 C 
ATOM     24  C   UNL     1      32.889 -14.489 -24.757  0.00  0.00    -0.056 C 
ATOM     25  C   UNL     1      33.862 -14.865 -22.592  0.00  0.00    -0.056 C 
ATOM     26  C   UNL     1      34.007 -16.570 -24.288  0.00  0.00    -0.101 C 
ATOM     27  H   UNL     1      34.874 -14.738 -24.358  0.00  0.00    -0.080 HD
ENDBRANCH  14  20
ENDBRANCH   1  19
BRANCH   8  28
ATOM     28  O   UNL     1      31.515  -5.270 -25.587  0.00  0.00    -0.429 OA
BRANCH  28  29
ATOM     29  C   UNL     1      32.706  -4.679 -25.954  0.00  0.00    +0.149 C 
ATOM     30  C   UNL     1      33.642  -5.399 -26.697  0.00  0.00    +0.052 C 
ATOM     31  C   UNL     1      32.975  -3.361 -25.584  0.00  0.00    +0.038 C 
ATOM     32  C   UNL     1      34.846  -4.802 -27.069  0.00  0.00    +0.054 C 
ATOM     33  C   UNL     1      35.115  -3.484 -26.699  0.00  0.00    +0.015 C 
ATOM     34  C   UNL     1      34.179  -2.763 -25.957  0.00  0.00    +0.004 C 
BRANCH  32  36
ATOM     35  O   UNL     1      35.727  -4.480 -29.921  0.00  0.00    -0.270 OA
ATOM     36  N   UNL     1      35.782  -5.522 -27.813  0.00  0.00    -0.280 N 
ATOM     37  C   UNL     1      36.157  -5.328 -29.149  0.00  0.00    +0.250 C 
ATOM     38  H   UNL     1      36.235  -6.257 -27.339  0.00  0.00    +0.155 HD
BRANCH  37  39
ATOM     39  C   UNL     1      37.195  -6.311 -29.578  0.00  0.00    +0.058 C 
ATOM     40  C   UNL     1      38.494  -6.013 -29.479  0.00  0.00    +0.005 C 
ENDBRANCH  37  39
ENDBRANCH  32  36
ENDBRANCH  28  29
ENDBRANCH   8  28
TORSDOF 6
ENDMDL
MODEL 7
REMARK VINA RESULT:      -9.8     10.140     16.576
REMARK  Name = 72734520
REMARK  6 active torsions:
REMARK  status: ('A' for Active; 'I' for Inactive)
REMARK    1  A    between atoms: N_1  and  C_19
REMARK    2  A    between atoms: C_8  and  O_28
REMARK    3  A    between atoms: C_14  and  N_20
REMARK    4  A    between atoms: O_28  and  C_29
REMARK    5  A    between atoms: C_32  and  N_36
REMARK    6  A    between atoms: C_37  and  C_39
REMARK                            x       y       z     vdW  Elec       q    Type
REMARK                         _______ _______ _______ _____ _____    ______ ____
ROOT
ATOM      1  N   UNL     1      31.611  -9.443 -20.773  0.00  0.00    -0.238 N 
ATOM      2  N   UNL     1      30.984  -7.209 -20.527  0.00  0.00    -0.316 NA
ATOM      3  N   UNL     1      31.483  -8.151 -22.716  0.00  0.00    -0.294 NA
ATOM      4  N   UNL     1      30.372  -4.879 -20.624  0.00  0.00    -0.289 N 
ATOM      5  C   UNL     1      31.343  -8.197 -21.372  0.00  0.00    +0.207 C 
ATOM      6  C   UNL     1      30.855  -5.868 -22.565  0.00  0.00    +0.181 C 
ATOM      7  C   UNL     1      30.753  -6.064 -21.193  0.00  0.00    +0.188 C 
ATOM      8  C   UNL     1      31.236  -6.971 -23.328  0.00  0.00    +0.281 C 
ATOM      9  C   UNL     1      30.520  -4.512 -22.814  0.00  0.00    +0.008 C 
ATOM     10  C   UNL     1      30.228  -3.927 -21.601  0.00  0.00    +0.060 C 
ATOM     11  H   UNL     1      31.502  -9.445 -19.794  0.00  0.00    +0.166 HD
ATOM     12  H   UNL     1      30.224  -4.732 -19.662  0.00  0.00    +0.154 HD
ENDROOT
BRANCH   1  19
ATOM     13  F   UNL     1      32.160 -14.181 -20.292  0.00  0.00    -0.203 F 
ATOM     14  C   UNL     1      32.783 -13.159 -22.344  0.00  0.00    +0.076 C 
ATOM     15  C   UNL     1      32.277 -13.079 -21.047  0.00  0.00    +0.155 C 
ATOM     16  C   UNL     1      32.901 -12.005 -23.118  0.00  0.00    +0.018 C 
ATOM     17  C   UNL     1      31.887 -11.845 -20.525  0.00  0.00    +0.046 C 
ATOM     18  C   UNL     1      32.512 -10.771 -22.597  0.00  0.00    +0.017 C 
ATOM     19  C   UNL     1      32.005 -10.691 -21.300  0.00  0.00    +0.061 C 
BRANCH  14  20
ATOM     20  N   UNL     1      33.176 -14.395 -22.869  0.00  0.00    -0.310 N 
ATOM     21  N   UNL     1      34.160 -16.789 -24.076  0.00  0.00    +0.388 N 
ATOM     22  C   UNL     1      33.004 -14.617 -24.310  0.00  0.00    +0.068 C 
ATOM     23  C   UNL     1      34.271 -15.139 -22.239  0.00  0.00    +0.068 C 
ATOM     24  C   UNL     1      32.976 -16.115 -24.623  0.00  0.00    -0.056 C 
ATOM     25  C   UNL     1      34.203 -16.620 -22.619  0.00  0.00    -0.056 C 
ATOM     26  C   UNL     1      34.149 -18.209 -24.428  0.00  0.00    -0.101 C 
ATOM     27  H   UNL     1      34.995 -16.368 -24.481  0.00  0.00    -0.080 HD
ENDBRANCH  14  20
ENDBRANCH   1  19
BRANCH   8  28
ATOM     28  O   UNL     1      31.371  -6.908 -24.692  0.00  0.00    -0.429 OA
BRANCH  28  29
ATOM     29  C   UNL     1      32.383  -6.114 -25.191  0.00  0.00    +0.149 C 
ATOM     30  C   UNL     1      32.127  -5.242 -26.250  0.00  0.00    +0.052 C 
ATOM     31  C   UNL     1      33.661  -6.181 -24.638  0.00  0.00    +0.038 C 
ATOM     32  C   UNL     1      33.149  -4.438 -26.754  0.00  0.00    +0.054 C 
ATOM     33  C   UNL     1      34.427  -4.505 -26.200  0.00  0.00    +0.015 C 
ATOM     34  C   UNL     1      34.683  -5.376 -25.141  0.00  0.00    +0.004 C 
BRANCH  32  36
ATOM     35  O   UNL     1      33.574  -4.784 -29.706  0.00  0.00    -0.270 OA
ATOM     36  N   UNL     1      32.892  -3.565 -27.813  0.00  0.00    -0.280 N 
ATOM     37  C   UNL     1      33.110  -3.779 -29.180  0.00  0.00    +0.250 C 
ATOM     38  H   UNL     1      32.509  -2.692 -27.568  0.00  0.00    +0.155 HD
BRANCH  37  39
ATOM     39  C   UNL     1      32.703  -2.597 -29.994  0.00  0.00    +0.058 C 
ATOM     40  C   UNL     1      31.603  -1.905 -29.683  0.00  0.00    +0.005 C 
ENDBRANCH  37  39
ENDBRANCH  32  36
ENDBRANCH  28  29
ENDBRANCH   8  28
TORSDOF 6
ENDMDL
MODEL 8
REMARK VINA RESULT:      -9.6      1.635      2.110
REMARK  Name = 72734520
REMARK  6 active torsions:
REMARK  status: ('A' for Active; 'I' for Inactive)
REMARK    1  A    between atoms: N_1  and  C_19
REMARK    2  A    between atoms: C_8  and  O_28
REMARK    3  A    between atoms: C_14  and  N_20
REMARK    4  A    between atoms: O_28  and  C_29
REMARK    5  A    between atoms: C_32  and  N_36
REMARK    6  A    between atoms: C_37  and  C_39
REMARK                            x       y       z     vdW  Elec       q    Type
REMARK                         _______ _______ _______ _____ _____    ______ ____
ROOT
ATOM      1  N   UNL     1      36.464 -21.037 -17.672  0.00  0.00    -0.238 N 
ATOM      2  N   UNL     1      36.713 -22.469 -15.847  0.00  0.00    -0.316 NA
ATOM      3  N   UNL     1      34.649 -22.408 -17.136  0.00  0.00    -0.294 NA
ATOM      4  N   UNL     1      36.640 -24.052 -14.029  0.00  0.00    -0.289 N 
ATOM      5  C   UNL     1      35.912 -22.028 -16.838  0.00  0.00    +0.207 C 
ATOM      6  C   UNL     1      34.809 -23.896 -15.294  0.00  0.00    +0.181 C 
ATOM      7  C   UNL     1      36.096 -23.407 -15.108  0.00  0.00    +0.188 C 
ATOM      8  C   UNL     1      34.083 -23.357 -16.356  0.00  0.00    +0.281 C 
ATOM      9  C   UNL     1      34.585 -24.867 -14.285  0.00  0.00    +0.008 C 
ATOM     10  C   UNL     1      35.730 -24.942 -13.521  0.00  0.00    +0.060 C 
ATOM     11  H   UNL     1      37.383 -20.781 -17.430  0.00  0.00    +0.166 HD
ATOM     12  H   UNL     1      37.546 -23.901 -13.674  0.00  0.00    +0.154 HD
ENDROOT
BRANCH   1  19
ATOM     13  F   UNL     1      37.047 -17.848 -21.203  0.00  0.00    -0.203 F 
ATOM     14  C   UNL     1      34.958 -18.960 -20.999  0.00  0.00    +0.076 C 
ATOM     15  C   UNL     1      36.264 -18.730 -20.566  0.00  0.00    +0.155 C 
ATOM     16  C   UNL     1      34.152 -19.878 -20.326  0.00  0.00    +0.018 C 
ATOM     17  C   UNL     1      36.764 -19.421 -19.462  0.00  0.00    +0.046 C 
ATOM     18  C   UNL     1      34.652 -20.568 -19.222  0.00  0.00    +0.017 C 
ATOM     19  C   UNL     1      35.958 -20.339 -18.790  0.00  0.00    +0.061 C 
BRANCH  14  20
ATOM     20  N   UNL     1      34.453 -18.268 -22.106  0.00  0.00    -0.310 N 
ATOM     21  N   UNL     1      33.187 -16.875 -24.254  0.00  0.00    +0.388 N 
ATOM     22  C   UNL     1      33.522 -18.975 -22.994  0.00  0.00    +0.068 C 
ATOM     23  C   UNL     1      34.286 -16.813 -22.040  0.00  0.00    +0.068 C 
ATOM     24  C   UNL     1      33.483 -18.309 -24.371  0.00  0.00    -0.056 C 
ATOM     25  C   UNL     1      34.222 -16.216 -23.448  0.00  0.00    -0.056 C 
ATOM     26  C   UNL     1      33.099 -16.260 -25.579  0.00  0.00    -0.101 C 
ATOM     27  H   UNL     1      32.287 -16.762 -23.790  0.00  0.00    -0.080 HD
ENDBRANCH  14  20
ENDBRANCH   1  19
BRANCH   8  28
ATOM     28  O   UNL     1      32.802 -23.755 -16.647  0.00  0.00    -0.429 OA
BRANCH  28  29
ATOM     29  C   UNL     1      31.780 -23.173 -15.924  0.00  0.00    +0.149 C 
ATOM     30  C   UNL     1      30.590 -22.821 -16.561  0.00  0.00    +0.052 C 
ATOM     31  C   UNL     1      31.936 -22.939 -14.559  0.00  0.00    +0.038 C 
ATOM     32  C   UNL     1      29.556 -22.235 -15.832  0.00  0.00    +0.054 C 
ATOM     33  C   UNL     1      29.711 -22.001 -14.466  0.00  0.00    +0.015 C 
ATOM     34  C   UNL     1      30.901 -22.353 -13.829  0.00  0.00    +0.004 C 
BRANCH  32  36
ATOM     35  O   UNL     1      27.359 -23.959 -16.937  0.00  0.00    -0.270 OA
ATOM     36  N   UNL     1      28.365 -21.883 -16.469  0.00  0.00    -0.280 N 
ATOM     37  C   UNL     1      27.368 -22.734 -16.967  0.00  0.00    +0.250 C 
ATOM     38  H   UNL     1      28.204 -20.919 -16.581  0.00  0.00    +0.155 HD
BRANCH  37  39
ATOM     39  C   UNL     1      26.246 -21.967 -17.580  0.00  0.00    +0.058 C 
ATOM     40  C   UNL     1      25.670 -20.959 -16.918  0.00  0.00    +0.005 C 
ENDBRANCH  37  39
ENDBRANCH  32  36
ENDBRANCH  28  29
ENDBRANCH   8  28
TORSDOF 6
ENDMDL
MODEL 9
REMARK VINA RESULT:      -9.4      1.731      2.364
REMARK  Name = 72734520
REMARK  6 active torsions:
REMARK  status: ('A' for Active; 'I' for Inactive)
REMARK    1  A    between atoms: N_1  and  C_19
REMARK    2  A    between atoms: C_8  and  O_28
REMARK    3  A    between atoms: C_14  and  N_20
REMARK    4  A    between atoms: O_28  and  C_29
REMARK    5  A    between atoms: C_32  and  N_36
REMARK    6  A    between atoms: C_37  and  C_39
REMARK                            x       y       z     vdW  Elec       q    Type
REMARK                         _______ _______ _______ _____ _____    ______ ____
ROOT
ATOM      1  N   UNL     1      37.286 -22.069 -15.408  0.00  0.00    -0.238 N 
ATOM      2  N   UNL     1      37.408 -23.120 -13.328  0.00  0.00    -0.316 NA
ATOM      3  N   UNL     1      35.270 -22.472 -14.295  0.00  0.00    -0.294 NA
ATOM      4  N   UNL     1      37.183 -24.179 -11.173  0.00  0.00    -0.289 N 
ATOM      5  C   UNL     1      36.618 -22.584 -14.279  0.00  0.00    +0.207 C 
ATOM      6  C   UNL     1      35.295 -23.534 -12.173  0.00  0.00    +0.181 C 
ATOM      7  C   UNL     1      36.679 -23.579 -12.296  0.00  0.00    +0.188 C 
ATOM      8  C   UNL     1      34.593 -22.953 -13.228  0.00  0.00    +0.281 C 
ATOM      9  C   UNL     1      34.971 -24.131 -10.928  0.00  0.00    +0.008 C 
ATOM     10  C   UNL     1      36.153 -24.519 -10.334  0.00  0.00    +0.060 C 
ATOM     11  H   UNL     1      38.265 -22.165 -15.366  0.00  0.00    +0.166 HD
ATOM     12  H   UNL     1      38.138 -24.342 -10.995  0.00  0.00    +0.154 HD
ENDROOT
BRANCH   1  19
ATOM     13  F   UNL     1      34.617 -22.140 -19.389  0.00  0.00    -0.203 F 
ATOM     14  C   UNL     1      35.919 -20.210 -18.918  0.00  0.00    +0.076 C 
ATOM     15  C   UNL     1      35.477 -21.491 -18.591  0.00  0.00    +0.155 C 
ATOM     16  C   UNL     1      36.816 -19.547 -18.081  0.00  0.00    +0.018 C 
ATOM     17  C   UNL     1      35.931 -22.109 -17.424  0.00  0.00    +0.046 C 
ATOM     18  C   UNL     1      37.269 -20.163 -16.915  0.00  0.00    +0.017 C 
ATOM     19  C   UNL     1      36.827 -21.444 -16.587  0.00  0.00    +0.061 C 
BRANCH  14  20
ATOM     20  N   UNL     1      35.467 -19.589 -20.088  0.00  0.00    -0.310 N 
ATOM     21  N   UNL     1      34.695 -18.488 -22.607  0.00  0.00    +0.388 N 
ATOM     22  C   UNL     1      36.447 -18.862 -20.905  0.00  0.00    +0.068 C 
ATOM     23  C   UNL     1      34.326 -20.151 -20.816  0.00  0.00    +0.068 C 
ATOM     24  C   UNL     1      35.745 -17.845 -21.807  0.00  0.00    -0.056 C 
ATOM     25  C   UNL     1      33.693 -19.093 -21.723  0.00  0.00    -0.056 C 
ATOM     26  C   UNL     1      34.068 -17.517 -23.505  0.00  0.00    -0.101 C 
ATOM     27  H   UNL     1      35.117 -19.221 -23.176  0.00  0.00    -0.080 HD
ENDBRANCH  14  20
ENDBRANCH   1  19
BRANCH   8  28
ATOM     28  O   UNL     1      33.224 -22.849 -13.229  0.00  0.00    -0.429 OA
BRANCH  28  29
ATOM     29  C   UNL     1      32.595 -22.805 -14.457  0.00  0.00    +0.149 C 
ATOM     30  C   UNL     1      31.252 -22.436 -14.538  0.00  0.00    +0.052 C 
ATOM     31  C   UNL     1      33.300 -23.130 -15.615  0.00  0.00    +0.038 C 
ATOM     32  C   UNL     1      30.615 -22.391 -15.778  0.00  0.00    +0.054 C 
ATOM     33  C   UNL     1      31.321 -22.715 -16.937  0.00  0.00    +0.015 C 
ATOM     34  C   UNL     1      32.663 -23.083 -16.856  0.00  0.00    +0.004 C 
BRANCH  32  36
ATOM     35  O   UNL     1      28.154 -24.070 -16.148  0.00  0.00    -0.270 OA
ATOM     36  N   UNL     1      29.272 -22.020 -15.860  0.00  0.00    -0.280 N 
ATOM     37  C   UNL     1      28.156 -22.850 -16.033  0.00  0.00    +0.250 C 
ATOM     38  H   UNL     1      29.086 -21.056 -15.785  0.00  0.00    +0.155 HD
BRANCH  37  39
ATOM     39  C   UNL     1      26.888 -22.067 -16.069  0.00  0.00    +0.058 C 
ATOM     40  C   UNL     1      26.360 -21.681 -17.235  0.00  0.00    +0.005 C 
ENDBRANCH  37  39
ENDBRANCH  32  36
ENDBRANCH  28  29
ENDBRANCH   8  28
TORSDOF 6
ENDMDL
