MODEL 1
REMARK VINA RESULT:     -10.5      0.000      0.000
REMARK  Name = 9919680
REMARK  5 active torsions:
REMARK  status: ('A' for Active; 'I' for Inactive)
REMARK    1  A    between atoms: N_2  and  C_12
REMARK    2  A    between atoms: C_4  and  C_29
REMARK    3  A    between atoms: C_15  and  C_18
REMARK    4  A    between atoms: C_19  and  C_22
REMARK    5  A    between atoms: N_28  and  C_31
REMARK                            x       y       z     vdW  Elec       q    Type
REMARK                         _______ _______ _______ _____ _____    ______ ____
ROOT
ATOM      1  O   UNL     1      34.435 -16.107 -23.895  0.00  0.00    -0.286 OA
ATOM      2  N   UNL     1      32.682 -12.693 -22.461  0.00  0.00    -0.250 N 
ATOM      3  N   UNL     1      32.184 -12.003 -24.744  0.00  0.00    -0.228 NA
ATOM      4  C   UNL     1      33.784 -14.826 -22.020  0.00  0.00    +0.107 C 
ATOM      5  C   UNL     1      33.202 -13.685 -21.634  0.00  0.00    +0.079 C 
ATOM      6  C   UNL     1      33.900 -15.092 -23.471  0.00  0.00    +0.204 C 
ATOM      7  C   UNL     1      33.335 -14.073 -24.386  0.00  0.00    +0.071 C 
ATOM      8  C   UNL     1      32.737 -12.903 -23.886  0.00  0.00    +0.142 C 
ATOM      9  C   UNL     1      33.384 -14.295 -25.766  0.00  0.00    +0.008 C 
ATOM     10  C   UNL     1      32.834 -13.362 -26.630  0.00  0.00    +0.021 C 
ATOM     11  C   UNL     1      32.248 -12.244 -26.073  0.00  0.00    +0.100 C 
ENDROOT
BRANCH   2  12
ATOM     12  C   UNL     1      32.119 -11.507 -21.877  0.00  0.00    +0.058 C 
ATOM     13  C   UNL     1      32.077 -10.313 -22.606  0.00  0.00    +0.023 C 
ATOM     14  C   UNL     1      31.606 -11.535 -20.576  0.00  0.00    +0.015 C 
ATOM     15  C   UNL     1      31.529  -9.162 -22.041  0.00  0.00    +0.043 C 
ATOM     16  C   UNL     1      31.059 -10.384 -20.010  0.00  0.00    +0.002 C 
ATOM     17  C   UNL     1      31.020  -9.196 -20.742  0.00  0.00    +0.008 C 
BRANCH  15  18
ATOM     18  C   UNL     1      31.488  -7.946 -22.790  0.00  0.00    -0.060 C 
ATOM     19  C   UNL     1      31.455  -6.922 -23.421  0.00  0.00    -0.058 C 
BRANCH  19  22
ATOM     20  O   UNL     1      29.983  -2.440 -23.956  0.00  0.00    -0.163 OA
ATOM     21  N   UNL     1      30.643  -3.433 -24.403  0.00  0.00    -0.127 N 
ATOM     22  C   UNL     1      31.415  -5.705 -24.172  0.00  0.00    +0.063 C 
ATOM     23  C   UNL     1      30.696  -4.617 -23.693  0.00  0.00    +0.129 C 
ATOM     24  C   UNL     1      32.091  -5.606 -25.381  0.00  0.00    +0.012 C 
ATOM     25  C   UNL     1      32.044  -4.419 -26.104  0.00  0.00    +0.023 C 
ATOM     26  C   UNL     1      31.318  -3.342 -25.605  0.00  0.00    +0.121 C 
ENDBRANCH  19  22
ENDBRANCH  15  18
ENDBRANCH   2  12
BRANCH   4  29
ATOM     27  O   UNL     1      34.137 -15.490 -19.792  0.00  0.00    -0.270 OA
ATOM     28  N   UNL     1      34.916 -16.853 -21.511  0.00  0.00    -0.302 N 
ATOM     29  C   UNL     1      34.285 -15.737 -20.989  0.00  0.00    +0.250 C 
ATOM     30  H   UNL     1      34.977 -16.948 -22.489  0.00  0.00    +0.150 HD
BRANCH  28  31
ATOM     31  C   UNL     1      35.484 -17.881 -20.684  0.00  0.00    +0.072 C 
ATOM     32  C   UNL     1      36.526 -18.806 -21.223  0.00  0.00    +0.021 C 
ATOM     33  C   UNL     1      35.149 -19.319 -20.916  0.00  0.00    +0.021 C 
ENDBRANCH  28  31
ENDBRANCH   4  29
TORSDOF 5
ENDMDL
MODEL 2
REMARK VINA RESULT:     -10.4      7.053     12.650
REMARK  Name = 9919680
REMARK  5 active torsions:
REMARK  status: ('A' for Active; 'I' for Inactive)
REMARK    1  A    between atoms: N_2  and  C_12
REMARK    2  A    between atoms: C_4  and  C_29
REMARK    3  A    between atoms: C_15  and  C_18
REMARK    4  A    between atoms: C_19  and  C_22
REMARK    5  A    between atoms: N_28  and  C_31
REMARK                            x       y       z     vdW  Elec       q    Type
REMARK                         _______ _______ _______ _____ _____    ______ ____
ROOT
ATOM      1  O   UNL     1      31.395 -23.210 -12.348  0.00  0.00    -0.286 OA
ATOM      2  N   UNL     1      32.535 -22.892 -16.272  0.00  0.00    -0.250 N 
ATOM      3  N   UNL     1      30.255 -22.278 -16.873  0.00  0.00    -0.228 NA
ATOM      4  C   UNL     1      33.135 -23.313 -13.943  0.00  0.00    +0.107 C 
ATOM      5  C   UNL     1      33.424 -23.195 -15.244  0.00  0.00    +0.079 C 
ATOM      6  C   UNL     1      31.733 -23.102 -13.520  0.00  0.00    +0.204 C 
ATOM      7  C   UNL     1      30.759 -22.750 -14.579  0.00  0.00    +0.071 C 
ATOM      8  C   UNL     1      31.158 -22.646 -15.923  0.00  0.00    +0.142 C 
ATOM      9  C   UNL     1      29.429 -22.502 -14.226  0.00  0.00    +0.008 C 
ATOM     10  C   UNL     1      28.515 -22.146 -15.204  0.00  0.00    +0.021 C 
ATOM     11  C   UNL     1      28.976 -22.045 -16.501  0.00  0.00    +0.100 C 
ENDROOT
BRANCH   2  12
ATOM     12  C   UNL     1      33.009 -22.839 -17.627  0.00  0.00    +0.058 C 
ATOM     13  C   UNL     1      33.196 -21.605 -18.261  0.00  0.00    +0.023 C 
ATOM     14  C   UNL     1      33.290 -24.018 -18.324  0.00  0.00    +0.015 C 
ATOM     15  C   UNL     1      33.657 -21.552 -19.576  0.00  0.00    +0.043 C 
ATOM     16  C   UNL     1      33.751 -23.966 -19.639  0.00  0.00    +0.002 C 
ATOM     17  C   UNL     1      33.934 -22.733 -20.266  0.00  0.00    +0.008 C 
BRANCH  15  18
ATOM     18  C   UNL     1      33.846 -20.290 -20.219  0.00  0.00    -0.060 C 
ATOM     19  C   UNL     1      34.005 -19.228 -20.760  0.00  0.00    -0.058 C 
BRANCH  19  22
ATOM     20  O   UNL     1      34.258 -14.490 -20.577  0.00  0.00    -0.163 OA
ATOM     21  N   UNL     1      34.312 -15.560 -21.264  0.00  0.00    -0.127 N 
ATOM     22  C   UNL     1      34.193 -17.965 -21.404  0.00  0.00    +0.063 C 
ATOM     23  C   UNL     1      34.135 -16.791 -20.662  0.00  0.00    +0.129 C 
ATOM     24  C   UNL     1      34.432 -17.904 -22.771  0.00  0.00    +0.012 C 
ATOM     25  C   UNL     1      34.613 -16.670 -23.388  0.00  0.00    +0.023 C 
ATOM     26  C   UNL     1      34.550 -15.509 -22.625  0.00  0.00    +0.121 C 
ENDBRANCH  19  22
ENDBRANCH  15  18
ENDBRANCH   2  12
BRANCH   4  29
ATOM     27  O   UNL     1      34.266 -23.175 -11.886  0.00  0.00    -0.270 OA
ATOM     28  N   UNL     1      35.126 -24.553 -13.555  0.00  0.00    -0.302 N 
ATOM     29  C   UNL     1      34.216 -23.658 -13.017  0.00  0.00    +0.250 C 
ATOM     30  H   UNL     1      34.985 -24.875 -14.474  0.00  0.00    +0.150 HD
BRANCH  28  31
ATOM     31  C   UNL     1      36.266 -25.032 -12.825  0.00  0.00    +0.072 C 
ATOM     32  C   UNL     1      37.614 -24.421 -13.027  0.00  0.00    +0.021 C 
ATOM     33  C   UNL     1      37.338 -25.814 -13.513  0.00  0.00    +0.021 C 
ENDBRANCH  28  31
ENDBRANCH   4  29
TORSDOF 5
ENDMDL
MODEL 3
REMARK VINA RESULT:     -10.4      3.537      5.667
REMARK  Name = 9919680
REMARK  5 active torsions:
REMARK  status: ('A' for Active; 'I' for Inactive)
REMARK    1  A    between atoms: N_2  and  C_12
REMARK    2  A    between atoms: C_4  and  C_29
REMARK    3  A    between atoms: C_15  and  C_18
REMARK    4  A    between atoms: C_19  and  C_22
REMARK    5  A    between atoms: N_28  and  C_31
REMARK                            x       y       z     vdW  Elec       q    Type
REMARK                         _______ _______ _______ _____ _____    ______ ____
ROOT
ATOM      1  O   UNL     1      32.347 -12.948 -21.078  0.00  0.00    -0.286 OA
ATOM      2  N   UNL     1      31.933  -9.289 -22.876  0.00  0.00    -0.250 N 
ATOM      3  N   UNL     1      31.311  -8.317 -20.729  0.00  0.00    -0.228 NA
ATOM      4  C   UNL     1      32.522 -11.652 -23.045  0.00  0.00    +0.107 C 
ATOM      5  C   UNL     1      32.357 -10.426 -23.557  0.00  0.00    +0.079 C 
ATOM      6  C   UNL     1      32.234 -11.850 -21.608  0.00  0.00    +0.204 C 
ATOM      7  C   UNL     1      31.805 -10.658 -20.839  0.00  0.00    +0.071 C 
ATOM      8  C   UNL     1      31.662  -9.408 -21.464  0.00  0.00    +0.142 C 
ATOM      9  C   UNL     1      31.557 -10.785 -19.469  0.00  0.00    +0.008 C 
ATOM     10  C   UNL     1      31.182  -9.671 -18.735  0.00  0.00    +0.021 C 
ATOM     11  C   UNL     1      31.077  -8.470 -19.406  0.00  0.00    +0.100 C 
ENDROOT
BRANCH   2  12
ATOM     12  C   UNL     1      31.776  -8.052 -23.589  0.00  0.00    +0.058 C 
ATOM     13  C   UNL     1      32.859  -7.491 -24.277  0.00  0.00    +0.023 C 
ATOM     14  C   UNL     1      30.540  -7.398 -23.606  0.00  0.00    +0.015 C 
ATOM     15  C   UNL     1      32.707  -6.291 -24.971  0.00  0.00    +0.043 C 
ATOM     16  C   UNL     1      30.388  -6.197 -24.299  0.00  0.00    +0.002 C 
ATOM     17  C   UNL     1      31.471  -5.643 -24.982  0.00  0.00    +0.008 C 
BRANCH  15  18
ATOM     18  C   UNL     1      33.816  -5.724 -25.671  0.00  0.00    -0.060 C 
ATOM     19  C   UNL     1      34.749  -5.246 -26.260  0.00  0.00    -0.058 C 
BRANCH  19  22
ATOM     20  O   UNL     1      37.673  -5.160 -30.000  0.00  0.00    -0.163 OA
ATOM     21  N   UNL     1      37.320  -4.671 -28.879  0.00  0.00    -0.127 N 
ATOM     22  C   UNL     1      35.858  -4.676 -26.961  0.00  0.00    +0.063 C 
ATOM     23  C   UNL     1      36.251  -5.204 -28.185  0.00  0.00    +0.129 C 
ATOM     24  C   UNL     1      36.549  -3.598 -26.424  0.00  0.00    +0.012 C 
ATOM     25  C   UNL     1      37.627  -3.053 -27.113  0.00  0.00    +0.023 C 
ATOM     26  C   UNL     1      38.002  -3.598 -28.337  0.00  0.00    +0.121 C 
ENDBRANCH  19  22
ENDBRANCH  15  18
ENDBRANCH   2  12
BRANCH   4  29
ATOM     27  O   UNL     1      32.679 -12.717 -25.136  0.00  0.00    -0.270 OA
ATOM     28  N   UNL     1      33.699 -13.703 -23.289  0.00  0.00    -0.302 N 
ATOM     29  C   UNL     1      32.962 -12.726 -23.937  0.00  0.00    +0.250 C 
ATOM     30  H   UNL     1      33.865 -13.607 -22.323  0.00  0.00    +0.150 HD
BRANCH  28  31
ATOM     31  C   UNL     1      34.233 -14.851 -23.968  0.00  0.00    +0.072 C 
ATOM     32  C   UNL     1      33.341 -15.973 -24.387  0.00  0.00    +0.021 C 
ATOM     33  C   UNL     1      34.329 -16.170 -23.274  0.00  0.00    +0.021 C 
ENDBRANCH  28  31
ENDBRANCH   4  29
TORSDOF 5
ENDMDL
MODEL 4
REMARK VINA RESULT:     -10.3      2.490     10.236
REMARK  Name = 9919680
REMARK  5 active torsions:
REMARK  status: ('A' for Active; 'I' for Inactive)
REMARK    1  A    between atoms: N_2  and  C_12
REMARK    2  A    between atoms: C_4  and  C_29
REMARK    3  A    between atoms: C_15  and  C_18
REMARK    4  A    between atoms: C_19  and  C_22
REMARK    5  A    between atoms: N_28  and  C_31
REMARK                            x       y       z     vdW  Elec       q    Type
REMARK                         _______ _______ _______ _____ _____    ______ ____
ROOT
ATOM      1  O   UNL     1      32.647  -2.807 -25.754  0.00  0.00    -0.286 OA
ATOM      2  N   UNL     1      31.957  -5.888 -23.142  0.00  0.00    -0.250 N 
ATOM      3  N   UNL     1      30.529  -4.427 -21.815  0.00  0.00    -0.228 NA
ATOM      4  C   UNL     1      32.997  -5.076 -25.196  0.00  0.00    +0.107 C 
ATOM      5  C   UNL     1      32.728  -6.026 -24.293  0.00  0.00    +0.079 C 
ATOM      6  C   UNL     1      32.428  -3.727 -24.978  0.00  0.00    +0.204 C 
ATOM      7  C   UNL     1      31.579  -3.545 -23.778  0.00  0.00    +0.071 C 
ATOM      8  C   UNL     1      31.349  -4.606 -22.886  0.00  0.00    +0.142 C 
ATOM      9  C   UNL     1      30.985  -2.300 -23.548  0.00  0.00    +0.008 C 
ATOM     10  C   UNL     1      30.167  -2.125 -22.443  0.00  0.00    +0.021 C 
ATOM     11  C   UNL     1      29.969  -3.212 -21.616  0.00  0.00    +0.100 C 
ENDROOT
BRANCH   2  12
ATOM     12  C   UNL     1      31.796  -7.009 -22.258  0.00  0.00    +0.058 C 
ATOM     13  C   UNL     1      32.185  -8.290 -22.664  0.00  0.00    +0.023 C 
ATOM     14  C   UNL     1      31.252  -6.829 -20.982  0.00  0.00    +0.015 C 
ATOM     15  C   UNL     1      32.030  -9.378 -21.805  0.00  0.00    +0.043 C 
ATOM     16  C   UNL     1      31.096  -7.916 -20.123  0.00  0.00    +0.002 C 
ATOM     17  C   UNL     1      31.485  -9.192 -20.534  0.00  0.00    +0.008 C 
BRANCH  15  18
ATOM     18  C   UNL     1      32.428 -10.684 -22.226  0.00  0.00    -0.060 C 
ATOM     19  C   UNL     1      32.763 -11.784 -22.580  0.00  0.00    -0.058 C 
BRANCH  19  22
ATOM     20  O   UNL     1      33.089 -15.123 -25.940  0.00  0.00    -0.163 OA
ATOM     21  N   UNL     1      33.304 -14.758 -24.739  0.00  0.00    -0.127 N 
ATOM     22  C   UNL     1      33.162 -13.091 -23.002  0.00  0.00    +0.063 C 
ATOM     23  C   UNL     1      32.930 -13.499 -24.310  0.00  0.00    +0.129 C 
ATOM     24  C   UNL     1      33.777 -13.959 -22.110  0.00  0.00    +0.012 C 
ATOM     25  C   UNL     1      34.159 -15.228 -22.530  0.00  0.00    +0.023 C 
ATOM     26  C   UNL     1      33.917 -15.615 -23.844  0.00  0.00    +0.121 C 
ENDBRANCH  19  22
ENDBRANCH  15  18
ENDBRANCH   2  12
BRANCH   4  29
ATOM     27  O   UNL     1      34.936  -5.976 -26.176  0.00  0.00    -0.270 OA
ATOM     28  N   UNL     1      33.301  -5.053 -27.554  0.00  0.00    -0.302 N 
ATOM     29  C   UNL     1      33.850  -5.419 -26.336  0.00  0.00    +0.250 C 
ATOM     30  H   UNL     1      32.421  -4.611 -27.562  0.00  0.00    +0.150 HD
BRANCH  28  31
ATOM     31  C   UNL     1      33.962  -5.292 -28.806  0.00  0.00    +0.072 C 
ATOM     32  C   UNL     1      33.665  -4.445 -30.000  0.00  0.00    +0.021 C 
ATOM     33  C   UNL     1      33.217  -5.878 -29.962  0.00  0.00    +0.021 C 
ENDBRANCH  28  31
ENDBRANCH   4  29
TORSDOF 5
ENDMDL
MODEL 5
REMARK VINA RESULT:     -10.1      7.347     12.999
REMARK  Name = 9919680
REMARK  5 active torsions:
REMARK  status: ('A' for Active; 'I' for Inactive)
REMARK    1  A    between atoms: N_2  and  C_12
REMARK    2  A    between atoms: C_4  and  C_29
REMARK    3  A    between atoms: C_15  and  C_18
REMARK    4  A    between atoms: C_19  and  C_22
REMARK    5  A    between atoms: N_28  and  C_31
REMARK                            x       y       z     vdW  Elec       q    Type
REMARK                         _______ _______ _______ _____ _____    ______ ____
ROOT
ATOM      1  O   UNL     1      34.147 -23.168 -11.905  0.00  0.00    -0.286 OA
ATOM      2  N   UNL     1      33.750 -23.001 -15.980  0.00  0.00    -0.250 N 
ATOM      3  N   UNL     1      31.330 -22.864 -15.727  0.00  0.00    -0.228 NA
ATOM      4  C   UNL     1      35.200 -23.097 -14.018  0.00  0.00    +0.107 C 
ATOM      5  C   UNL     1      34.984 -23.046 -15.338  0.00  0.00    +0.079 C 
ATOM      6  C   UNL     1      34.024 -23.105 -13.121  0.00  0.00    +0.204 C 
ATOM      7  C   UNL     1      32.690 -23.032 -13.763  0.00  0.00    +0.071 C 
ATOM      8  C   UNL     1      32.563 -22.977 -15.161  0.00  0.00    +0.142 C 
ATOM      9  C   UNL     1      31.548 -22.997 -12.957  0.00  0.00    +0.008 C 
ATOM     10  C   UNL     1      30.297 -22.900 -13.545  0.00  0.00    +0.021 C 
ATOM     11  C   UNL     1      30.243 -22.834 -14.922  0.00  0.00    +0.100 C 
ENDROOT
BRANCH   2  12
ATOM     12  C   UNL     1      33.697 -22.984 -17.415  0.00  0.00    +0.058 C 
ATOM     13  C   UNL     1      33.840 -21.779 -18.113  0.00  0.00    +0.023 C 
ATOM     14  C   UNL     1      33.504 -24.171 -18.129  0.00  0.00    +0.015 C 
ATOM     15  C   UNL     1      33.790 -21.762 -19.506  0.00  0.00    +0.043 C 
ATOM     16  C   UNL     1      33.453 -24.154 -19.523  0.00  0.00    +0.002 C 
ATOM     17  C   UNL     1      33.596 -22.950 -20.212  0.00  0.00    +0.008 C 
BRANCH  15  18
ATOM     18  C   UNL     1      33.937 -20.528 -20.213  0.00  0.00    -0.060 C 
ATOM     19  C   UNL     1      34.061 -19.491 -20.808  0.00  0.00    -0.058 C 
BRANCH  19  22
ATOM     20  O   UNL     1      33.931 -17.003 -24.851  0.00  0.00    -0.163 OA
ATOM     21  N   UNL     1      34.131 -17.034 -23.594  0.00  0.00    -0.127 N 
ATOM     22  C   UNL     1      34.208 -18.257 -21.516  0.00  0.00    +0.063 C 
ATOM     23  C   UNL     1      33.993 -18.214 -22.889  0.00  0.00    +0.129 C 
ATOM     24  C   UNL     1      34.567 -17.098 -20.840  0.00  0.00    +0.012 C 
ATOM     25  C   UNL     1      34.709 -15.904 -21.539  0.00  0.00    +0.023 C 
ATOM     26  C   UNL     1      34.489 -15.886 -22.913  0.00  0.00    +0.121 C 
ENDBRANCH  19  22
ENDBRANCH  15  18
ENDBRANCH   2  12
BRANCH   4  29
ATOM     27  O   UNL     1      37.055 -22.264 -12.838  0.00  0.00    -0.270 OA
ATOM     28  N   UNL     1      37.252 -24.295 -13.960  0.00  0.00    -0.302 N 
ATOM     29  C   UNL     1      36.582 -23.158 -13.540  0.00  0.00    +0.250 C 
ATOM     30  H   UNL     1      36.773 -24.946 -14.521  0.00  0.00    +0.150 HD
BRANCH  28  31
ATOM     31  C   UNL     1      38.619 -24.564 -13.609  0.00  0.00    +0.072 C 
ATOM     32  C   UNL     1      39.701 -24.486 -14.636  0.00  0.00    +0.021 C 
ATOM     33  C   UNL     1      39.293 -25.815 -14.070  0.00  0.00    +0.021 C 
ENDBRANCH  28  31
ENDBRANCH   4  29
TORSDOF 5
ENDMDL
MODEL 6
REMARK VINA RESULT:      -9.8      2.471     10.352
REMARK  Name = 9919680
REMARK  5 active torsions:
REMARK  status: ('A' for Active; 'I' for Inactive)
REMARK    1  A    between atoms: N_2  and  C_12
REMARK    2  A    between atoms: C_4  and  C_29
REMARK    3  A    between atoms: C_15  and  C_18
REMARK    4  A    between atoms: C_19  and  C_22
REMARK    5  A    between atoms: N_28  and  C_31
REMARK                            x       y       z     vdW  Elec       q    Type
REMARK                         _______ _______ _______ _____ _____    ______ ____
ROOT
ATOM      1  O   UNL     1      32.056  -2.672 -26.378  0.00  0.00    -0.286 OA
ATOM      2  N   UNL     1      31.687  -5.737 -23.682  0.00  0.00    -0.250 N 
ATOM      3  N   UNL     1      30.552  -4.229 -22.141  0.00  0.00    -0.228 NA
ATOM      4  C   UNL     1      32.407  -4.955 -25.880  0.00  0.00    +0.107 C 
ATOM      5  C   UNL     1      32.253  -5.899 -24.943  0.00  0.00    +0.079 C 
ATOM      6  C   UNL     1      31.932  -3.588 -25.574  0.00  0.00    +0.204 C 
ATOM      7  C   UNL     1      31.299  -3.378 -24.252  0.00  0.00    +0.071 C 
ATOM      8  C   UNL     1      31.178  -4.434 -23.332  0.00  0.00    +0.142 C 
ATOM      9  C   UNL     1      30.798  -2.113 -23.930  0.00  0.00    +0.008 C 
ATOM     10  C   UNL     1      30.179  -1.912 -22.706  0.00  0.00    +0.021 C 
ATOM     11  C   UNL     1      30.079  -2.994 -21.856  0.00  0.00    +0.100 C 
ENDROOT
BRANCH   2  12
ATOM     12  C   UNL     1      31.631  -6.854 -22.781  0.00  0.00    +0.058 C 
ATOM     13  C   UNL     1      32.015  -8.129 -23.213  0.00  0.00    +0.023 C 
ATOM     14  C   UNL     1      31.194  -6.678 -21.464  0.00  0.00    +0.015 C 
ATOM     15  C   UNL     1      31.962  -9.214 -22.338  0.00  0.00    +0.043 C 
ATOM     16  C   UNL     1      31.140  -7.763 -20.590  0.00  0.00    +0.002 C 
ATOM     17  C   UNL     1      31.524  -9.032 -21.026  0.00  0.00    +0.008 C 
BRANCH  15  18
ATOM     18  C   UNL     1      32.356 -10.513 -22.785  0.00  0.00    -0.060 C 
ATOM     19  C   UNL     1      32.686 -11.607 -23.160  0.00  0.00    -0.058 C 
BRANCH  19  22
ATOM     20  O   UNL     1      34.758 -15.803 -22.353  0.00  0.00    -0.163 OA
ATOM     21  N   UNL     1      34.143 -15.025 -23.152  0.00  0.00    -0.127 N 
ATOM     22  C   UNL     1      33.079 -12.908 -23.605  0.00  0.00    +0.063 C 
ATOM     23  C   UNL     1      33.752 -13.764 -22.742  0.00  0.00    +0.129 C 
ATOM     24  C   UNL     1      32.794 -13.322 -24.900  0.00  0.00    +0.012 C 
ATOM     25  C   UNL     1      33.182 -14.588 -25.324  0.00  0.00    +0.023 C 
ATOM     26  C   UNL     1      33.855 -15.428 -24.442  0.00  0.00    +0.121 C 
ENDBRANCH  19  22
ENDBRANCH  15  18
ENDBRANCH   2  12
BRANCH   4  29
ATOM     27  O   UNL     1      32.598  -6.231 -27.846  0.00  0.00    -0.270 OA
ATOM     28  N   UNL     1      34.166  -4.561 -27.429  0.00  0.00    -0.302 N 
ATOM     29  C   UNL     1      33.047  -5.325 -27.144  0.00  0.00    +0.250 C 
ATOM     30  H   UNL     1      34.435  -3.860 -26.792  0.00  0.00    +0.150 HD
BRANCH  28  31
ATOM     31  C   UNL     1      34.952  -4.748 -28.617  0.00  0.00    +0.072 C 
ATOM     32  C   UNL     1      36.348  -5.274 -28.535  0.00  0.00    +0.021 C 
ATOM     33  C   UNL     1      36.102  -3.844 -28.921  0.00  0.00    +0.021 C 
ENDBRANCH  28  31
ENDBRANCH   4  29
TORSDOF 5
ENDMDL
MODEL 7
REMARK VINA RESULT:      -9.8      7.833     13.164
REMARK  Name = 9919680
REMARK  5 active torsions:
REMARK  status: ('A' for Active; 'I' for Inactive)
REMARK    1  A    between atoms: N_2  and  C_12
REMARK    2  A    between atoms: C_4  and  C_29
REMARK    3  A    between atoms: C_15  and  C_18
REMARK    4  A    between atoms: C_19  and  C_22
REMARK    5  A    between atoms: N_28  and  C_31
REMARK                            x       y       z     vdW  Elec       q    Type
REMARK                         _______ _______ _______ _____ _____    ______ ____
ROOT
ATOM      1  O   UNL     1      30.488 -23.791 -13.512  0.00  0.00    -0.286 OA
ATOM      2  N   UNL     1      33.628 -22.537 -15.827  0.00  0.00    -0.250 N 
ATOM      3  N   UNL     1      35.183 -23.311 -14.118  0.00  0.00    -0.228 NA
ATOM      4  C   UNL     1      31.222 -22.836 -15.544  0.00  0.00    +0.107 C 
ATOM      5  C   UNL     1      32.300 -22.448 -16.235  0.00  0.00    +0.079 C 
ATOM      6  C   UNL     1      31.430 -23.429 -14.205  0.00  0.00    +0.204 C 
ATOM      7  C   UNL     1      32.831 -23.567 -13.744  0.00  0.00    +0.071 C 
ATOM      8  C   UNL     1      33.902 -23.133 -14.543  0.00  0.00    +0.142 C 
ATOM      9  C   UNL     1      33.083 -24.158 -12.501  0.00  0.00    +0.008 C 
ATOM     10  C   UNL     1      34.391 -24.317 -12.072  0.00  0.00    +0.021 C 
ATOM     11  C   UNL     1      35.396 -23.884 -12.912  0.00  0.00    +0.100 C 
ENDROOT
BRANCH   2  12
ATOM     12  C   UNL     1      34.668 -22.038 -16.684  0.00  0.00    +0.058 C 
ATOM     13  C   UNL     1      34.346 -21.310 -17.835  0.00  0.00    +0.023 C 
ATOM     14  C   UNL     1      36.011 -22.274 -16.374  0.00  0.00    +0.015 C 
ATOM     15  C   UNL     1      35.355 -20.824 -18.666  0.00  0.00    +0.043 C 
ATOM     16  C   UNL     1      37.021 -21.789 -17.205  0.00  0.00    +0.002 C 
ATOM     17  C   UNL     1      36.694 -21.064 -18.352  0.00  0.00    +0.008 C 
BRANCH  15  18
ATOM     18  C   UNL     1      35.020 -20.081 -19.840  0.00  0.00    -0.060 C 
ATOM     19  C   UNL     1      34.739 -19.456 -20.827  0.00  0.00    -0.058 C 
BRANCH  19  22
ATOM     20  O   UNL     1      34.635 -15.368 -23.240  0.00  0.00    -0.163 OA
ATOM     21  N   UNL     1      34.372 -16.612 -23.190  0.00  0.00    -0.127 N 
ATOM     22  C   UNL     1      34.405 -18.711 -22.002  0.00  0.00    +0.063 C 
ATOM     23  C   UNL     1      34.687 -17.351 -22.066  0.00  0.00    +0.129 C 
ATOM     24  C   UNL     1      33.795 -19.338 -23.080  0.00  0.00    +0.012 C 
ATOM     25  C   UNL     1      33.473 -18.604 -24.217  0.00  0.00    +0.023 C 
ATOM     26  C   UNL     1      33.765 -17.245 -24.258  0.00  0.00    +0.121 C 
ENDBRANCH  19  22
ENDBRANCH  15  18
ENDBRANCH   2  12
BRANCH   4  29
ATOM     27  O   UNL     1      29.764 -22.010 -17.194  0.00  0.00    -0.270 OA
ATOM     28  N   UNL     1      28.880 -23.223 -15.414  0.00  0.00    -0.302 N 
ATOM     29  C   UNL     1      29.901 -22.639 -16.145  0.00  0.00    +0.250 C 
ATOM     30  H   UNL     1      29.107 -23.704 -14.586  0.00  0.00    +0.150 HD
BRANCH  28  31
ATOM     31  C   UNL     1      27.502 -23.157 -15.815  0.00  0.00    +0.072 C 
ATOM     32  C   UNL     1      27.056 -22.181 -16.855  0.00  0.00    +0.021 C 
ATOM     33  C   UNL     1      26.648 -21.995 -15.422  0.00  0.00    +0.021 C 
ENDBRANCH  28  31
ENDBRANCH   4  29
TORSDOF 5
ENDMDL
MODEL 8
REMARK VINA RESULT:      -9.4      4.777      7.835
REMARK  Name = 9919680
REMARK  5 active torsions:
REMARK  status: ('A' for Active; 'I' for Inactive)
REMARK    1  A    between atoms: N_2  and  C_12
REMARK    2  A    between atoms: C_4  and  C_29
REMARK    3  A    between atoms: C_15  and  C_18
REMARK    4  A    between atoms: C_19  and  C_22
REMARK    5  A    between atoms: N_28  and  C_31
REMARK                            x       y       z     vdW  Elec       q    Type
REMARK                         _______ _______ _______ _____ _____    ______ ____
ROOT
ATOM      1  O   UNL     1      31.423  -8.945 -20.522  0.00  0.00    -0.286 OA
ATOM      2  N   UNL     1      32.536  -6.885 -23.885  0.00  0.00    -0.250 N 
ATOM      3  N   UNL     1      31.940  -4.793 -22.787  0.00  0.00    -0.228 NA
ATOM      4  C   UNL     1      32.327  -9.011 -22.703  0.00  0.00    +0.107 C 
ATOM      5  C   UNL     1      32.662  -8.266 -23.763  0.00  0.00    +0.079 C 
ATOM      6  C   UNL     1      31.766  -8.324 -21.519  0.00  0.00    +0.204 C 
ATOM      7  C   UNL     1      31.640  -6.850 -21.597  0.00  0.00    +0.071 C 
ATOM      8  C   UNL     1      32.022  -6.151 -22.755  0.00  0.00    +0.142 C 
ATOM      9  C   UNL     1      31.151  -6.149 -20.490  0.00  0.00    +0.008 C 
ATOM     10  C   UNL     1      31.056  -4.768 -20.541  0.00  0.00    +0.021 C 
ATOM     11  C   UNL     1      31.463  -4.142 -21.701  0.00  0.00    +0.100 C 
ENDROOT
BRANCH   2  12
ATOM     12  C   UNL     1      32.914  -6.244 -25.114  0.00  0.00    +0.058 C 
ATOM     13  C   UNL     1      34.180  -5.662 -25.247  0.00  0.00    +0.023 C 
ATOM     14  C   UNL     1      32.020  -6.197 -26.189  0.00  0.00    +0.015 C 
ATOM     15  C   UNL     1      34.547  -5.041 -26.440  0.00  0.00    +0.043 C 
ATOM     16  C   UNL     1      32.387  -5.575 -27.382  0.00  0.00    +0.002 C 
ATOM     17  C   UNL     1      33.650  -4.996 -27.509  0.00  0.00    +0.008 C 
BRANCH  15  18
ATOM     18  C   UNL     1      35.841  -4.449 -26.570  0.00  0.00    -0.060 C 
ATOM     19  C   UNL     1      36.930  -3.950 -26.679  0.00  0.00    -0.058 C 
BRANCH  19  22
ATOM     20  O   UNL     1      40.243  -1.787 -29.303  0.00  0.00    -0.163 OA
ATOM     21  N   UNL     1      39.879  -2.261 -28.179  0.00  0.00    -0.127 N 
ATOM     22  C   UNL     1      38.225  -3.357 -26.808  0.00  0.00    +0.063 C 
ATOM     23  C   UNL     1      38.632  -2.837 -28.031  0.00  0.00    +0.129 C 
ATOM     24  C   UNL     1      39.082  -3.298 -25.717  0.00  0.00    +0.012 C 
ATOM     25  C   UNL     1      40.339  -2.720 -25.854  0.00  0.00    +0.023 C 
ATOM     26  C   UNL     1      40.725  -2.207 -27.088  0.00  0.00    +0.121 C 
ENDBRANCH  19  22
ENDBRANCH  15  18
ENDBRANCH   2  12
BRANCH   4  29
ATOM     27  O   UNL     1      33.210 -10.966 -23.667  0.00  0.00    -0.270 OA
ATOM     28  N   UNL     1      31.861 -11.150 -21.778  0.00  0.00    -0.302 N 
ATOM     29  C   UNL     1      32.521 -10.460 -22.780  0.00  0.00    +0.250 C 
ATOM     30  H   UNL     1      31.337 -10.640 -21.119  0.00  0.00    +0.150 HD
BRANCH  28  31
ATOM     31  C   UNL     1      31.911 -12.581 -21.657  0.00  0.00    +0.072 C 
ATOM     32  C   UNL     1      31.904 -13.235 -20.315  0.00  0.00    +0.021 C 
ATOM     33  C   UNL     1      33.145 -13.261 -21.159  0.00  0.00    +0.021 C 
ENDBRANCH  28  31
ENDBRANCH   4  29
TORSDOF 5
ENDMDL
MODEL 9
REMARK VINA RESULT:      -9.2      6.759     12.712
REMARK  Name = 9919680
REMARK  5 active torsions:
REMARK  status: ('A' for Active; 'I' for Inactive)
REMARK    1  A    between atoms: N_2  and  C_12
REMARK    2  A    between atoms: C_4  and  C_29
REMARK    3  A    between atoms: C_15  and  C_18
REMARK    4  A    between atoms: C_19  and  C_22
REMARK    5  A    between atoms: N_28  and  C_31
REMARK                            x       y       z     vdW  Elec       q    Type
REMARK                         _______ _______ _______ _____ _____    ______ ____
ROOT
ATOM      1  O   UNL     1      32.205 -23.071 -12.473  0.00  0.00    -0.286 OA
ATOM      2  N   UNL     1      33.211 -22.851 -16.439  0.00  0.00    -0.250 N 
ATOM      3  N   UNL     1      35.570 -22.901 -15.832  0.00  0.00    -0.228 NA
ATOM      4  C   UNL     1      31.483 -22.998 -14.721  0.00  0.00    +0.107 C 
ATOM      5  C   UNL     1      31.894 -22.920 -15.992  0.00  0.00    +0.079 C 
ATOM      6  C   UNL     1      32.510 -23.018 -13.657  0.00  0.00    +0.204 C 
ATOM      7  C   UNL     1      33.926 -22.973 -14.092  0.00  0.00    +0.071 C 
ATOM      8  C   UNL     1      34.263 -22.895 -15.454  0.00  0.00    +0.142 C 
ATOM      9  C   UNL     1      34.936 -23.029 -13.126  0.00  0.00    +0.008 C 
ATOM     10  C   UNL     1      36.264 -23.016 -13.523  0.00  0.00    +0.021 C 
ATOM     11  C   UNL     1      36.526 -22.955 -14.876  0.00  0.00    +0.100 C 
ENDROOT
BRANCH   2  12
ATOM     12  C   UNL     1      33.477 -22.737 -17.846  0.00  0.00    +0.058 C 
ATOM     13  C   UNL     1      33.607 -21.476 -18.440  0.00  0.00    +0.023 C 
ATOM     14  C   UNL     1      33.610 -23.884 -18.636  0.00  0.00    +0.015 C 
ATOM     15  C   UNL     1      33.866 -21.364 -19.806  0.00  0.00    +0.043 C 
ATOM     16  C   UNL     1      33.869 -23.773 -20.001  0.00  0.00    +0.002 C 
ATOM     17  C   UNL     1      33.997 -22.513 -20.588  0.00  0.00    +0.008 C 
BRANCH  15  18
ATOM     18  C   UNL     1      33.998 -20.075 -20.407  0.00  0.00    -0.060 C 
ATOM     19  C   UNL     1      34.110 -18.989 -20.912  0.00  0.00    -0.058 C 
BRANCH  19  22
ATOM     20  O   UNL     1      34.198 -14.255 -20.559  0.00  0.00    -0.163 OA
ATOM     21  N   UNL     1      34.279 -15.297 -21.286  0.00  0.00    -0.127 N 
ATOM     22  C   UNL     1      34.243 -17.697 -21.512  0.00  0.00    +0.063 C 
ATOM     23  C   UNL     1      34.155 -16.554 -20.727  0.00  0.00    +0.129 C 
ATOM     24  C   UNL     1      34.458 -17.578 -22.879  0.00  0.00    +0.012 C 
ATOM     25  C   UNL     1      34.585 -16.318 -23.453  0.00  0.00    +0.023 C 
ATOM     26  C   UNL     1      34.493 -15.188 -22.647  0.00  0.00    +0.121 C 
ENDBRANCH  19  22
ENDBRANCH  15  18
ENDBRANCH   2  12
BRANCH   4  29
ATOM     27  O   UNL     1      29.607 -23.085 -13.306  0.00  0.00    -0.270 OA
ATOM     28  N   UNL     1      29.279 -23.033 -15.611  0.00  0.00    -0.302 N 
ATOM     29  C   UNL     1      30.043 -23.043 -14.456  0.00  0.00    +0.250 C 
ATOM     30  H   UNL     1      29.737 -22.998 -16.481  0.00  0.00    +0.150 HD
BRANCH  28  31
ATOM     31  C   UNL     1      27.843 -23.071 -15.590  0.00  0.00    +0.072 C 
ATOM     32  C   UNL     1      27.049 -22.537 -16.737  0.00  0.00    +0.021 C 
ATOM     33  C   UNL     1      27.049 -21.816 -15.421  0.00  0.00    +0.021 C 
ENDBRANCH  28  31
ENDBRANCH   4  29
TORSDOF 5
ENDMDL
