MODEL 1
REMARK VINA RESULT:     -11.2      0.000      0.000
REMARK  Name = 58298318
REMARK  3 active torsions:
REMARK  status: ('A' for Active; 'I' for Inactive)
REMARK    1  A    between atoms: N_2  and  C_26
REMARK    2  A    between atoms: C_10  and  C_14
REMARK    3  A    between atoms: C_17  and  C_23
REMARK                            x       y       z     vdW  Elec       q    Type
REMARK                         _______ _______ _______ _____ _____    ______ ____
ROOT
ATOM      1  O   UNL     1      33.844 -13.246 -23.027  0.00  0.00    -0.273 OA
ATOM      2  N   UNL     1      34.045 -15.373 -22.113  0.00  0.00    -0.230 N 
ATOM      3  N   UNL     1      34.104 -16.363 -24.707  0.00  0.00    -0.308 N 
ATOM      4  N   UNL     1      34.276 -17.621 -21.284  0.00  0.00    -0.386 NA
ATOM      5  N   UNL     1      34.363 -18.566 -23.898  0.00  0.00    -0.245 NA
ATOM      6  C   UNL     1      34.156 -16.776 -22.338  0.00  0.00    +0.220 C 
ATOM      7  C   UNL     1      34.194 -17.245 -23.646  0.00  0.00    +0.170 C 
ATOM      8  C   UNL     1      33.497 -15.074 -24.500  0.00  0.00    +0.175 C 
ATOM      9  C   UNL     1      33.844 -14.472 -23.158  0.00  0.00    +0.251 C 
ATOM     10  C   UNL     1      34.428 -18.929 -21.554  0.00  0.00    +0.137 C 
ATOM     11  C   UNL     1      34.471 -19.394 -22.843  0.00  0.00    +0.186 C 
ATOM     12  H   UNL     1      34.452 -16.613 -25.592  0.00  0.00    +0.149 HD
ENDROOT
BRANCH  10  14
ATOM     13  N   UNL     1      33.508 -21.224 -18.757  0.00  0.00    -0.407 NA
ATOM     14  C   UNL     1      34.544 -19.802 -20.415  0.00  0.00    +0.049 C 
ATOM     15  C   UNL     1      33.441 -20.399 -19.827  0.00  0.00    +0.111 C 
ATOM     16  C   UNL     1      35.796 -20.067 -19.870  0.00  0.00    -0.014 C 
ATOM     17  C   UNL     1      34.741 -21.458 -18.255  0.00  0.00    +0.146 C 
ATOM     18  C   UNL     1      35.905 -20.911 -18.770  0.00  0.00    +0.088 C 
ATOM     19  C   UNL     1      32.066 -20.158 -20.360  0.00  0.00    +0.066 C 
BRANCH  17  23
ATOM     20  N   UNL     1      35.832 -22.430 -16.275  0.00  0.00    -0.217 N 
ATOM     21  N   UNL     1      33.822 -23.161 -16.725  0.00  0.00    -0.204 NA
ATOM     22  N   UNL     1      35.604 -23.322 -15.299  0.00  0.00    -0.157 NA
ATOM     23  C   UNL     1      34.769 -22.340 -17.118  0.00  0.00    +0.175 C 
ATOM     24  C   UNL     1      34.375 -23.735 -15.616  0.00  0.00    +0.218 C 
ATOM     25  H   UNL     1      36.661 -21.908 -16.368  0.00  0.00    +0.176 HD
ENDBRANCH  17  23
ENDBRANCH  10  14
BRANCH   2  26
ATOM     26  C   UNL     1      34.194 -14.898 -20.743  0.00  0.00    +0.101 C 
ATOM     27  C   UNL     1      32.933 -14.218 -20.250  0.00  0.00    +0.024 C 
ENDBRANCH   2  26
TORSDOF 3
ENDMDL
MODEL 2
REMARK VINA RESULT:     -10.9      0.914      1.660
REMARK  Name = 58298318
REMARK  3 active torsions:
REMARK  status: ('A' for Active; 'I' for Inactive)
REMARK    1  A    between atoms: N_2  and  C_26
REMARK    2  A    between atoms: C_10  and  C_14
REMARK    3  A    between atoms: C_17  and  C_23
REMARK                            x       y       z     vdW  Elec       q    Type
REMARK                         _______ _______ _______ _____ _____    ______ ____
ROOT
ATOM      1  O   UNL     1      33.814 -12.750 -23.249  0.00  0.00    -0.273 OA
ATOM      2  N   UNL     1      33.891 -14.912 -22.400  0.00  0.00    -0.230 N 
ATOM      3  N   UNL     1      33.955 -15.823 -25.021  0.00  0.00    -0.308 N 
ATOM      4  N   UNL     1      33.995 -17.193 -21.637  0.00  0.00    -0.386 NA
ATOM      5  N   UNL     1      34.088 -18.061 -24.278  0.00  0.00    -0.245 NA
ATOM      6  C   UNL     1      33.937 -16.311 -22.666  0.00  0.00    +0.220 C 
ATOM      7  C   UNL     1      33.979 -16.741 -23.987  0.00  0.00    +0.170 C 
ATOM      8  C   UNL     1      33.408 -14.513 -24.786  0.00  0.00    +0.175 C 
ATOM      9  C   UNL     1      33.756 -13.970 -23.419  0.00  0.00    +0.251 C 
ATOM     10  C   UNL     1      34.087 -18.498 -21.946  0.00  0.00    +0.137 C 
ATOM     11  C   UNL     1      34.134 -18.925 -23.248  0.00  0.00    +0.186 C 
ATOM     12  H   UNL     1      34.308 -16.064 -25.908  0.00  0.00    +0.149 HD
ENDROOT
BRANCH  10  14
ATOM     13  N   UNL     1      35.406 -20.545 -19.116  0.00  0.00    -0.407 NA
ATOM     14  C   UNL     1      34.137 -19.410 -20.833  0.00  0.00    +0.049 C 
ATOM     15  C   UNL     1      35.317 -19.695 -20.165  0.00  0.00    +0.111 C 
ATOM     16  C   UNL     1      32.975 -20.037 -20.398  0.00  0.00    -0.014 C 
ATOM     17  C   UNL     1      34.256 -21.136 -18.722  0.00  0.00    +0.146 C 
ATOM     18  C   UNL     1      33.026 -20.917 -19.323  0.00  0.00    +0.088 C 
ATOM     19  C   UNL     1      36.604 -19.057 -20.579  0.00  0.00    +0.066 C 
BRANCH  17  23
ATOM     20  N   UNL     1      33.381 -22.824 -17.160  0.00  0.00    -0.217 N 
ATOM     21  N   UNL     1      35.462 -22.226 -16.868  0.00  0.00    -0.204 NA
ATOM     22  N   UNL     1      33.768 -23.562 -16.109  0.00  0.00    -0.157 NA
ATOM     23  C   UNL     1      34.393 -22.032 -17.605  0.00  0.00    +0.175 C 
ATOM     24  C   UNL     1      35.034 -23.164 -15.973  0.00  0.00    +0.218 C 
ATOM     25  H   UNL     1      32.481 -22.851 -17.558  0.00  0.00    +0.176 HD
ENDBRANCH  17  23
ENDBRANCH  10  14
BRANCH   2  26
ATOM     26  C   UNL     1      34.035 -14.487 -21.012  0.00  0.00    +0.101 C 
ATOM     27  C   UNL     1      32.748 -13.893 -20.477  0.00  0.00    +0.024 C 
ENDBRANCH   2  26
TORSDOF 3
ENDMDL
MODEL 3
REMARK VINA RESULT:     -10.4      4.206      9.797
REMARK  Name = 58298318
REMARK  3 active torsions:
REMARK  status: ('A' for Active; 'I' for Inactive)
REMARK    1  A    between atoms: N_2  and  C_26
REMARK    2  A    between atoms: C_10  and  C_14
REMARK    3  A    between atoms: C_17  and  C_23
REMARK                            x       y       z     vdW  Elec       q    Type
REMARK                         _______ _______ _______ _____ _____    ______ ____
ROOT
ATOM      1  O   UNL     1      38.811 -25.589 -12.501  0.00  0.00    -0.273 OA
ATOM      2  N   UNL     1      37.620 -24.396 -14.100  0.00  0.00    -0.230 N 
ATOM      3  N   UNL     1      35.334 -24.884 -12.604  0.00  0.00    -0.308 N 
ATOM      4  N   UNL     1      36.286 -23.164 -15.680  0.00  0.00    -0.386 NA
ATOM      5  N   UNL     1      34.026 -23.650 -14.134  0.00  0.00    -0.245 NA
ATOM      6  C   UNL     1      36.359 -23.906 -14.547  0.00  0.00    +0.220 C 
ATOM      7  C   UNL     1      35.231 -24.155 -13.774  0.00  0.00    +0.170 C 
ATOM      8  C   UNL     1      36.447 -25.780 -12.429  0.00  0.00    +0.175 C 
ATOM      9  C   UNL     1      37.738 -25.224 -12.985  0.00  0.00    +0.251 C 
ATOM     10  C   UNL     1      35.079 -22.685 -16.028  0.00  0.00    +0.137 C 
ATOM     11  C   UNL     1      33.965 -22.924 -15.265  0.00  0.00    +0.186 C 
ATOM     12  H   UNL     1      34.653 -24.792 -11.899  0.00  0.00    +0.149 HD
ENDROOT
BRANCH  10  14
ATOM     13  N   UNL     1      36.009 -20.244 -18.696  0.00  0.00    -0.407 NA
ATOM     14  C   UNL     1      35.031 -21.909 -17.240  0.00  0.00    +0.049 C 
ATOM     15  C   UNL     1      36.016 -20.992 -17.568  0.00  0.00    +0.111 C 
ATOM     16  C   UNL     1      33.969 -22.067 -18.123  0.00  0.00    -0.014 C 
ATOM     17  C   UNL     1      34.961 -20.426 -19.530  0.00  0.00    +0.146 C 
ATOM     18  C   UNL     1      33.926 -21.316 -19.293  0.00  0.00    +0.088 C 
ATOM     19  C   UNL     1      37.187 -20.769 -16.665  0.00  0.00    +0.066 C 
BRANCH  17  23
ATOM     20  N   UNL     1      36.027 -18.788 -21.025  0.00  0.00    -0.217 N 
ATOM     21  N   UNL     1      34.070 -19.532 -21.649  0.00  0.00    -0.204 NA
ATOM     22  N   UNL     1      35.808 -18.143 -22.181  0.00  0.00    -0.157 NA
ATOM     23  C   UNL     1      34.990 -19.612 -20.716  0.00  0.00    +0.175 C 
ATOM     24  C   UNL     1      34.611 -18.628 -22.518  0.00  0.00    +0.218 C 
ATOM     25  H   UNL     1      36.835 -18.680 -20.472  0.00  0.00    +0.176 HD
ENDBRANCH  17  23
ENDBRANCH  10  14
BRANCH   2  26
ATOM     26  C   UNL     1      38.806 -23.964 -14.831  0.00  0.00    +0.101 C 
ATOM     27  C   UNL     1      39.756 -25.117 -15.081  0.00  0.00    +0.024 C 
ENDBRANCH   2  26
TORSDOF 3
ENDMDL
MODEL 4
REMARK VINA RESULT:     -10.4      6.806      9.653
REMARK  Name = 58298318
REMARK  3 active torsions:
REMARK  status: ('A' for Active; 'I' for Inactive)
REMARK    1  A    between atoms: N_2  and  C_26
REMARK    2  A    between atoms: C_10  and  C_14
REMARK    3  A    between atoms: C_17  and  C_23
REMARK                            x       y       z     vdW  Elec       q    Type
REMARK                         _______ _______ _______ _____ _____    ______ ____
ROOT
ATOM      1  O   UNL     1      38.944 -26.494 -14.275  0.00  0.00    -0.273 OA
ATOM      2  N   UNL     1      37.002 -25.294 -14.709  0.00  0.00    -0.230 N 
ATOM      3  N   UNL     1      38.613 -23.118 -15.322  0.00  0.00    -0.308 N 
ATOM      4  N   UNL     1      35.062 -23.958 -15.205  0.00  0.00    -0.386 NA
ATOM      5  N   UNL     1      36.715 -21.813 -15.840  0.00  0.00    -0.245 NA
ATOM      6  C   UNL     1      36.410 -24.056 -15.095  0.00  0.00    +0.220 C 
ATOM      7  C   UNL     1      37.239 -22.986 -15.407  0.00  0.00    +0.170 C 
ATOM      8  C   UNL     1      39.170 -24.140 -14.474  0.00  0.00    +0.175 C 
ATOM      9  C   UNL     1      38.375 -25.426 -14.509  0.00  0.00    +0.251 C 
ATOM     10  C   UNL     1      34.560 -22.783 -15.622  0.00  0.00    +0.137 C 
ATOM     11  C   UNL     1      35.375 -21.726 -15.935  0.00  0.00    +0.186 C 
ATOM     12  H   UNL     1      39.203 -22.521 -15.834  0.00  0.00    +0.149 HD
ENDROOT
BRANCH  10  14
ATOM     13  N   UNL     1      31.132 -22.490 -17.071  0.00  0.00    -0.407 NA
ATOM     14  C   UNL     1      33.126 -22.705 -15.720  0.00  0.00    +0.049 C 
ATOM     15  C   UNL     1      32.476 -22.566 -16.935  0.00  0.00    +0.111 C 
ATOM     16  C   UNL     1      32.348 -22.770 -14.570  0.00  0.00    -0.014 C 
ATOM     17  C   UNL     1      30.409 -22.556 -15.930  0.00  0.00    +0.146 C 
ATOM     18  C   UNL     1      30.963 -22.695 -14.668  0.00  0.00    +0.088 C 
ATOM     19  C   UNL     1      33.250 -22.490 -18.213  0.00  0.00    +0.066 C 
BRANCH  17  23
ATOM     20  N   UNL     1      28.328 -23.121 -17.115  0.00  0.00    -0.217 N 
ATOM     21  N   UNL     1      28.127 -21.789 -15.394  0.00  0.00    -0.204 NA
ATOM     22  N   UNL     1      27.009 -22.877 -17.068  0.00  0.00    -0.157 NA
ATOM     23  C   UNL     1      28.985 -22.471 -16.117  0.00  0.00    +0.175 C 
ATOM     24  C   UNL     1      26.940 -22.067 -16.010  0.00  0.00    +0.218 C 
ATOM     25  H   UNL     1      28.763 -23.697 -17.784  0.00  0.00    +0.176 HD
ENDBRANCH  17  23
ENDBRANCH  10  14
BRANCH   2  26
ATOM     26  C   UNL     1      36.119 -26.446 -14.568  0.00  0.00    +0.101 C 
ATOM     27  C   UNL     1      36.005 -27.220 -15.865  0.00  0.00    +0.024 C 
ENDBRANCH   2  26
TORSDOF 3
ENDMDL
MODEL 5
REMARK VINA RESULT:     -10.3      4.169      9.102
REMARK  Name = 58298318
REMARK  3 active torsions:
REMARK  status: ('A' for Active; 'I' for Inactive)
REMARK    1  A    between atoms: N_2  and  C_26
REMARK    2  A    between atoms: C_10  and  C_14
REMARK    3  A    between atoms: C_17  and  C_23
REMARK                            x       y       z     vdW  Elec       q    Type
REMARK                         _______ _______ _______ _____ _____    ______ ____
ROOT
ATOM      1  O   UNL     1      28.588 -24.801 -13.884  0.00  0.00    -0.273 OA
ATOM      2  N   UNL     1      30.227 -23.769 -15.168  0.00  0.00    -0.230 N 
ATOM      3  N   UNL     1      32.113 -24.887 -13.465  0.00  0.00    -0.308 N 
ATOM      4  N   UNL     1      32.012 -22.767 -16.435  0.00  0.00    -0.386 NA
ATOM      5  N   UNL     1      33.868 -23.932 -14.723  0.00  0.00    -0.245 NA
ATOM      6  C   UNL     1      31.614 -23.517 -15.378  0.00  0.00    +0.220 C 
ATOM      7  C   UNL     1      32.538 -24.097 -14.517  0.00  0.00    +0.170 C 
ATOM      8  C   UNL     1      30.774 -24.726 -12.961  0.00  0.00    +0.175 C 
ATOM      9  C   UNL     1      29.763 -24.470 -14.056  0.00  0.00    +0.251 C 
ATOM     10  C   UNL     1      33.334 -22.602 -16.614  0.00  0.00    +0.137 C 
ATOM     11  C   UNL     1      34.248 -23.177 -15.770  0.00  0.00    +0.186 C 
ATOM     12  H   UNL     1      32.718 -25.552 -13.066  0.00  0.00    +0.149 HD
ENDROOT
BRANCH  10  14
ATOM     13  N   UNL     1      35.443 -20.629 -18.980  0.00  0.00    -0.407 NA
ATOM     14  C   UNL     1      33.725 -21.794 -17.740  0.00  0.00    +0.049 C 
ATOM     15  C   UNL     1      35.034 -21.388 -17.937  0.00  0.00    +0.111 C 
ATOM     16  C   UNL     1      32.773 -21.395 -18.671  0.00  0.00    -0.014 C 
ATOM     17  C   UNL     1      34.489 -20.261 -19.864  0.00  0.00    +0.146 C 
ATOM     18  C   UNL     1      33.153 -20.615 -19.757  0.00  0.00    +0.088 C 
ATOM     19  C   UNL     1      36.110 -21.779 -16.975  0.00  0.00    +0.066 C 
BRANCH  17  23
ATOM     20  N   UNL     1      36.089 -18.695 -20.885  0.00  0.00    -0.217 N 
ATOM     21  N   UNL     1      34.419 -19.326 -22.146  0.00  0.00    -0.204 NA
ATOM     22  N   UNL     1      36.310 -18.043 -22.037  0.00  0.00    -0.157 NA
ATOM     23  C   UNL     1      34.963 -19.455 -20.958  0.00  0.00    +0.175 C 
ATOM     24  C   UNL     1      35.272 -18.459 -22.766  0.00  0.00    +0.218 C 
ATOM     25  H   UNL     1      36.667 -18.632 -20.091  0.00  0.00    +0.176 HD
ENDBRANCH  17  23
ENDBRANCH  10  14
BRANCH   2  26
ATOM     26  C   UNL     1      29.297 -23.302 -16.191  0.00  0.00    +0.101 C 
ATOM     27  C   UNL     1      28.532 -22.080 -15.728  0.00  0.00    +0.024 C 
ENDBRANCH   2  26
TORSDOF 3
ENDMDL
MODEL 6
REMARK VINA RESULT:     -10.1      3.407      8.507
REMARK  Name = 58298318
REMARK  3 active torsions:
REMARK  status: ('A' for Active; 'I' for Inactive)
REMARK    1  A    between atoms: N_2  and  C_26
REMARK    2  A    between atoms: C_10  and  C_14
REMARK    3  A    between atoms: C_17  and  C_23
REMARK                            x       y       z     vdW  Elec       q    Type
REMARK                         _______ _______ _______ _____ _____    ______ ____
ROOT
ATOM      1  O   UNL     1      32.465 -24.555 -14.003  0.00  0.00    -0.273 OA
ATOM      2  N   UNL     1      33.234 -23.208 -15.733  0.00  0.00    -0.230 N 
ATOM      3  N   UNL     1      35.788 -23.513 -14.690  0.00  0.00    -0.308 N 
ATOM      4  N   UNL     1      34.149 -21.842 -17.491  0.00  0.00    -0.386 NA
ATOM      5  N   UNL     1      36.695 -22.199 -16.430  0.00  0.00    -0.245 NA
ATOM      6  C   UNL     1      34.341 -22.565 -16.360  0.00  0.00    +0.220 C 
ATOM      7  C   UNL     1      35.611 -22.742 -15.824  0.00  0.00    +0.170 C 
ATOM      8  C   UNL     1      34.677 -23.719 -13.798  0.00  0.00    +0.175 C 
ATOM      9  C   UNL     1      33.366 -23.899 -14.530  0.00  0.00    +0.251 C 
ATOM     10  C   UNL     1      35.235 -21.299 -18.069  0.00  0.00    +0.137 C 
ATOM     11  C   UNL     1      36.489 -21.476 -17.546  0.00  0.00    +0.186 C 
ATOM     12  H   UNL     1      36.665 -23.915 -14.494  0.00  0.00    +0.149 HD
ENDROOT
BRANCH  10  14
ATOM     13  N   UNL     1      33.476 -19.704 -20.951  0.00  0.00    -0.407 NA
ATOM     14  C   UNL     1      34.999 -20.530 -19.263  0.00  0.00    +0.049 C 
ATOM     15  C   UNL     1      33.740 -20.416 -19.831  0.00  0.00    +0.111 C 
ATOM     16  C   UNL     1      36.054 -19.871 -19.884  0.00  0.00    -0.014 C 
ATOM     17  C   UNL     1      34.528 -19.078 -21.526  0.00  0.00    +0.146 C 
ATOM     18  C   UNL     1      35.823 -19.129 -21.036  0.00  0.00    +0.088 C 
ATOM     19  C   UNL     1      32.559 -21.097 -19.217  0.00  0.00    +0.066 C 
BRANCH  17  23
ATOM     20  N   UNL     1      33.502 -18.859 -23.752  0.00  0.00    -0.217 N 
ATOM     21  N   UNL     1      34.520 -17.086 -22.980  0.00  0.00    -0.204 NA
ATOM     22  N   UNL     1      33.337 -17.959 -24.733  0.00  0.00    -0.157 NA
ATOM     23  C   UNL     1      34.206 -18.333 -22.714  0.00  0.00    +0.175 C 
ATOM     24  C   UNL     1      33.971 -16.904 -24.217  0.00  0.00    +0.218 C 
ATOM     25  H   UNL     1      33.158 -19.781 -23.779  0.00  0.00    +0.176 HD
ENDBRANCH  17  23
ENDBRANCH  10  14
BRANCH   2  26
ATOM     26  C   UNL     1      31.949 -23.156 -16.421  0.00  0.00    +0.101 C 
ATOM     27  C   UNL     1      30.921 -22.386 -15.619  0.00  0.00    +0.024 C 
ENDBRANCH   2  26
TORSDOF 3
ENDMDL
MODEL 7
REMARK VINA RESULT:     -10.0      5.044      8.292
REMARK  Name = 58298318
REMARK  3 active torsions:
REMARK  status: ('A' for Active; 'I' for Inactive)
REMARK    1  A    between atoms: N_2  and  C_26
REMARK    2  A    between atoms: C_10  and  C_14
REMARK    3  A    between atoms: C_17  and  C_23
REMARK                            x       y       z     vdW  Elec       q    Type
REMARK                         _______ _______ _______ _____ _____    ______ ____
ROOT
ATOM      1  O   UNL     1      33.035  -5.582 -23.742  0.00  0.00    -0.273 OA
ATOM      2  N   UNL     1      33.000  -7.837 -23.181  0.00  0.00    -0.230 N 
ATOM      3  N   UNL     1      30.290  -7.552 -22.651  0.00  0.00    -0.308 N 
ATOM      4  N   UNL     1      32.838 -10.166 -22.595  0.00  0.00    -0.386 NA
ATOM      5  N   UNL     1      30.119  -9.843 -22.106  0.00  0.00    -0.245 NA
ATOM      6  C   UNL     1      32.242  -8.955 -22.726  0.00  0.00    +0.220 C 
ATOM      7  C   UNL     1      30.885  -8.788 -22.478  0.00  0.00    +0.170 C 
ATOM      8  C   UNL     1      31.105  -6.366 -22.604  0.00  0.00    +0.175 C 
ATOM      9  C   UNL     1      32.454  -6.557 -23.261  0.00  0.00    +0.251 C 
ATOM     10  C   UNL     1      32.065 -11.196 -22.210  0.00  0.00    +0.137 C 
ATOM     11  C   UNL     1      30.725 -11.037 -21.970  0.00  0.00    +0.186 C 
ATOM     12  H   UNL     1      29.321  -7.484 -22.805  0.00  0.00    +0.149 HD
ENDROOT
BRANCH  10  14
ATOM     13  N   UNL     1      33.735 -14.421 -23.079  0.00  0.00    -0.407 NA
ATOM     14  C   UNL     1      32.727 -12.467 -22.071  0.00  0.00    +0.049 C 
ATOM     15  C   UNL     1      33.111 -13.223 -23.167  0.00  0.00    +0.111 C 
ATOM     16  C   UNL     1      32.998 -12.973 -20.805  0.00  0.00    -0.014 C 
ATOM     17  C   UNL     1      33.982 -14.879 -21.832  0.00  0.00    +0.146 C 
ATOM     18  C   UNL     1      33.638 -14.201 -20.674  0.00  0.00    +0.088 C 
ATOM     19  C   UNL     1      32.851 -12.741 -24.558  0.00  0.00    +0.066 C 
BRANCH  17  23
ATOM     20  N   UNL     1      35.059 -16.820 -22.894  0.00  0.00    -0.217 N 
ATOM     21  N   UNL     1      34.947 -16.854 -20.712  0.00  0.00    -0.204 NA
ATOM     22  N   UNL     1      35.648 -17.982 -22.574  0.00  0.00    -0.157 NA
ATOM     23  C   UNL     1      34.645 -16.155 -21.782  0.00  0.00    +0.175 C 
ATOM     24  C   UNL     1      35.555 -17.955 -21.244  0.00  0.00    +0.218 C 
ATOM     25  H   UNL     1      34.942 -16.490 -23.814  0.00  0.00    +0.176 HD
ENDBRANCH  17  23
ENDBRANCH  10  14
BRANCH   2  26
ATOM     26  C   UNL     1      34.373  -8.085 -23.608  0.00  0.00    +0.101 C 
ATOM     27  C   UNL     1      34.704  -7.329 -24.878  0.00  0.00    +0.024 C 
ENDBRANCH   2  26
TORSDOF 3
ENDMDL
MODEL 8
REMARK VINA RESULT:     -10.0      6.861      9.639
REMARK  Name = 58298318
REMARK  3 active torsions:
REMARK  status: ('A' for Active; 'I' for Inactive)
REMARK    1  A    between atoms: N_2  and  C_26
REMARK    2  A    between atoms: C_10  and  C_14
REMARK    3  A    between atoms: C_17  and  C_23
REMARK                            x       y       z     vdW  Elec       q    Type
REMARK                         _______ _______ _______ _____ _____    ______ ____
ROOT
ATOM      1  O   UNL     1      38.574 -22.780 -15.610  0.00  0.00    -0.273 OA
ATOM      2  N   UNL     1      36.264 -22.836 -15.362  0.00  0.00    -0.230 N 
ATOM      3  N   UNL     1      36.666 -24.066 -12.906  0.00  0.00    -0.308 N 
ATOM      4  N   UNL     1      33.888 -22.931 -14.985  0.00  0.00    -0.386 NA
ATOM      5  N   UNL     1      34.338 -24.132 -12.518  0.00  0.00    -0.245 NA
ATOM      6  C   UNL     1      35.146 -23.214 -14.563  0.00  0.00    +0.220 C 
ATOM      7  C   UNL     1      35.375 -23.818 -13.333  0.00  0.00    +0.170 C 
ATOM      8  C   UNL     1      37.722 -24.163 -13.879  0.00  0.00    +0.175 C 
ATOM      9  C   UNL     1      37.571 -23.170 -15.009  0.00  0.00    +0.251 C 
ATOM     10  C   UNL     1      32.873 -23.264 -14.170  0.00  0.00    +0.137 C 
ATOM     11  C   UNL     1      33.095 -23.856 -12.953  0.00  0.00    +0.186 C 
ATOM     12  H   UNL     1      36.861 -24.174 -11.947  0.00  0.00    +0.149 HD
ENDROOT
BRANCH  10  14
ATOM     13  N   UNL     1      30.058 -22.442 -16.480  0.00  0.00    -0.407 NA
ATOM     14  C   UNL     1      31.550 -22.960 -14.649  0.00  0.00    +0.049 C 
ATOM     15  C   UNL     1      31.285 -22.730 -15.989  0.00  0.00    +0.111 C 
ATOM     16  C   UNL     1      30.488 -22.888 -13.754  0.00  0.00    -0.014 C 
ATOM     17  C   UNL     1      29.051 -22.380 -15.579  0.00  0.00    +0.146 C 
ATOM     18  C   UNL     1      29.212 -22.594 -14.220  0.00  0.00    +0.088 C 
ATOM     19  C   UNL     1      32.379 -22.791 -17.006  0.00  0.00    +0.066 C 
BRANCH  17  23
ATOM     20  N   UNL     1      26.677 -21.765 -15.381  0.00  0.00    -0.217 N 
ATOM     21  N   UNL     1      27.437 -22.033 -17.412  0.00  0.00    -0.204 NA
ATOM     22  N   UNL     1      25.603 -21.517 -16.146  0.00  0.00    -0.157 NA
ATOM     23  C   UNL     1      27.763 -22.071 -16.140  0.00  0.00    +0.175 C 
ATOM     24  C   UNL     1      26.115 -21.692 -17.365  0.00  0.00    +0.218 C 
ATOM     25  H   UNL     1      26.679 -21.730 -14.397  0.00  0.00    +0.176 HD
ENDBRANCH  17  23
ENDBRANCH  10  14
BRANCH   2  26
ATOM     26  C   UNL     1      35.999 -22.041 -16.556  0.00  0.00    +0.101 C 
ATOM     27  C   UNL     1      36.790 -20.749 -16.549  0.00  0.00    +0.024 C 
ENDBRANCH   2  26
TORSDOF 3
ENDMDL
MODEL 9
REMARK VINA RESULT:      -9.8      6.946     11.065
REMARK  Name = 58298318
REMARK  3 active torsions:
REMARK  status: ('A' for Active; 'I' for Inactive)
REMARK    1  A    between atoms: N_2  and  C_26
REMARK    2  A    between atoms: C_10  and  C_14
REMARK    3  A    between atoms: C_17  and  C_23
REMARK                            x       y       z     vdW  Elec       q    Type
REMARK                         _______ _______ _______ _____ _____    ______ ____
ROOT
ATOM      1  O   UNL     1      30.066  -3.423 -23.797  0.00  0.00    -0.273 OA
ATOM      2  N   UNL     1      30.749  -5.605 -23.381  0.00  0.00    -0.230 N 
ATOM      3  N   UNL     1      30.720  -4.984 -20.676  0.00  0.00    -0.308 N 
ATOM      4  N   UNL     1      31.437  -7.844 -22.828  0.00  0.00    -0.386 NA
ATOM      5  N   UNL     1      31.364  -7.188 -20.127  0.00  0.00    -0.245 NA
ATOM      6  C   UNL     1      31.117  -6.591 -22.421  0.00  0.00    +0.220 C 
ATOM      7  C   UNL     1      31.083  -6.258 -21.072  0.00  0.00    +0.170 C 
ATOM      8  C   UNL     1      30.852  -3.894 -21.607  0.00  0.00    +0.175 C 
ATOM      9  C   UNL     1      30.485  -4.285 -23.021  0.00  0.00    +0.251 C 
ATOM     10  C   UNL     1      31.727  -8.748 -21.876  0.00  0.00    +0.137 C 
ATOM     11  C   UNL     1      31.690  -8.425 -20.545  0.00  0.00    +0.186 C 
ATOM     12  H   UNL     1      30.376  -4.824 -19.768  0.00  0.00    +0.149 HD
ENDROOT
BRANCH  10  14
ATOM     13  N   UNL     1      33.496 -11.516 -23.651  0.00  0.00    -0.407 NA
ATOM     14  C   UNL     1      32.072 -10.067 -22.340  0.00  0.00    +0.049 C 
ATOM     15  C   UNL     1      33.139 -10.294 -23.193  0.00  0.00    +0.111 C 
ATOM     16  C   UNL     1      31.321 -11.164 -21.931  0.00  0.00    -0.014 C 
ATOM     17  C   UNL     1      32.742 -12.558 -23.232  0.00  0.00    +0.146 C 
ATOM     18  C   UNL     1      31.656 -12.436 -22.381  0.00  0.00    +0.088 C 
ATOM     19  C   UNL     1      33.989  -9.162 -23.673  0.00  0.00    +0.066 C 
BRANCH  17  23
ATOM     20  N   UNL     1      32.767 -14.313 -24.957  0.00  0.00    -0.217 N 
ATOM     21  N   UNL     1      33.932 -14.717 -23.152  0.00  0.00    -0.204 NA
ATOM     22  N   UNL     1      33.288 -15.527 -25.192  0.00  0.00    -0.157 NA
ATOM     23  C   UNL     1      33.154 -13.839 -23.742  0.00  0.00    +0.175 C 
ATOM     24  C   UNL     1      33.983 -15.726 -24.071  0.00  0.00    +0.218 C 
ATOM     25  H   UNL     1      32.181 -13.828 -25.582  0.00  0.00    +0.176 HD
ENDBRANCH  17  23
ENDBRANCH  10  14
BRANCH   2  26
ATOM     26  C   UNL     1      30.615  -6.035 -24.769  0.00  0.00    +0.101 C 
ATOM     27  C   UNL     1      31.885  -5.782 -25.554  0.00  0.00    +0.024 C 
ENDBRANCH   2  26
TORSDOF 3
ENDMDL
