MODEL 1
REMARK VINA RESULT:     -11.3      0.000      0.000
REMARK  Name = 46937093
REMARK  4 active torsions:
REMARK  status: ('A' for Active; 'I' for Inactive)
REMARK    1  A    between atoms: N_2  and  C_25
REMARK    2  A    between atoms: C_3  and  N_13
REMARK    3  A    between atoms: C_14  and  C_19
REMARK    4  A    between atoms: C_25  and  C_28
REMARK                            x       y       z     vdW  Elec       q    Type
REMARK                         _______ _______ _______ _____ _____    ______ ____
ROOT
ATOM      1  O   UNL     1      32.199 -21.955 -18.936  0.00  0.00    -0.273 OA
ATOM      2  N   UNL     1      33.135 -22.859 -17.005  0.00  0.00    -0.249 N 
ATOM      3  C   UNL     1      34.581 -21.757 -18.676  0.00  0.00    +0.154 C 
ATOM      4  C   UNL     1      35.423 -21.228 -17.530  0.00  0.00    +0.057 C 
ATOM      5  C   UNL     1      35.430 -22.225 -16.410  0.00  0.00    -0.006 C 
ATOM      6  C   UNL     1      34.283 -22.997 -16.155  0.00  0.00    +0.050 C 
ATOM      7  C   UNL     1      33.183 -22.154 -18.219  0.00  0.00    +0.248 C 
ATOM      8  C   UNL     1      36.550 -22.323 -15.571  0.00  0.00    -0.003 C 
ATOM      9  C   UNL     1      34.291 -23.864 -15.049  0.00  0.00    +0.015 C 
ATOM     10  C   UNL     1      36.544 -23.197 -14.487  0.00  0.00    -0.000 C 
ATOM     11  C   UNL     1      35.415 -23.966 -14.227  0.00  0.00    +0.001 C 
ENDROOT
BRANCH   3  13
ATOM     12  O   UNL     1      36.506 -19.696 -19.399  0.00  0.00    -0.268 OA
ATOM     13  N   UNL     1      34.463 -20.773 -19.721  0.00  0.00    -0.293 N 
ATOM     14  C   UNL     1      35.439 -19.831 -19.987  0.00  0.00    +0.272 C 
ATOM     15  H   UNL     1      33.648 -20.772 -20.273  0.00  0.00    +0.150 HD
BRANCH  14  19
ATOM     16 CL   UNL     1      32.789 -15.008 -24.359  0.00  0.00    -0.098 Cl
ATOM     17  S   UNL     1      33.320 -17.936 -24.332  0.00  0.00    -0.062 S 
ATOM     18  N   UNL     1      34.198 -19.345 -22.107  0.00  0.00    -0.395 NA
ATOM     19  C   UNL     1      35.082 -18.940 -21.106  0.00  0.00    +0.167 C 
ATOM     20  C   UNL     1      34.989 -17.202 -22.413  0.00  0.00    +0.018 C 
ATOM     21  C   UNL     1      35.583 -17.694 -21.224  0.00  0.00    +0.093 C 
ATOM     22  C   UNL     1      34.153 -18.299 -22.879  0.00  0.00    +0.154 C 
ATOM     23  C   UNL     1      34.949 -16.129 -23.197  0.00  0.00    +0.000 C 
ATOM     24  C   UNL     1      34.061 -16.244 -24.405  0.00  0.00    +0.155 C 
ENDBRANCH  14  19
ENDBRANCH   3  13
BRANCH   2  25
ATOM     25  C   UNL     1      31.873 -23.465 -16.588  0.00  0.00    +0.183 C 
BRANCH  25  28
ATOM     26  O   UNL     1      31.234 -22.030 -14.745  0.00  0.00    -0.273 OA
ATOM     27  N   UNL     1      29.942 -22.037 -16.646  0.00  0.00    -0.327 N 
ATOM     28  C   UNL     1      31.020 -22.435 -15.884  0.00  0.00    +0.240 C 
ATOM     29  H   UNL     1      29.312 -21.368 -16.295  0.00  0.00    +0.145 HD
ATOM     30  H   UNL     1      29.804 -22.423 -17.542  0.00  0.00    +0.145 HD
ENDBRANCH  25  28
ENDBRANCH   2  25
TORSDOF 4
ENDMDL
MODEL 2
REMARK VINA RESULT:     -11.1      2.220      3.102
REMARK  Name = 46937093
REMARK  4 active torsions:
REMARK  status: ('A' for Active; 'I' for Inactive)
REMARK    1  A    between atoms: N_2  and  C_25
REMARK    2  A    between atoms: C_3  and  N_13
REMARK    3  A    between atoms: C_14  and  C_19
REMARK    4  A    between atoms: C_25  and  C_28
REMARK                            x       y       z     vdW  Elec       q    Type
REMARK                         _______ _______ _______ _____ _____    ______ ____
ROOT
ATOM      1  O   UNL     1      32.383 -23.143 -16.176  0.00  0.00    -0.273 OA
ATOM      2  N   UNL     1      33.305 -23.672 -14.104  0.00  0.00    -0.249 N 
ATOM      3  C   UNL     1      34.745 -22.786 -15.904  0.00  0.00    +0.154 C 
ATOM      4  C   UNL     1      35.528 -22.034 -14.843  0.00  0.00    +0.057 C 
ATOM      5  C   UNL     1      35.551 -22.834 -13.575  0.00  0.00    -0.006 C 
ATOM      6  C   UNL     1      34.433 -23.610 -13.220  0.00  0.00    +0.050 C 
ATOM      7  C   UNL     1      33.354 -23.173 -15.416  0.00  0.00    +0.248 C 
ATOM      8  C   UNL     1      36.649 -22.736 -12.708  0.00  0.00    -0.003 C 
ATOM      9  C   UNL     1      34.450 -24.283 -11.986  0.00  0.00    +0.015 C 
ATOM     10  C   UNL     1      36.654 -23.421 -11.496  0.00  0.00    -0.000 C 
ATOM     11  C   UNL     1      35.555 -24.193 -11.136  0.00  0.00    +0.001 C 
ENDROOT
BRANCH   3  13
ATOM     12  O   UNL     1      36.877 -21.671 -17.543  0.00  0.00    -0.268 OA
ATOM     13  N   UNL     1      34.611 -21.993 -17.099  0.00  0.00    -0.293 N 
ATOM     14  C   UNL     1      35.693 -21.508 -17.810  0.00  0.00    +0.272 C 
ATOM     15  H   UNL     1      33.705 -21.787 -17.425  0.00  0.00    +0.150 HD
BRANCH  14  19
ATOM     16 CL   UNL     1      34.040 -19.037 -24.179  0.00  0.00    -0.098 Cl
ATOM     17  S   UNL     1      35.765 -18.279 -21.876  0.00  0.00    -0.062 S 
ATOM     18  N   UNL     1      36.187 -19.878 -19.646  0.00  0.00    -0.395 NA
ATOM     19  C   UNL     1      35.292 -20.727 -18.995  0.00  0.00    +0.167 C 
ATOM     20  C   UNL     1      34.097 -19.903 -20.618  0.00  0.00    +0.018 C 
ATOM     21  C   UNL     1      34.049 -20.790 -19.512  0.00  0.00    +0.093 C 
ATOM     22  C   UNL     1      35.461 -19.393 -20.611  0.00  0.00    +0.154 C 
ATOM     23  C   UNL     1      33.347 -19.413 -21.600  0.00  0.00    +0.000 C 
ATOM     24  C   UNL     1      34.036 -18.434 -22.511  0.00  0.00    +0.155 C 
ENDBRANCH  14  19
ENDBRANCH   3  13
BRANCH   2  25
ATOM     25  C   UNL     1      32.061 -24.264 -13.619  0.00  0.00    +0.183 C 
BRANCH  25  28
ATOM     26  O   UNL     1      31.236 -22.528 -12.145  0.00  0.00    -0.273 OA
ATOM     27  N   UNL     1      30.058 -23.014 -14.058  0.00  0.00    -0.327 N 
ATOM     28  C   UNL     1      31.111 -23.172 -13.183  0.00  0.00    +0.240 C 
ATOM     29  H   UNL     1      29.370 -22.332 -13.883  0.00  0.00    +0.145 HD
ATOM     30  H   UNL     1      29.993 -23.584 -14.859  0.00  0.00    +0.145 HD
ENDBRANCH  25  28
ENDBRANCH   2  25
TORSDOF 4
ENDMDL
MODEL 3
REMARK VINA RESULT:     -10.6      4.543      9.519
REMARK  Name = 46937093
REMARK  4 active torsions:
REMARK  status: ('A' for Active; 'I' for Inactive)
REMARK    1  A    between atoms: N_2  and  C_25
REMARK    2  A    between atoms: C_3  and  N_13
REMARK    3  A    between atoms: C_14  and  C_19
REMARK    4  A    between atoms: C_25  and  C_28
REMARK                            x       y       z     vdW  Elec       q    Type
REMARK                         _______ _______ _______ _____ _____    ______ ____
ROOT
ATOM      1  O   UNL     1      34.047 -14.741 -19.986  0.00  0.00    -0.273 OA
ATOM      2  N   UNL     1      33.578 -13.505 -21.902  0.00  0.00    -0.249 N 
ATOM      3  C   UNL     1      34.406 -15.823 -22.102  0.00  0.00    +0.154 C 
ATOM      4  C   UNL     1      33.497 -15.994 -23.306  0.00  0.00    +0.057 C 
ATOM      5  C   UNL     1      33.390 -14.692 -24.043  0.00  0.00    -0.006 C 
ATOM      6  C   UNL     1      33.404 -13.482 -23.327  0.00  0.00    +0.050 C 
ATOM      7  C   UNL     1      33.961 -14.668 -21.214  0.00  0.00    +0.248 C 
ATOM      8  C   UNL     1      33.189 -14.691 -25.430  0.00  0.00    -0.003 C 
ATOM      9  C   UNL     1      33.220 -12.282 -24.035  0.00  0.00    +0.015 C 
ATOM     10  C   UNL     1      33.021 -13.491 -26.117  0.00  0.00    -0.000 C 
ATOM     11  C   UNL     1      33.036 -12.289 -25.419  0.00  0.00    +0.001 C 
ENDROOT
BRANCH   3  13
ATOM     12  O   UNL     1      36.092 -18.162 -22.503  0.00  0.00    -0.268 OA
ATOM     13  N   UNL     1      34.439 -17.026 -21.312  0.00  0.00    -0.293 N 
ATOM     14  C   UNL     1      35.283 -18.088 -21.586  0.00  0.00    +0.272 C 
ATOM     15  H   UNL     1      33.834 -17.096 -20.539  0.00  0.00    +0.150 HD
BRANCH  14  19
ATOM     16 CL   UNL     1      33.801 -22.402 -16.239  0.00  0.00    -0.098 Cl
ATOM     17  S   UNL     1      36.176 -21.538 -17.809  0.00  0.00    -0.062 S 
ATOM     18  N   UNL     1      36.138 -19.527 -19.722  0.00  0.00    -0.395 NA
ATOM     19  C   UNL     1      35.128 -19.199 -20.629  0.00  0.00    +0.167 C 
ATOM     20  C   UNL     1      34.284 -20.884 -19.540  0.00  0.00    +0.018 C 
ATOM     21  C   UNL     1      34.014 -19.956 -20.577  0.00  0.00    +0.093 C 
ATOM     22  C   UNL     1      35.619 -20.533 -19.081  0.00  0.00    +0.154 C 
ATOM     23  C   UNL     1      33.747 -21.912 -18.890  0.00  0.00    +0.000 C 
ATOM     24  C   UNL     1      34.608 -22.516 -17.814  0.00  0.00    +0.155 C 
ENDBRANCH  14  19
ENDBRANCH   3  13
BRANCH   2  25
ATOM     25  C   UNL     1      33.338 -12.280 -21.143  0.00  0.00    +0.183 C 
BRANCH  25  28
ATOM     26  O   UNL     1      31.251 -13.153 -20.281  0.00  0.00    -0.273 OA
ATOM     27  N   UNL     1      31.331 -10.968 -20.991  0.00  0.00    -0.327 N 
ATOM     28  C   UNL     1      31.883 -12.206 -20.739  0.00  0.00    +0.240 C 
ATOM     29  H   UNL     1      30.388 -10.796 -20.771  0.00  0.00    +0.145 HD
ATOM     30  H   UNL     1      31.881 -10.257 -21.393  0.00  0.00    +0.145 HD
ENDBRANCH  25  28
ENDBRANCH   2  25
TORSDOF 4
ENDMDL
MODEL 4
REMARK VINA RESULT:     -10.4      3.467      5.286
REMARK  Name = 46937093
REMARK  4 active torsions:
REMARK  status: ('A' for Active; 'I' for Inactive)
REMARK    1  A    between atoms: N_2  and  C_25
REMARK    2  A    between atoms: C_3  and  N_13
REMARK    3  A    between atoms: C_14  and  C_19
REMARK    4  A    between atoms: C_25  and  C_28
REMARK                            x       y       z     vdW  Elec       q    Type
REMARK                         _______ _______ _______ _____ _____    ______ ____
ROOT
ATOM      1  O   UNL     1      38.271 -22.621 -15.870  0.00  0.00    -0.273 OA
ATOM      2  N   UNL     1      37.698 -23.626 -13.849  0.00  0.00    -0.249 N 
ATOM      3  C   UNL     1      36.217 -21.914 -14.838  0.00  0.00    +0.154 C 
ATOM      4  C   UNL     1      35.032 -22.708 -14.321  0.00  0.00    +0.057 C 
ATOM      5  C   UNL     1      35.399 -23.373 -13.028  0.00  0.00    -0.006 C 
ATOM      6  C   UNL     1      36.710 -23.840 -12.831  0.00  0.00    +0.050 C 
ATOM      7  C   UNL     1      37.474 -22.771 -14.941  0.00  0.00    +0.248 C 
ATOM      8  C   UNL     1      34.413 -23.602 -12.057  0.00  0.00    -0.003 C 
ATOM      9  C   UNL     1      37.003 -24.532 -11.643  0.00  0.00    +0.015 C 
ATOM     10  C   UNL     1      34.725 -24.277 -10.881  0.00  0.00    -0.000 C 
ATOM     11  C   UNL     1      36.019 -24.742 -10.675  0.00  0.00    +0.001 C 
ENDROOT
BRANCH   3  13
ATOM     12  O   UNL     1      34.456 -22.996 -16.888  0.00  0.00    -0.268 OA
ATOM     13  N   UNL     1      35.933 -21.356 -16.135  0.00  0.00    -0.293 N 
ATOM     14  C   UNL     1      35.076 -21.950 -17.043  0.00  0.00    +0.272 C 
ATOM     15  H   UNL     1      36.369 -20.510 -16.387  0.00  0.00    +0.150 HD
BRANCH  14  19
ATOM     16 CL   UNL     1      34.670 -19.593 -23.652  0.00  0.00    -0.098 Cl
ATOM     17  S   UNL     1      36.142 -18.953 -21.147  0.00  0.00    -0.062 S 
ATOM     18  N   UNL     1      36.034 -20.485 -18.834  0.00  0.00    -0.395 NA
ATOM     19  C   UNL     1      34.951 -21.182 -18.295  0.00  0.00    +0.167 C 
ATOM     20  C   UNL     1      34.115 -20.290 -20.096  0.00  0.00    +0.018 C 
ATOM     21  C   UNL     1      33.795 -21.110 -18.985  0.00  0.00    +0.093 C 
ATOM     22  C   UNL     1      35.519 -19.958 -19.907  0.00  0.00    +0.154 C 
ATOM     23  C   UNL     1      33.581 -19.756 -21.190  0.00  0.00    +0.000 C 
ATOM     24  C   UNL     1      34.514 -18.916 -22.019  0.00  0.00    +0.155 C 
ENDBRANCH  14  19
ENDBRANCH   3  13
BRANCH   2  25
ATOM     25  C   UNL     1      38.975 -24.330 -13.752  0.00  0.00    +0.183 C 
BRANCH  25  28
ATOM     26  O   UNL     1      38.241 -26.542 -14.411  0.00  0.00    -0.273 OA
ATOM     27  N   UNL     1      39.842 -25.480 -15.674  0.00  0.00    -0.327 N 
ATOM     28  C   UNL     1      38.947 -25.561 -14.629  0.00  0.00    +0.240 C 
ATOM     29  H   UNL     1      39.917 -26.223 -16.316  0.00  0.00    +0.145 HD
ATOM     30  H   UNL     1      40.406 -24.680 -15.778  0.00  0.00    +0.145 HD
ENDBRANCH  25  28
ENDBRANCH   2  25
TORSDOF 4
ENDMDL
MODEL 5
REMARK VINA RESULT:      -9.7      1.743      2.315
REMARK  Name = 46937093
REMARK  4 active torsions:
REMARK  status: ('A' for Active; 'I' for Inactive)
REMARK    1  A    between atoms: N_2  and  C_25
REMARK    2  A    between atoms: C_3  and  N_13
REMARK    3  A    between atoms: C_14  and  C_19
REMARK    4  A    between atoms: C_25  and  C_28
REMARK                            x       y       z     vdW  Elec       q    Type
REMARK                         _______ _______ _______ _____ _____    ______ ____
ROOT
ATOM      1  O   UNL     1      31.045 -21.766 -17.397  0.00  0.00    -0.273 OA
ATOM      2  N   UNL     1      31.561 -22.823 -15.387  0.00  0.00    -0.249 N 
ATOM      3  C   UNL     1      33.311 -22.516 -17.103  0.00  0.00    +0.154 C 
ATOM      4  C   UNL     1      34.304 -22.282 -15.981  0.00  0.00    +0.057 C 
ATOM      5  C   UNL     1      33.924 -23.115 -14.792  0.00  0.00    -0.006 C 
ATOM      6  C   UNL     1      32.567 -23.343 -14.506  0.00  0.00    +0.050 C 
ATOM      7  C   UNL     1      31.875 -22.287 -16.648  0.00  0.00    +0.248 C 
ATOM      8  C   UNL     1      34.919 -23.588 -13.925  0.00  0.00    -0.003 C 
ATOM      9  C   UNL     1      32.238 -24.057 -13.341  0.00  0.00    +0.015 C 
ATOM     10  C   UNL     1      34.576 -24.305 -12.782  0.00  0.00    -0.000 C 
ATOM     11  C   UNL     1      33.237 -24.538 -12.491  0.00  0.00    +0.001 C 
ENDROOT
BRANCH   3  13
ATOM     12  O   UNL     1      35.914 -21.744 -18.154  0.00  0.00    -0.268 OA
ATOM     13  N   UNL     1      33.584 -21.646 -18.218  0.00  0.00    -0.293 N 
ATOM     14  C   UNL     1      34.865 -21.340 -18.642  0.00  0.00    +0.272 C 
ATOM     15  H   UNL     1      32.824 -21.252 -18.703  0.00  0.00    +0.150 HD
BRANCH  14  19
ATOM     16 CL   UNL     1      34.526 -16.001 -23.200  0.00  0.00    -0.098 Cl
ATOM     17  S   UNL     1      33.503 -18.784 -22.952  0.00  0.00    -0.062 S 
ATOM     18  N   UNL     1      33.801 -20.363 -20.688  0.00  0.00    -0.395 NA
ATOM     19  C   UNL     1      34.879 -20.432 -19.803  0.00  0.00    +0.167 C 
ATOM     20  C   UNL     1      35.524 -18.940 -21.251  0.00  0.00    +0.018 C 
ATOM     21  C   UNL     1      35.923 -19.625 -20.075  0.00  0.00    +0.093 C 
ATOM     22  C   UNL     1      34.201 -19.470 -21.545  0.00  0.00    +0.154 C 
ATOM     23  C   UNL     1      35.942 -18.027 -22.122  0.00  0.00    +0.000 C 
ATOM     24  C   UNL     1      34.983 -17.714 -23.238  0.00  0.00    +0.155 C 
ENDBRANCH  14  19
ENDBRANCH   3  13
BRANCH   2  25
ATOM     25  C   UNL     1      30.166 -22.842 -14.954  0.00  0.00    +0.183 C 
BRANCH  25  28
ATOM     26  O   UNL     1      29.687 -25.159 -15.472  0.00  0.00    -0.273 OA
ATOM     27  N   UNL     1      28.480 -23.513 -16.528  0.00  0.00    -0.327 N 
ATOM     28  C   UNL     1      29.433 -23.970 -15.644  0.00  0.00    +0.240 C 
ATOM     29  H   UNL     1      27.935 -24.154 -17.040  0.00  0.00    +0.145 HD
ATOM     30  H   UNL     1      28.344 -22.545 -16.649  0.00  0.00    +0.145 HD
ENDBRANCH  25  28
ENDBRANCH   2  25
TORSDOF 4
ENDMDL
MODEL 6
REMARK VINA RESULT:      -9.6      9.757     14.657
REMARK  Name = 46937093
REMARK  4 active torsions:
REMARK  status: ('A' for Active; 'I' for Inactive)
REMARK    1  A    between atoms: N_2  and  C_25
REMARK    2  A    between atoms: C_3  and  N_13
REMARK    3  A    between atoms: C_14  and  C_19
REMARK    4  A    between atoms: C_25  and  C_28
REMARK                            x       y       z     vdW  Elec       q    Type
REMARK                         _______ _______ _______ _____ _____    ______ ____
ROOT
ATOM      1  O   UNL     1      34.360  -7.952 -24.156  0.00  0.00    -0.273 OA
ATOM      2  N   UNL     1      33.240  -6.038 -23.448  0.00  0.00    -0.249 N 
ATOM      3  C   UNL     1      32.277  -8.267 -22.998  0.00  0.00    +0.154 C 
ATOM      4  C   UNL     1      31.781  -7.732 -21.667  0.00  0.00    +0.057 C 
ATOM      5  C   UNL     1      31.429  -6.281 -21.809  0.00  0.00    -0.006 C 
ATOM      6  C   UNL     1      32.180  -5.462 -22.671  0.00  0.00    +0.050 C 
ATOM      7  C   UNL     1      33.418  -7.427 -23.558  0.00  0.00    +0.248 C 
ATOM      8  C   UNL     1      30.411  -5.730 -21.018  0.00  0.00    -0.003 C 
ATOM      9  C   UNL     1      31.880  -4.091 -22.721  0.00  0.00    +0.015 C 
ATOM     10  C   UNL     1      30.119  -4.371 -21.091  0.00  0.00    -0.000 C 
ATOM     11  C   UNL     1      30.854  -3.553 -21.942  0.00  0.00    +0.001 C 
ENDROOT
BRANCH   3  13
ATOM     12  O   UNL     1      30.726 -10.575 -22.138  0.00  0.00    -0.268 OA
ATOM     13  N   UNL     1      32.729  -9.629 -22.867  0.00  0.00    -0.293 N 
ATOM     14  C   UNL     1      31.908 -10.660 -22.448  0.00  0.00    +0.272 C 
ATOM     15  H   UNL     1      33.665  -9.835 -23.086  0.00  0.00    +0.150 HD
BRANCH  14  19
ATOM     16 CL   UNL     1      33.979 -17.369 -22.759  0.00  0.00    -0.098 Cl
ATOM     17  S   UNL     1      33.911 -15.150 -20.778  0.00  0.00    -0.062 S 
ATOM     18  N   UNL     1      32.685 -12.699 -21.218  0.00  0.00    -0.395 NA
ATOM     19  C   UNL     1      32.606 -11.958 -22.398  0.00  0.00    +0.167 C 
ATOM     20  C   UNL     1      33.736 -13.719 -22.997  0.00  0.00    +0.018 C 
ATOM     21  C   UNL     1      33.201 -12.498 -23.480  0.00  0.00    +0.093 C 
ATOM     22  C   UNL     1      33.362 -13.745 -21.591  0.00  0.00    +0.154 C 
ATOM     23  C   UNL     1      34.428 -14.785 -23.387  0.00  0.00    +0.000 C 
ATOM     24  C   UNL     1      34.696 -15.808 -22.317  0.00  0.00    +0.155 C 
ENDBRANCH  14  19
ENDBRANCH   3  13
BRANCH   2  25
ATOM     25  C   UNL     1      34.171  -5.148 -24.139  0.00  0.00    +0.183 C 
BRANCH  25  28
ATOM     26  O   UNL     1      32.804  -4.823 -26.112  0.00  0.00    -0.273 OA
ATOM     27  N   UNL     1      34.941  -5.634 -26.361  0.00  0.00    -0.327 N 
ATOM     28  C   UNL     1      33.880  -5.158 -25.622  0.00  0.00    +0.240 C 
ATOM     29  H   UNL     1      34.873  -5.689 -27.342  0.00  0.00    +0.145 HD
ATOM     30  H   UNL     1      35.767  -5.920 -25.908  0.00  0.00    +0.145 HD
ENDBRANCH  25  28
ENDBRANCH   2  25
TORSDOF 4
ENDMDL
MODEL 7
REMARK VINA RESULT:      -9.6      2.071      2.995
REMARK  Name = 46937093
REMARK  4 active torsions:
REMARK  status: ('A' for Active; 'I' for Inactive)
REMARK    1  A    between atoms: N_2  and  C_25
REMARK    2  A    between atoms: C_3  and  N_13
REMARK    3  A    between atoms: C_14  and  C_19
REMARK    4  A    between atoms: C_25  and  C_28
REMARK                            x       y       z     vdW  Elec       q    Type
REMARK                         _______ _______ _______ _____ _____    ______ ____
ROOT
ATOM      1  O   UNL     1      33.910 -21.611 -15.739  0.00  0.00    -0.273 OA
ATOM      2  N   UNL     1      35.110 -22.879 -14.198  0.00  0.00    -0.249 N 
ATOM      3  C   UNL     1      35.976 -22.584 -16.493  0.00  0.00    +0.154 C 
ATOM      4  C   UNL     1      37.375 -22.538 -15.908  0.00  0.00    +0.057 C 
ATOM      5  C   UNL     1      37.447 -23.432 -14.706  0.00  0.00    -0.006 C 
ATOM      6  C   UNL     1      36.328 -23.562 -13.865  0.00  0.00    +0.050 C 
ATOM      7  C   UNL     1      34.913 -22.267 -15.448  0.00  0.00    +0.248 C 
ATOM      8  C   UNL     1      38.655 -24.065 -14.380  0.00  0.00    -0.003 C 
ATOM      9  C   UNL     1      36.450 -24.341 -12.703  0.00  0.00    +0.015 C 
ATOM     10  C   UNL     1      38.754 -24.845 -13.230  0.00  0.00    -0.000 C 
ATOM     11  C   UNL     1      37.652 -24.981 -12.393  0.00  0.00    +0.001 C 
ENDROOT
BRANCH   3  13
ATOM     12  O   UNL     1      34.152 -22.742 -18.756  0.00  0.00    -0.268 OA
ATOM     13  N   UNL     1      35.844 -21.650 -17.581  0.00  0.00    -0.293 N 
ATOM     14  C   UNL     1      34.941 -21.816 -18.615  0.00  0.00    +0.272 C 
ATOM     15  H   UNL     1      36.425 -20.855 -17.589  0.00  0.00    +0.150 HD
BRANCH  14  19
ATOM     16 CL   UNL     1      34.670 -15.797 -22.234  0.00  0.00    -0.098 Cl
ATOM     17  S   UNL     1      33.803 -18.626 -22.551  0.00  0.00    -0.062 S 
ATOM     18  N   UNL     1      34.000 -20.553 -20.563  0.00  0.00    -0.395 NA
ATOM     19  C   UNL     1      35.000 -20.723 -19.603  0.00  0.00    +0.167 C 
ATOM     20  C   UNL     1      35.675 -18.977 -20.714  0.00  0.00    +0.018 C 
ATOM     21  C   UNL     1      36.012 -19.833 -19.635  0.00  0.00    +0.093 C 
ATOM     22  C   UNL     1      34.418 -19.509 -21.217  0.00  0.00    +0.154 C 
ATOM     23  C   UNL     1      36.109 -17.910 -21.377  0.00  0.00    +0.000 C 
ATOM     24  C   UNL     1      35.233 -17.456 -22.513  0.00  0.00    +0.155 C 
ENDBRANCH  14  19
ENDBRANCH   3  13
BRANCH   2  25
ATOM     25  C   UNL     1      34.045 -22.811 -13.201  0.00  0.00    +0.183 C 
BRANCH  25  28
ATOM     26  O   UNL     1      31.716 -22.972 -13.846  0.00  0.00    -0.273 OA
ATOM     27  N   UNL     1      33.042 -24.844 -13.994  0.00  0.00    -0.327 N 
ATOM     28  C   UNL     1      32.812 -23.513 -13.722  0.00  0.00    +0.240 C 
ATOM     29  H   UNL     1      32.314 -25.409 -14.340  0.00  0.00    +0.145 HD
ATOM     30  H   UNL     1      33.935 -25.230 -13.842  0.00  0.00    +0.145 HD
ENDBRANCH  25  28
ENDBRANCH   2  25
TORSDOF 4
ENDMDL
MODEL 8
REMARK VINA RESULT:      -8.9     11.239     16.160
REMARK  Name = 46937093
REMARK  4 active torsions:
REMARK  status: ('A' for Active; 'I' for Inactive)
REMARK    1  A    between atoms: N_2  and  C_25
REMARK    2  A    between atoms: C_3  and  N_13
REMARK    3  A    between atoms: C_14  and  C_19
REMARK    4  A    between atoms: C_25  and  C_28
REMARK                            x       y       z     vdW  Elec       q    Type
REMARK                         _______ _______ _______ _____ _____    ______ ____
ROOT
ATOM      1  O   UNL     1      32.314  -6.096 -21.448  0.00  0.00    -0.273 OA
ATOM      2  N   UNL     1      32.116  -4.353 -22.980  0.00  0.00    -0.249 N 
ATOM      3  C   UNL     1      33.097  -6.509 -23.684  0.00  0.00    +0.154 C 
ATOM      4  C   UNL     1      32.423  -6.321 -25.030  0.00  0.00    +0.057 C 
ATOM      5  C   UNL     1      32.371  -4.861 -25.368  0.00  0.00    -0.006 C 
ATOM      6  C   UNL     1      32.192  -3.914 -24.344  0.00  0.00    +0.050 C 
ATOM      7  C   UNL     1      32.439  -5.666 -22.597  0.00  0.00    +0.248 C 
ATOM      8  C   UNL     1      32.415  -4.453 -26.709  0.00  0.00    -0.003 C 
ATOM      9  C   UNL     1      32.066  -2.560 -24.698  0.00  0.00    +0.015 C 
ATOM     10  C   UNL     1      32.302  -3.106 -27.040  0.00  0.00    -0.000 C 
ATOM     11  C   UNL     1      32.127  -2.161 -26.035  0.00  0.00    +0.001 C 
ENDROOT
BRANCH   3  13
ATOM     12  O   UNL     1      30.761  -8.232 -23.464  0.00  0.00    -0.268 OA
ATOM     13  N   UNL     1      33.061  -7.891 -23.281  0.00  0.00    -0.293 N 
ATOM     14  C   UNL     1      31.892  -8.627 -23.208  0.00  0.00    +0.272 C 
ATOM     15  H   UNL     1      33.908  -8.333 -23.047  0.00  0.00    +0.150 HD
BRANCH  14  19
ATOM     16 CL   UNL     1      33.928 -14.641 -20.195  0.00  0.00    -0.098 Cl
ATOM     17  S   UNL     1      33.628 -13.513 -22.932  0.00  0.00    -0.062 S 
ATOM     18  N   UNL     1      32.980 -10.867 -23.470  0.00  0.00    -0.395 NA
ATOM     19  C   UNL     1      32.121 -10.017 -22.773  0.00  0.00    +0.167 C 
ATOM     20  C   UNL     1      32.010 -11.869 -21.634  0.00  0.00    +0.018 C 
ATOM     21  C   UNL     1      31.519 -10.540 -21.686  0.00  0.00    +0.093 C 
ATOM     22  C   UNL     1      32.903 -11.967 -22.780  0.00  0.00    +0.154 C 
ATOM     23  C   UNL     1      31.925 -12.989 -20.924  0.00  0.00    +0.000 C 
ATOM     24  C   UNL     1      32.756 -14.138 -21.428  0.00  0.00    +0.155 C 
ENDBRANCH  14  19
ENDBRANCH   3  13
BRANCH   2  25
ATOM     25  C   UNL     1      31.679  -3.406 -21.957  0.00  0.00    +0.183 C 
BRANCH  25  28
ATOM     26  O   UNL     1      29.445  -4.340 -21.954  0.00  0.00    -0.273 OA
ATOM     27  N   UNL     1      29.693  -2.055 -21.916  0.00  0.00    -0.327 N 
ATOM     28  C   UNL     1      30.169  -3.349 -21.927  0.00  0.00    +0.240 C 
ATOM     29  H   UNL     1      28.724  -1.888 -21.897  0.00  0.00    +0.145 HD
ATOM     30  H   UNL     1      30.324  -1.299 -21.929  0.00  0.00    +0.145 HD
ENDBRANCH  25  28
ENDBRANCH   2  25
TORSDOF 4
ENDMDL
