MODEL 1
REMARK VINA RESULT:     -11.1      0.000      0.000
REMARK  Name = 56944144
REMARK  5 active torsions:
REMARK  status: ('A' for Active; 'I' for Inactive)
REMARK    1  A    between atoms: C_1  and  C_16
REMARK    2  A    between atoms: C_1  and  C_22
REMARK    3  A    between atoms: C_2  and  C_8
REMARK    4  A    between atoms: C_22  and  O_23
REMARK    5  A    between atoms: O_23  and  C_26
REMARK                            x       y       z     vdW  Elec       q    Type
REMARK                         _______ _______ _______ _____ _____    ______ ____
ROOT
ATOM      1  C   UNL     1      34.723 -23.559 -13.715  0.00  0.00    +0.068 C 
ATOM      2  C   UNL     1      33.454 -23.945 -13.013  0.00  0.00    +0.084 C 
ATOM      3  C   UNL     1      34.503 -23.155 -12.286  0.00  0.00    +0.018 C 
ENDROOT
BRANCH   2   8
ATOM      4  F   UNL     1      26.552 -22.588 -16.346  0.00  0.00    -0.203 F 
ATOM      5  O   UNL     1      31.895 -22.243 -12.775  0.00  0.00    -0.275 OA
ATOM      6  N   UNL     1      31.440 -23.979 -14.292  0.00  0.00    -0.269 N 
ATOM      7  N   UNL     1      29.616 -24.435 -15.751  0.00  0.00    -0.227 NA
ATOM      8  C   UNL     1      32.176 -23.290 -13.344  0.00  0.00    +0.227 C 
ATOM      9  C   UNL     1      30.177 -23.624 -14.826  0.00  0.00    +0.134 C 
ATOM     10  C   UNL     1      29.594 -22.457 -14.360  0.00  0.00    +0.037 C 
ATOM     11  C   UNL     1      28.354 -22.098 -14.879  0.00  0.00    +0.034 C 
ATOM     12  C   UNL     1      28.412 -24.053 -16.231  0.00  0.00    +0.130 C 
ATOM     13  C   UNL     1      27.745 -22.906 -15.833  0.00  0.00    +0.159 C 
ATOM     14  H   UNL     1      31.839 -24.812 -14.634  0.00  0.00    +0.156 HD
ENDBRANCH   2   8
BRANCH   1  16
ATOM     15  F   UNL     1      39.248 -25.292 -13.252  0.00  0.00    -0.204 F 
ATOM     16  C   UNL     1      35.762 -24.584 -14.016  0.00  0.00    -0.017 C 
ATOM     17  C   UNL     1      37.044 -24.457 -13.482  0.00  0.00    +0.025 C 
ATOM     18  C   UNL     1      35.452 -25.672 -14.834  0.00  0.00    -0.004 C 
ATOM     19  C   UNL     1      38.016 -25.415 -13.764  0.00  0.00    +0.140 C 
ATOM     20  C   UNL     1      36.425 -26.631 -15.117  0.00  0.00    +0.002 C 
ATOM     21  C   UNL     1      37.707 -26.503 -14.582  0.00  0.00    +0.030 C 
ENDBRANCH   1  16
BRANCH   1  22
ATOM     22  C   UNL     1      34.621 -22.482 -14.743  0.00  0.00    +0.210 C 
BRANCH  22  23
ATOM     23  O   UNL     1      34.749 -23.051 -16.037  0.00  0.00    -0.471 OA
BRANCH  23  26
ATOM     24  N   UNL     1      34.203 -20.942 -18.985  0.00  0.00    -0.356 NA
ATOM     25  N   UNL     1      32.102 -21.882 -18.268  0.00  0.00    -0.183 NA
ATOM     26  C   UNL     1      34.125 -22.395 -17.068  0.00  0.00    +0.184 C 
ATOM     27  C   UNL     1      34.800 -21.594 -17.965  0.00  0.00    +0.156 C 
ATOM     28  C   UNL     1      32.765 -22.504 -17.269  0.00  0.00    +0.149 C 
ATOM     29  C   UNL     1      36.276 -21.406 -17.841  0.00  0.00    +0.071 C 
ATOM     30  C   UNL     1      32.873 -21.128 -19.076  0.00  0.00    +0.064 C 
ATOM     31  C   UNL     1      32.176 -20.424 -20.190  0.00  0.00    +0.129 C 
ENDBRANCH  23  26
ENDBRANCH  22  23
ENDBRANCH   1  22
TORSDOF 5
ENDMDL
MODEL 2
REMARK VINA RESULT:     -10.9      2.843      5.844
REMARK  Name = 56944144
REMARK  5 active torsions:
REMARK  status: ('A' for Active; 'I' for Inactive)
REMARK    1  A    between atoms: C_1  and  C_16
REMARK    2  A    between atoms: C_1  and  C_22
REMARK    3  A    between atoms: C_2  and  C_8
REMARK    4  A    between atoms: C_22  and  O_23
REMARK    5  A    between atoms: O_23  and  C_26
REMARK                            x       y       z     vdW  Elec       q    Type
REMARK                         _______ _______ _______ _____ _____    ______ ____
ROOT
ATOM      1  C   UNL     1      34.306 -23.310 -14.567  0.00  0.00    +0.068 C 
ATOM      2  C   UNL     1      35.021 -23.210 -15.883  0.00  0.00    +0.084 C 
ATOM      3  C   UNL     1      34.452 -24.525 -15.436  0.00  0.00    +0.018 C 
ENDROOT
BRANCH   2   8
ATOM      4  F   UNL     1      34.212 -18.643 -22.134  0.00  0.00    -0.203 F 
ATOM      5  O   UNL     1      33.219 -22.731 -17.263  0.00  0.00    -0.275 OA
ATOM      6  N   UNL     1      35.284 -21.706 -17.716  0.00  0.00    -0.269 N 
ATOM      7  N   UNL     1      36.015 -20.177 -19.386  0.00  0.00    -0.227 NA
ATOM      8  C   UNL     1      34.402 -22.523 -17.031  0.00  0.00    +0.227 C 
ATOM      9  C   UNL     1      35.012 -20.912 -18.857  0.00  0.00    +0.134 C 
ATOM     10  C   UNL     1      33.722 -20.943 -19.362  0.00  0.00    +0.037 C 
ATOM     11  C   UNL     1      33.445 -20.166 -20.482  0.00  0.00    +0.034 C 
ATOM     12  C   UNL     1      35.707 -19.435 -20.473  0.00  0.00    +0.130 C 
ATOM     13  C   UNL     1      34.449 -19.395 -21.054  0.00  0.00    +0.159 C 
ATOM     14  H   UNL     1      36.206 -21.672 -17.372  0.00  0.00    +0.156 HD
ENDBRANCH   2   8
BRANCH   1  16
ATOM     15  F   UNL     1      34.836 -24.501  -9.878  0.00  0.00    -0.204 F 
ATOM     16  C   UNL     1      35.066 -23.250 -13.287  0.00  0.00    -0.017 C 
ATOM     17  C   UNL     1      34.587 -23.917 -12.160  0.00  0.00    +0.025 C 
ATOM     18  C   UNL     1      36.257 -22.527 -13.215  0.00  0.00    -0.004 C 
ATOM     19  C   UNL     1      35.298 -23.862 -10.961  0.00  0.00    +0.140 C 
ATOM     20  C   UNL     1      36.968 -22.471 -12.016  0.00  0.00    +0.002 C 
ATOM     21  C   UNL     1      36.488 -23.138 -10.890  0.00  0.00    +0.030 C 
ENDBRANCH   1  16
BRANCH   1  22
ATOM     22  C   UNL     1      32.947 -22.694 -14.493  0.00  0.00    +0.210 C 
BRANCH  22  23
ATOM     23  O   UNL     1      31.963 -23.715 -14.554  0.00  0.00    -0.471 OA
BRANCH  23  26
ATOM     24  N   UNL     1      28.359 -23.611 -15.214  0.00  0.00    -0.356 NA
ATOM     25  N   UNL     1      29.491 -22.075 -16.687  0.00  0.00    -0.183 NA
ATOM     26  C   UNL     1      30.752 -23.377 -15.102  0.00  0.00    +0.184 C 
ATOM     27  C   UNL     1      29.559 -23.932 -14.688  0.00  0.00    +0.156 C 
ATOM     28  C   UNL     1      30.657 -22.445 -16.115  0.00  0.00    +0.149 C 
ATOM     29  C   UNL     1      29.545 -24.951 -13.597  0.00  0.00    +0.071 C 
ATOM     30  C   UNL     1      28.398 -22.689 -16.195  0.00  0.00    +0.064 C 
ATOM     31  C   UNL     1      27.092 -22.308 -16.804  0.00  0.00    +0.129 C 
ENDBRANCH  23  26
ENDBRANCH  22  23
ENDBRANCH   1  22
TORSDOF 5
ENDMDL
MODEL 3
REMARK VINA RESULT:     -10.7      1.216      1.728
REMARK  Name = 56944144
REMARK  5 active torsions:
REMARK  status: ('A' for Active; 'I' for Inactive)
REMARK    1  A    between atoms: C_1  and  C_16
REMARK    2  A    between atoms: C_1  and  C_22
REMARK    3  A    between atoms: C_2  and  C_8
REMARK    4  A    between atoms: C_22  and  O_23
REMARK    5  A    between atoms: O_23  and  C_26
REMARK                            x       y       z     vdW  Elec       q    Type
REMARK                         _______ _______ _______ _____ _____    ______ ____
ROOT
ATOM      1  C   UNL     1      35.659 -23.254 -14.118  0.00  0.00    +0.068 C 
ATOM      2  C   UNL     1      34.349 -23.669 -13.516  0.00  0.00    +0.084 C 
ATOM      3  C   UNL     1      35.286 -22.789 -12.740  0.00  0.00    +0.018 C 
ENDROOT
BRANCH   2   8
ATOM      4  F   UNL     1      26.917 -23.175 -15.777  0.00  0.00    -0.203 F 
ATOM      5  O   UNL     1      33.038 -21.901 -14.251  0.00  0.00    -0.275 OA
ATOM      6  N   UNL     1      32.066 -24.036 -14.107  0.00  0.00    -0.269 N 
ATOM      7  N   UNL     1      29.888 -24.872 -14.574  0.00  0.00    -0.227 NA
ATOM      8  C   UNL     1      33.079 -23.098 -14.000  0.00  0.00    +0.227 C 
ATOM      9  C   UNL     1      30.735 -23.819 -14.539  0.00  0.00    +0.134 C 
ATOM     10  C   UNL     1      30.384 -22.528 -14.899  0.00  0.00    +0.037 C 
ATOM     11  C   UNL     1      29.079 -22.304 -15.325  0.00  0.00    +0.034 C 
ATOM     12  C   UNL     1      28.629 -24.615 -14.994  0.00  0.00    +0.130 C 
ATOM     13  C   UNL     1      28.179 -23.362 -15.376  0.00  0.00    +0.159 C 
ATOM     14  H   UNL     1      32.298 -24.959 -13.855  0.00  0.00    +0.156 HD
ENDBRANCH   2   8
BRANCH   1  16
ATOM     15  F   UNL     1      40.389 -24.285 -14.625  0.00  0.00    -0.204 F 
ATOM     16  C   UNL     1      36.769 -24.238 -14.264  0.00  0.00    -0.017 C 
ATOM     17  C   UNL     1      38.086 -23.793 -14.378  0.00  0.00    +0.025 C 
ATOM     18  C   UNL     1      36.491 -25.605 -14.287  0.00  0.00    -0.004 C 
ATOM     19  C   UNL     1      39.125 -24.713 -14.514  0.00  0.00    +0.140 C 
ATOM     20  C   UNL     1      37.530 -26.526 -14.424  0.00  0.00    +0.002 C 
ATOM     21  C   UNL     1      38.846 -26.080 -14.538  0.00  0.00    +0.030 C 
ENDBRANCH   1  16
BRANCH   1  22
ATOM     22  C   UNL     1      35.605 -22.238 -15.210  0.00  0.00    +0.210 C 
BRANCH  22  23
ATOM     23  O   UNL     1      35.309 -22.882 -16.439  0.00  0.00    -0.471 OA
BRANCH  23  26
ATOM     24  N   UNL     1      33.593 -21.199 -19.207  0.00  0.00    -0.356 NA
ATOM     25  N   UNL     1      35.890 -20.471 -19.123  0.00  0.00    -0.183 NA
ATOM     26  C   UNL     1      35.073 -22.074 -17.522  0.00  0.00    +0.184 C 
ATOM     27  C   UNL     1      33.844 -21.989 -18.142  0.00  0.00    +0.156 C 
ATOM     28  C   UNL     1      36.069 -21.285 -18.061  0.00  0.00    +0.149 C 
ATOM     29  C   UNL     1      32.694 -22.799 -17.642  0.00  0.00    +0.071 C 
ATOM     30  C   UNL     1      34.646 -20.478 -19.639  0.00  0.00    +0.064 C 
ATOM     31  C   UNL     1      34.410 -19.593 -20.815  0.00  0.00    +0.129 C 
ENDBRANCH  23  26
ENDBRANCH  22  23
ENDBRANCH   1  22
TORSDOF 5
ENDMDL
MODEL 4
REMARK VINA RESULT:     -10.2      1.182      1.593
REMARK  Name = 56944144
REMARK  5 active torsions:
REMARK  status: ('A' for Active; 'I' for Inactive)
REMARK    1  A    between atoms: C_1  and  C_16
REMARK    2  A    between atoms: C_1  and  C_22
REMARK    3  A    between atoms: C_2  and  C_8
REMARK    4  A    between atoms: C_22  and  O_23
REMARK    5  A    between atoms: O_23  and  C_26
REMARK                            x       y       z     vdW  Elec       q    Type
REMARK                         _______ _______ _______ _____ _____    ______ ____
ROOT
ATOM      1  C   UNL     1      34.409 -23.867 -14.068  0.00  0.00    +0.068 C 
ATOM      2  C   UNL     1      33.183 -23.970 -13.208  0.00  0.00    +0.084 C 
ATOM      3  C   UNL     1      33.810 -22.630 -13.464  0.00  0.00    +0.018 C 
ENDROOT
BRANCH   2   8
ATOM      4  F   UNL     1      26.541 -23.019 -17.154  0.00  0.00    -0.203 F 
ATOM      5  O   UNL     1      31.382 -25.372 -13.625  0.00  0.00    -0.275 OA
ATOM      6  N   UNL     1      31.337 -23.194 -14.506  0.00  0.00    -0.269 N 
ATOM      7  N   UNL     1      29.758 -21.999 -15.825  0.00  0.00    -0.227 NA
ATOM      8  C   UNL     1      31.865 -24.262 -13.801  0.00  0.00    +0.227 C 
ATOM      9  C   UNL     1      30.099 -23.143 -15.191  0.00  0.00    +0.134 C 
ATOM     10  C   UNL     1      29.310 -24.282 -15.167  0.00  0.00    +0.037 C 
ATOM     11  C   UNL     1      28.092 -24.243 -15.836  0.00  0.00    +0.034 C 
ATOM     12  C   UNL     1      28.566 -21.999 -16.464  0.00  0.00    +0.130 C 
ATOM     13  C   UNL     1      27.705 -23.084 -16.499  0.00  0.00    +0.159 C 
ATOM     14  H   UNL     1      31.884 -22.376 -14.534  0.00  0.00    +0.156 HD
ENDBRANCH   2   8
BRANCH   1  16
ATOM     15  F   UNL     1      38.776 -25.881 -14.820  0.00  0.00    -0.204 F 
ATOM     16  C   UNL     1      35.729 -24.341 -13.563  0.00  0.00    -0.017 C 
ATOM     17  C   UNL     1      36.654 -24.899 -14.445  0.00  0.00    +0.025 C 
ATOM     18  C   UNL     1      36.038 -24.228 -12.207  0.00  0.00    -0.004 C 
ATOM     19  C   UNL     1      37.888 -25.344 -13.973  0.00  0.00    +0.140 C 
ATOM     20  C   UNL     1      37.274 -24.673 -11.734  0.00  0.00    +0.002 C 
ATOM     21  C   UNL     1      38.198 -25.230 -12.617  0.00  0.00    +0.030 C 
ENDBRANCH   1  16
BRANCH   1  22
ATOM     22  C   UNL     1      34.219 -24.060 -15.536  0.00  0.00    +0.210 C 
BRANCH  22  23
ATOM     23  O   UNL     1      34.936 -23.058 -16.240  0.00  0.00    -0.471 OA
BRANCH  23  26
ATOM     24  N   UNL     1      34.224 -20.844 -19.074  0.00  0.00    -0.356 NA
ATOM     25  N   UNL     1      32.198 -21.962 -18.398  0.00  0.00    -0.183 NA
ATOM     26  C   UNL     1      34.261 -22.395 -17.234  0.00  0.00    +0.184 C 
ATOM     27  C   UNL     1      34.872 -21.504 -18.091  0.00  0.00    +0.156 C 
ATOM     28  C   UNL     1      32.909 -22.587 -17.435  0.00  0.00    +0.149 C 
ATOM     29  C   UNL     1      36.332 -21.221 -17.963  0.00  0.00    +0.071 C 
ATOM     30  C   UNL     1      32.909 -21.117 -19.169  0.00  0.00    +0.064 C 
ATOM     31  C   UNL     1      32.157 -20.406 -20.243  0.00  0.00    +0.129 C 
ENDBRANCH  23  26
ENDBRANCH  22  23
ENDBRANCH   1  22
TORSDOF 5
ENDMDL
MODEL 5
REMARK VINA RESULT:     -10.1      3.166      6.178
REMARK  Name = 56944144
REMARK  5 active torsions:
REMARK  status: ('A' for Active; 'I' for Inactive)
REMARK    1  A    between atoms: C_1  and  C_16
REMARK    2  A    between atoms: C_1  and  C_22
REMARK    3  A    between atoms: C_2  and  C_8
REMARK    4  A    between atoms: C_22  and  O_23
REMARK    5  A    between atoms: O_23  and  C_26
REMARK                            x       y       z     vdW  Elec       q    Type
REMARK                         _______ _______ _______ _____ _____    ______ ____
ROOT
ATOM      1  C   UNL     1      33.823 -21.582 -18.510  0.00  0.00    +0.068 C 
ATOM      2  C   UNL     1      32.355 -21.859 -18.656  0.00  0.00    +0.084 C 
ATOM      3  C   UNL     1      33.359 -22.915 -19.019  0.00  0.00    +0.018 C 
ENDROOT
BRANCH   2   8
ATOM      4  F   UNL     1      29.854 -24.577 -11.805  0.00  0.00    -0.203 F 
ATOM      5  O   UNL     1      30.446 -21.456 -17.402  0.00  0.00    -0.275 OA
ATOM      6  N   UNL     1      32.040 -22.967 -16.567  0.00  0.00    -0.269 N 
ATOM      7  N   UNL     1      32.163 -24.279 -14.586  0.00  0.00    -0.227 NA
ATOM      8  C   UNL     1      31.502 -22.069 -17.472  0.00  0.00    +0.227 C 
ATOM      9  C   UNL     1      31.479 -23.387 -15.336  0.00  0.00    +0.134 C 
ATOM     10  C   UNL     1      30.253 -22.849 -14.977  0.00  0.00    +0.037 C 
ATOM     11  C   UNL     1      29.694 -23.256 -13.771  0.00  0.00    +0.034 C 
ATOM     12  C   UNL     1      31.587 -24.650 -13.420  0.00  0.00    +0.130 C 
ATOM     13  C   UNL     1      30.366 -24.172 -12.971  0.00  0.00    +0.159 C 
ATOM     14  H   UNL     1      32.911 -23.359 -16.805  0.00  0.00    +0.156 HD
ENDBRANCH   2   8
BRANCH   1  16
ATOM     15  F   UNL     1      33.744 -18.530 -22.300  0.00  0.00    -0.204 F 
ATOM     16  C   UNL     1      34.515 -20.658 -19.452  0.00  0.00    -0.017 C 
ATOM     17  C   UNL     1      33.791 -20.012 -20.455  0.00  0.00    +0.025 C 
ATOM     18  C   UNL     1      35.888 -20.439 -19.332  0.00  0.00    -0.004 C 
ATOM     19  C   UNL     1      34.439 -19.148 -21.337  0.00  0.00    +0.140 C 
ATOM     20  C   UNL     1      36.536 -19.575 -20.215  0.00  0.00    +0.002 C 
ATOM     21  C   UNL     1      35.812 -18.929 -21.217  0.00  0.00    +0.030 C 
ENDBRANCH   1  16
BRANCH   1  22
ATOM     22  C   UNL     1      34.364 -21.543 -17.119  0.00  0.00    +0.210 C 
BRANCH  22  23
ATOM     23  O   UNL     1      35.027 -22.766 -16.837  0.00  0.00    -0.471 OA
BRANCH  23  26
ATOM     24  N   UNL     1      37.285 -22.248 -13.997  0.00  0.00    -0.356 NA
ATOM     25  N   UNL     1      35.648 -23.924 -13.428  0.00  0.00    -0.183 NA
ATOM     26  C   UNL     1      35.607 -22.886 -15.599  0.00  0.00    +0.184 C 
ATOM     27  C   UNL     1      36.702 -22.145 -15.209  0.00  0.00    +0.156 C 
ATOM     28  C   UNL     1      35.117 -23.769 -14.659  0.00  0.00    +0.149 C 
ATOM     29  C   UNL     1      37.314 -21.158 -16.148  0.00  0.00    +0.071 C 
ATOM     30  C   UNL     1      36.715 -23.144 -13.168  0.00  0.00    +0.064 C 
ATOM     31  C   UNL     1      37.331 -23.289 -11.818  0.00  0.00    +0.129 C 
ENDBRANCH  23  26
ENDBRANCH  22  23
ENDBRANCH   1  22
TORSDOF 5
ENDMDL
MODEL 6
REMARK VINA RESULT:      -9.9      1.619      6.734
REMARK  Name = 56944144
REMARK  5 active torsions:
REMARK  status: ('A' for Active; 'I' for Inactive)
REMARK    1  A    between atoms: C_1  and  C_16
REMARK    2  A    between atoms: C_1  and  C_22
REMARK    3  A    between atoms: C_2  and  C_8
REMARK    4  A    between atoms: C_22  and  O_23
REMARK    5  A    between atoms: O_23  and  C_26
REMARK                            x       y       z     vdW  Elec       q    Type
REMARK                         _______ _______ _______ _____ _____    ______ ____
ROOT
ATOM      1  C   UNL     1      31.267 -23.255 -15.189  0.00  0.00    +0.068 C 
ATOM      2  C   UNL     1      31.704 -24.096 -14.026  0.00  0.00    +0.084 C 
ATOM      3  C   UNL     1      31.579 -24.709 -15.390  0.00  0.00    +0.018 C 
ENDROOT
BRANCH   2   8
ATOM      4  F   UNL     1      39.420 -24.587 -13.128  0.00  0.00    -0.203 F 
ATOM      5  O   UNL     1      33.150 -23.347 -12.373  0.00  0.00    -0.275 OA
ATOM      6  N   UNL     1      34.047 -24.505 -14.211  0.00  0.00    -0.269 N 
ATOM      7  N   UNL     1      36.259 -25.137 -14.819  0.00  0.00    -0.227 NA
ATOM      8  C   UNL     1      33.047 -23.939 -13.440  0.00  0.00    +0.227 C 
ATOM      9  C   UNL     1      35.436 -24.529 -13.935  0.00  0.00    +0.134 C 
ATOM     10  C   UNL     1      35.865 -23.922 -12.766  0.00  0.00    +0.037 C 
ATOM     11  C   UNL     1      37.227 -23.941 -12.486  0.00  0.00    +0.034 C 
ATOM     12  C   UNL     1      37.576 -25.135 -14.512  0.00  0.00    +0.130 C 
ATOM     13  C   UNL     1      38.105 -24.557 -13.370  0.00  0.00    +0.159 C 
ATOM     14  H   UNL     1      33.761 -24.941 -15.046  0.00  0.00    +0.156 HD
ENDBRANCH   2   8
BRANCH   1  16
ATOM     15  F   UNL     1      27.094 -22.951 -17.676  0.00  0.00    -0.204 F 
ATOM     16  C   UNL     1      29.852 -22.804 -15.307  0.00  0.00    -0.017 C 
ATOM     17  C   UNL     1      29.120 -23.095 -16.459  0.00  0.00    +0.025 C 
ATOM     18  C   UNL     1      29.258 -22.090 -14.266  0.00  0.00    -0.004 C 
ATOM     19  C   UNL     1      27.796 -22.673 -16.570  0.00  0.00    +0.140 C 
ATOM     20  C   UNL     1      27.933 -21.667 -14.377  0.00  0.00    +0.002 C 
ATOM     21  C   UNL     1      27.202 -21.959 -15.528  0.00  0.00    +0.030 C 
ENDBRANCH   1  16
BRANCH   1  22
ATOM     22  C   UNL     1      32.260 -22.273 -15.719  0.00  0.00    +0.210 C 
BRANCH  22  23
ATOM     23  O   UNL     1      33.066 -22.903 -16.703  0.00  0.00    -0.471 OA
BRANCH  23  26
ATOM     24  N   UNL     1      35.327 -20.887 -18.766  0.00  0.00    -0.356 NA
ATOM     25  N   UNL     1      33.138 -20.927 -19.775  0.00  0.00    -0.183 NA
ATOM     26  C   UNL     1      33.539 -22.110 -17.717  0.00  0.00    +0.184 C 
ATOM     27  C   UNL     1      34.844 -21.666 -17.777  0.00  0.00    +0.156 C 
ATOM     28  C   UNL     1      32.723 -21.705 -18.753  0.00  0.00    +0.149 C 
ATOM     29  C   UNL     1      35.815 -22.044 -16.707  0.00  0.00    +0.071 C 
ATOM     30  C   UNL     1      34.433 -20.559 -19.719  0.00  0.00    +0.064 C 
ATOM     31  C   UNL     1      34.928 -19.698 -20.830  0.00  0.00    +0.129 C 
ENDBRANCH  23  26
ENDBRANCH  22  23
ENDBRANCH   1  22
TORSDOF 5
ENDMDL
MODEL 7
REMARK VINA RESULT:      -9.5     13.088     17.014
REMARK  Name = 56944144
REMARK  5 active torsions:
REMARK  status: ('A' for Active; 'I' for Inactive)
REMARK    1  A    between atoms: C_1  and  C_16
REMARK    2  A    between atoms: C_1  and  C_22
REMARK    3  A    between atoms: C_2  and  C_8
REMARK    4  A    between atoms: C_22  and  O_23
REMARK    5  A    between atoms: O_23  and  C_26
REMARK                            x       y       z     vdW  Elec       q    Type
REMARK                         _______ _______ _______ _____ _____    ______ ____
ROOT
ATOM      1  C   UNL     1      31.216  -9.006 -22.048  0.00  0.00    +0.068 C 
ATOM      2  C   UNL     1      31.577 -10.277 -21.337  0.00  0.00    +0.084 C 
ATOM      3  C   UNL     1      30.139  -9.965 -21.632  0.00  0.00    +0.018 C 
ENDROOT
BRANCH   2   8
ATOM      4  F   UNL     1      35.200 -17.038 -22.659  0.00  0.00    -0.203 F 
ATOM      5  O   UNL     1      32.307 -11.322 -23.275  0.00  0.00    -0.275 OA
ATOM      6  N   UNL     1      32.663 -12.399 -21.217  0.00  0.00    -0.269 N 
ATOM      7  N   UNL     1      33.672 -14.466 -20.609  0.00  0.00    -0.227 NA
ATOM      8  C   UNL     1      32.223 -11.390 -22.056  0.00  0.00    +0.227 C 
ATOM      9  C   UNL     1      33.319 -13.598 -21.584  0.00  0.00    +0.134 C 
ATOM     10  C   UNL     1      33.559 -13.807 -22.933  0.00  0.00    +0.037 C 
ATOM     11  C   UNL     1      34.204 -14.982 -23.304  0.00  0.00    +0.034 C 
ATOM     12  C   UNL     1      34.296 -15.596 -21.009  0.00  0.00    +0.130 C 
ATOM     13  C   UNL     1      34.583 -15.899 -22.331  0.00  0.00    +0.159 C 
ATOM     14  H   UNL     1      32.500 -12.268 -20.254  0.00  0.00    +0.156 HD
ENDBRANCH   2   8
BRANCH   1  16
ATOM     15  F   UNL     1      29.930  -4.336 -21.568  0.00  0.00    -0.204 F 
ATOM     16  C   UNL     1      31.313  -7.694 -21.348  0.00  0.00    -0.017 C 
ATOM     17  C   UNL     1      30.560  -6.608 -21.793  0.00  0.00    +0.025 C 
ATOM     18  C   UNL     1      32.159  -7.552 -20.248  0.00  0.00    -0.004 C 
ATOM     19  C   UNL     1      30.652  -5.380 -21.139  0.00  0.00    +0.140 C 
ATOM     20  C   UNL     1      32.251  -6.323 -19.593  0.00  0.00    +0.002 C 
ATOM     21  C   UNL     1      31.498  -5.238 -20.038  0.00  0.00    +0.030 C 
ENDBRANCH   1  16
BRANCH   1  22
ATOM     22  C   UNL     1      31.532  -8.939 -23.506  0.00  0.00    +0.210 C 
BRANCH  22  23
ATOM     23  O   UNL     1      32.761  -8.253 -23.690  0.00  0.00    -0.471 OA
BRANCH  23  26
ATOM     24  N   UNL     1      33.429  -4.695 -24.260  0.00  0.00    -0.356 NA
ATOM     25  N   UNL     1      31.708  -5.442 -25.773  0.00  0.00    -0.183 NA
ATOM     26  C   UNL     1      32.692  -6.985 -24.209  0.00  0.00    +0.184 C 
ATOM     27  C   UNL     1      33.482  -5.947 -23.761  0.00  0.00    +0.156 C 
ATOM     28  C   UNL     1      31.814  -6.672 -25.226  0.00  0.00    +0.149 C 
ATOM     29  C   UNL     1      34.468  -6.174 -22.663  0.00  0.00    +0.071 C 
ATOM     30  C   UNL     1      32.533  -4.515 -25.249  0.00  0.00    +0.064 C 
ATOM     31  C   UNL     1      32.443  -3.144 -25.827  0.00  0.00    +0.129 C 
ENDBRANCH  23  26
ENDBRANCH  22  23
ENDBRANCH   1  22
TORSDOF 5
ENDMDL
MODEL 8
REMARK VINA RESULT:      -9.2     13.503     17.416
REMARK  Name = 56944144
REMARK  5 active torsions:
REMARK  status: ('A' for Active; 'I' for Inactive)
REMARK    1  A    between atoms: C_1  and  C_16
REMARK    2  A    between atoms: C_1  and  C_22
REMARK    3  A    between atoms: C_2  and  C_8
REMARK    4  A    between atoms: C_22  and  O_23
REMARK    5  A    between atoms: O_23  and  C_26
REMARK                            x       y       z     vdW  Elec       q    Type
REMARK                         _______ _______ _______ _____ _____    ______ ____
ROOT
ATOM      1  C   UNL     1      31.404  -8.321 -21.938  0.00  0.00    +0.068 C 
ATOM      2  C   UNL     1      30.810  -9.462 -21.165  0.00  0.00    +0.084 C 
ATOM      3  C   UNL     1      30.307  -9.147 -22.544  0.00  0.00    +0.018 C 
ENDROOT
BRANCH   2   8
ATOM      4  F   UNL     1      34.699 -16.030 -22.688  0.00  0.00    -0.203 F 
ATOM      5  O   UNL     1      31.817 -11.049 -19.806  0.00  0.00    -0.275 OA
ATOM      6  N   UNL     1      31.904 -11.347 -22.135  0.00  0.00    -0.269 N 
ATOM      7  N   UNL     1      32.856 -13.022 -23.531  0.00  0.00    -0.227 NA
ATOM      8  C   UNL     1      31.567 -10.709 -20.955  0.00  0.00    +0.227 C 
ATOM      9  C   UNL     1      32.625 -12.557 -22.283  0.00  0.00    +0.134 C 
ATOM     10  C   UNL     1      33.052 -13.191 -21.128  0.00  0.00    +0.037 C 
ATOM     11  C   UNL     1      33.760 -14.380 -21.262  0.00  0.00    +0.034 C 
ATOM     12  C   UNL     1      33.547 -14.181 -23.622  0.00  0.00    +0.130 C 
ATOM     13  C   UNL     1      34.017 -14.891 -22.529  0.00  0.00    +0.159 C 
ATOM     14  H   UNL     1      31.609 -10.911 -22.967  0.00  0.00    +0.156 HD
ENDBRANCH   2   8
BRANCH   1  16
ATOM     15  F   UNL     1      32.238  -4.404 -19.172  0.00  0.00    -0.204 F 
ATOM     16  C   UNL     1      31.108  -6.912 -21.553  0.00  0.00    -0.017 C 
ATOM     17  C   UNL     1      31.826  -6.304 -20.523  0.00  0.00    +0.025 C 
ATOM     18  C   UNL     1      30.112  -6.200 -22.223  0.00  0.00    -0.004 C 
ATOM     19  C   UNL     1      31.549  -4.986 -20.162  0.00  0.00    +0.140 C 
ATOM     20  C   UNL     1      29.835  -4.881 -21.862  0.00  0.00    +0.002 C 
ATOM     21  C   UNL     1      30.553  -4.274 -20.832  0.00  0.00    +0.030 C 
ENDBRANCH   1  16
BRANCH   1  22
ATOM     22  C   UNL     1      32.779  -8.522 -22.483  0.00  0.00    +0.210 C 
BRANCH  22  23
ATOM     23  O   UNL     1      32.778  -8.252 -23.877  0.00  0.00    -0.471 OA
BRANCH  23  26
ATOM     24  N   UNL     1      32.079  -5.033 -25.484  0.00  0.00    -0.356 NA
ATOM     25  N   UNL     1      34.065  -4.842 -24.132  0.00  0.00    -0.183 NA
ATOM     26  C   UNL     1      32.886  -6.937 -24.254  0.00  0.00    +0.184 C 
ATOM     27  C   UNL     1      31.989  -6.324 -25.104  0.00  0.00    +0.156 C 
ATOM     28  C   UNL     1      33.914  -6.140 -23.794  0.00  0.00    +0.149 C 
ATOM     29  C   UNL     1      30.838  -7.093 -25.661  0.00  0.00    +0.071 C 
ATOM     30  C   UNL     1      33.126  -4.361 -24.969  0.00  0.00    +0.064 C 
ATOM     31  C   UNL     1      33.261  -2.930 -25.366  0.00  0.00    +0.129 C 
ENDBRANCH  23  26
ENDBRANCH  22  23
ENDBRANCH   1  22
TORSDOF 5
ENDMDL
MODEL 9
REMARK VINA RESULT:      -9.1      3.174      6.261
REMARK  Name = 56944144
REMARK  5 active torsions:
REMARK  status: ('A' for Active; 'I' for Inactive)
REMARK    1  A    between atoms: C_1  and  C_16
REMARK    2  A    between atoms: C_1  and  C_22
REMARK    3  A    between atoms: C_2  and  C_8
REMARK    4  A    between atoms: C_22  and  O_23
REMARK    5  A    between atoms: O_23  and  C_26
REMARK                            x       y       z     vdW  Elec       q    Type
REMARK                         _______ _______ _______ _____ _____    ______ ____
ROOT
ATOM      1  C   UNL     1      34.685 -21.205 -19.163  0.00  0.00    +0.068 C 
ATOM      2  C   UNL     1      33.517 -22.137 -19.306  0.00  0.00    +0.084 C 
ATOM      3  C   UNL     1      34.897 -22.600 -19.675  0.00  0.00    +0.018 C 
ENDROOT
BRANCH   2   8
ATOM      4  F   UNL     1      28.253 -23.453 -13.726  0.00  0.00    -0.203 F 
ATOM      5  O   UNL     1      33.448 -23.618 -17.522  0.00  0.00    -0.275 OA
ATOM      6  N   UNL     1      31.636 -22.155 -17.839  0.00  0.00    -0.269 N 
ATOM      7  N   UNL     1      29.593 -21.812 -16.670  0.00  0.00    -0.227 NA
ATOM      8  C   UNL     1      32.867 -22.723 -18.121  0.00  0.00    +0.227 C 
ATOM      9  C   UNL     1      30.759 -22.486 -16.778  0.00  0.00    +0.134 C 
ATOM     10  C   UNL     1      31.158 -23.491 -15.910  0.00  0.00    +0.037 C 
ATOM     11  C   UNL     1      30.304 -23.823 -14.865  0.00  0.00    +0.034 C 
ATOM     12  C   UNL     1      28.789 -22.163 -15.640  0.00  0.00    +0.130 C 
ATOM     13  C   UNL     1      29.096 -23.152 -14.720  0.00  0.00    +0.159 C 
ATOM     14  H   UNL     1      31.336 -21.439 -18.445  0.00  0.00    +0.156 HD
ENDBRANCH   2   8
BRANCH   1  16
ATOM     15  F   UNL     1      37.516 -17.954 -21.423  0.00  0.00    -0.204 F 
ATOM     16  C   UNL     1      34.861 -20.063 -20.105  0.00  0.00    -0.017 C 
ATOM     17  C   UNL     1      36.131 -19.533 -20.329  0.00  0.00    +0.025 C 
ATOM     18  C   UNL     1      33.754 -19.524 -20.762  0.00  0.00    -0.004 C 
ATOM     19  C   UNL     1      36.296 -18.464 -21.210  0.00  0.00    +0.140 C 
ATOM     20  C   UNL     1      33.919 -18.454 -21.643  0.00  0.00    +0.002 C 
ATOM     21  C   UNL     1      35.190 -17.925 -21.867  0.00  0.00    +0.030 C 
ENDBRANCH   1  16
BRANCH   1  22
ATOM     22  C   UNL     1      35.150 -20.919 -17.773  0.00  0.00    +0.210 C 
BRANCH  22  23
ATOM     23  O   UNL     1      35.967 -21.988 -17.321  0.00  0.00    -0.471 OA
BRANCH  23  26
ATOM     24  N   UNL     1      37.018 -22.933 -13.939  0.00  0.00    -0.356 NA
ATOM     25  N   UNL     1      34.652 -22.475 -13.947  0.00  0.00    -0.183 NA
ATOM     26  C   UNL     1      35.926 -22.275 -15.980  0.00  0.00    +0.184 C 
ATOM     27  C   UNL     1      37.040 -22.649 -15.258  0.00  0.00    +0.156 C 
ATOM     28  C   UNL     1      34.747 -22.205 -15.266  0.00  0.00    +0.149 C 
ATOM     29  C   UNL     1      38.368 -22.757 -15.930  0.00  0.00    +0.071 C 
ATOM     30  C   UNL     1      35.809 -22.828 -13.356  0.00  0.00    +0.064 C 
ATOM     31  C   UNL     1      35.743 -23.136 -11.898  0.00  0.00    +0.129 C 
ENDBRANCH  23  26
ENDBRANCH  22  23
ENDBRANCH   1  22
TORSDOF 5
ENDMDL
