MODEL 1
REMARK VINA RESULT:     -12.2      0.000      0.000
REMARK  Name = 124246
REMARK  5 active torsions:
REMARK  status: ('A' for Active; 'I' for Inactive)
REMARK    1  A    between atoms: C_3  and  N_16
REMARK    2  A    between atoms: C_6  and  O_22
REMARK    3  A    between atoms: C_10  and  N_13
REMARK    4  A    between atoms: N_16  and  S_18
REMARK    5  A    between atoms: O_22  and  C_23
REMARK                            x       y       z     vdW  Elec       q    Type
REMARK                         _______ _______ _______ _____ _____    ______ ____
ROOT
ATOM      1  O   UNL     1      32.701 -23.366 -12.952  0.00  0.00    -0.449 OA
ATOM      2  O   UNL     1      35.897 -23.872 -15.447  0.00  0.00    -0.285 OA
ATOM      3  C   UNL     1      31.122 -22.454 -16.109  0.00  0.00    +0.102 C 
ATOM      4  C   UNL     1      33.624 -23.282 -15.201  0.00  0.00    +0.078 C 
ATOM      5  C   UNL     1      32.570 -23.126 -14.299  0.00  0.00    +0.150 C 
ATOM      6  C   UNL     1      32.176 -22.609 -17.011  0.00  0.00    +0.160 C 
ATOM      7  C   UNL     1      31.317 -22.712 -14.752  0.00  0.00    +0.057 C 
ATOM      8  C   UNL     1      33.430 -23.024 -16.560  0.00  0.00    +0.045 C 
ATOM      9  C   UNL     1      34.941 -23.721 -14.699  0.00  0.00    +0.215 C 
ATOM     10  C   UNL     1      35.026 -23.964 -13.240  0.00  0.00    +0.128 C 
ATOM     11  C   UNL     1      33.932 -23.774 -12.497  0.00  0.00    +0.197 C 
ENDROOT
BRANCH  10  13
ATOM     12  O   UNL     1      37.213 -22.281 -12.356  0.00  0.00    -0.265 OA
ATOM     13  N   UNL     1      36.215 -24.371 -12.715  0.00  0.00    -0.272 N 
ATOM     14  C   UNL     1      37.212 -23.505 -12.315  0.00  0.00    +0.304 C 
ATOM     15  H   UNL     1      36.371 -25.337 -12.615  0.00  0.00    +0.155 HD
ENDBRANCH  10  13
BRANCH   3  16
ATOM     16  N   UNL     1      29.835 -22.029 -16.562  0.00  0.00    -0.216 N 
ATOM     17  H   UNL     1      29.720 -21.167 -17.025  0.00  0.00    +0.173 HD
BRANCH  16  18
ATOM     18  S   UNL     1      28.491 -23.067 -16.280  0.00  0.00    +0.056 S 
ATOM     19  O   UNL     1      27.704 -23.138 -17.496  0.00  0.00    -0.154 OA
ATOM     20  O   UNL     1      28.904 -24.277 -15.598  0.00  0.00    -0.154 OA
ATOM     21  C   UNL     1      27.567 -22.078 -15.125  0.00  0.00    +0.200 C 
ENDBRANCH  16  18
ENDBRANCH   3  16
BRANCH   6  22
ATOM     22  O   UNL     1      32.000 -22.360 -18.340  0.00  0.00    -0.452 OA
BRANCH  22  23
ATOM     23  C   UNL     1      32.956 -21.591 -18.980  0.00  0.00    +0.145 C 
ATOM     24  C   UNL     1      34.294 -21.904 -18.817  0.00  0.00    +0.037 C 
ATOM     25  C   UNL     1      32.550 -20.528 -19.766  0.00  0.00    +0.037 C 
ATOM     26  C   UNL     1      35.257 -21.127 -19.462  0.00  0.00    +0.003 C 
ATOM     27  C   UNL     1      33.512 -19.752 -20.412  0.00  0.00    +0.003 C 
ATOM     28  C   UNL     1      34.866 -20.052 -20.259  0.00  0.00    +0.000 C 
ENDBRANCH  22  23
ENDBRANCH   6  22
TORSDOF 5
ENDMDL
MODEL 2
REMARK VINA RESULT:     -10.8      2.570      6.064
REMARK  Name = 124246
REMARK  5 active torsions:
REMARK  status: ('A' for Active; 'I' for Inactive)
REMARK    1  A    between atoms: C_3  and  N_16
REMARK    2  A    between atoms: C_6  and  O_22
REMARK    3  A    between atoms: C_10  and  N_13
REMARK    4  A    between atoms: N_16  and  S_18
REMARK    5  A    between atoms: O_22  and  C_23
REMARK                            x       y       z     vdW  Elec       q    Type
REMARK                         _______ _______ _______ _____ _____    ______ ____
ROOT
ATOM      1  O   UNL     1      32.419 -21.956 -18.764  0.00  0.00    -0.449 OA
ATOM      2  O   UNL     1      36.374 -21.188 -18.079  0.00  0.00    -0.285 OA
ATOM      3  C   UNL     1      32.707 -23.343 -15.404  0.00  0.00    +0.102 C 
ATOM      4  C   UNL     1      34.341 -22.085 -17.279  0.00  0.00    +0.078 C 
ATOM      5  C   UNL     1      32.997 -22.320 -17.571  0.00  0.00    +0.150 C 
ATOM      6  C   UNL     1      34.051 -23.107 -15.112  0.00  0.00    +0.160 C 
ATOM      7  C   UNL     1      32.177 -22.950 -16.633  0.00  0.00    +0.057 C 
ATOM      8  C   UNL     1      34.873 -22.477 -16.048  0.00  0.00    +0.045 C 
ATOM      9  C   UNL     1      35.190 -21.418 -18.285  0.00  0.00    +0.215 C 
ATOM     10  C   UNL     1      34.518 -21.047 -19.552  0.00  0.00    +0.128 C 
ATOM     11  C   UNL     1      33.220 -21.335 -19.693  0.00  0.00    +0.197 C 
ENDROOT
BRANCH  10  13
ATOM     12  O   UNL     1      34.143 -18.363 -20.577  0.00  0.00    -0.265 OA
ATOM     13  N   UNL     1      35.247 -20.429 -20.521  0.00  0.00    -0.272 N 
ATOM     14  C   UNL     1      35.007 -19.142 -20.958  0.00  0.00    +0.304 C 
ATOM     15  H   UNL     1      35.988 -20.928 -20.933  0.00  0.00    +0.155 HD
ENDBRANCH  10  13
BRANCH   3  16
ATOM     16  N   UNL     1      31.858 -23.987 -14.452  0.00  0.00    -0.216 N 
ATOM     17  H   UNL     1      31.959 -24.946 -14.251  0.00  0.00    +0.173 HD
BRANCH  16  18
ATOM     18  S   UNL     1      30.655 -23.041 -13.664  0.00  0.00    +0.056 S 
ATOM     19  O   UNL     1      30.411 -23.611 -12.352  0.00  0.00    -0.154 OA
ATOM     20  O   UNL     1      30.927 -21.626 -13.814  0.00  0.00    -0.154 OA
ATOM     21  C   UNL     1      29.239 -23.434 -14.668  0.00  0.00    +0.200 C 
ENDBRANCH  16  18
ENDBRANCH   3  16
BRANCH   6  22
ATOM     22  O   UNL     1      34.581 -23.486 -13.915  0.00  0.00    -0.452 OA
BRANCH  22  23
ATOM     23  C   UNL     1      35.739 -24.244 -13.937  0.00  0.00    +0.145 C 
ATOM     24  C   UNL     1      35.757 -25.429 -14.652  0.00  0.00    +0.037 C 
ATOM     25  C   UNL     1      36.849 -23.800 -13.241  0.00  0.00    +0.037 C 
ATOM     26  C   UNL     1      36.924 -26.193 -14.673  0.00  0.00    +0.003 C 
ATOM     27  C   UNL     1      38.016 -24.564 -13.262  0.00  0.00    +0.003 C 
ATOM     28  C   UNL     1      38.053 -25.761 -13.978  0.00  0.00    +0.000 C 
ENDBRANCH  22  23
ENDBRANCH   6  22
TORSDOF 5
ENDMDL
MODEL 3
REMARK VINA RESULT:      -9.5      2.603      5.356
REMARK  Name = 124246
REMARK  5 active torsions:
REMARK  status: ('A' for Active; 'I' for Inactive)
REMARK    1  A    between atoms: C_3  and  N_16
REMARK    2  A    between atoms: C_6  and  O_22
REMARK    3  A    between atoms: C_10  and  N_13
REMARK    4  A    between atoms: N_16  and  S_18
REMARK    5  A    between atoms: O_22  and  C_23
REMARK                            x       y       z     vdW  Elec       q    Type
REMARK                         _______ _______ _______ _____ _____    ______ ____
ROOT
ATOM      1  O   UNL     1      37.651 -22.460 -15.729  0.00  0.00    -0.449 OA
ATOM      2  O   UNL     1      36.213 -25.561 -13.489  0.00  0.00    -0.285 OA
ATOM      3  C   UNL     1      34.138 -22.292 -16.690  0.00  0.00    +0.102 C 
ATOM      4  C   UNL     1      35.766 -23.830 -15.032  0.00  0.00    +0.078 C 
ATOM      5  C   UNL     1      36.316 -22.783 -15.773  0.00  0.00    +0.150 C 
ATOM      6  C   UNL     1      33.588 -23.339 -15.949  0.00  0.00    +0.160 C 
ATOM      7  C   UNL     1      35.502 -22.012 -16.604  0.00  0.00    +0.057 C 
ATOM      8  C   UNL     1      34.400 -24.112 -15.117  0.00  0.00    +0.045 C 
ATOM      9  C   UNL     1      36.645 -24.634 -14.160  0.00  0.00    +0.215 C 
ATOM     10  C   UNL     1      38.074 -24.243 -14.150  0.00  0.00    +0.128 C 
ATOM     11  C   UNL     1      38.459 -23.216 -14.913  0.00  0.00    +0.197 C 
ENDROOT
BRANCH  10  13
ATOM     12  O   UNL     1      40.223 -25.976 -15.033  0.00  0.00    -0.265 OA
ATOM     13  N   UNL     1      38.937 -24.945 -13.366  0.00  0.00    -0.272 N 
ATOM     14  C   UNL     1      39.940 -25.753 -13.862  0.00  0.00    +0.304 C 
ATOM     15  H   UNL     1      38.841 -24.872 -12.389  0.00  0.00    +0.155 HD
ENDBRANCH  10  13
BRANCH   3  16
ATOM     16  N   UNL     1      33.314 -21.496 -17.545  0.00  0.00    -0.216 N 
ATOM     17  H   UNL     1      32.779 -20.752 -17.183  0.00  0.00    +0.173 HD
BRANCH  16  18
ATOM     18  S   UNL     1      33.284 -21.870 -19.225  0.00  0.00    +0.056 S 
ATOM     19  O   UNL     1      33.669 -23.259 -19.390  0.00  0.00    -0.154 OA
ATOM     20  O   UNL     1      32.081 -21.359 -19.850  0.00  0.00    -0.154 OA
ATOM     21  C   UNL     1      34.654 -20.884 -19.791  0.00  0.00    +0.200 C 
ENDBRANCH  16  18
ENDBRANCH   3  16
BRANCH   6  22
ATOM     22  O   UNL     1      32.257 -23.624 -16.024  0.00  0.00    -0.452 OA
BRANCH  22  23
ATOM     23  C   UNL     1      31.530 -23.607 -14.847  0.00  0.00    +0.145 C 
ATOM     24  C   UNL     1      31.587 -22.489 -14.034  0.00  0.00    +0.037 C 
ATOM     25  C   UNL     1      30.766 -24.710 -14.511  0.00  0.00    +0.037 C 
ATOM     26  C   UNL     1      30.855 -22.474 -12.846  0.00  0.00    +0.003 C 
ATOM     27  C   UNL     1      30.033 -24.695 -13.325  0.00  0.00    +0.003 C 
ATOM     28  C   UNL     1      30.078 -23.576 -12.492  0.00  0.00    +0.000 C 
ENDBRANCH  22  23
ENDBRANCH   6  22
TORSDOF 5
ENDMDL
MODEL 4
REMARK VINA RESULT:      -9.5      2.177      4.874
REMARK  Name = 124246
REMARK  5 active torsions:
REMARK  status: ('A' for Active; 'I' for Inactive)
REMARK    1  A    between atoms: C_3  and  N_16
REMARK    2  A    between atoms: C_6  and  O_22
REMARK    3  A    between atoms: C_10  and  N_13
REMARK    4  A    between atoms: N_16  and  S_18
REMARK    5  A    between atoms: O_22  and  C_23
REMARK                            x       y       z     vdW  Elec       q    Type
REMARK                         _______ _______ _______ _____ _____    ______ ____
ROOT
ATOM      1  O   UNL     1      36.021 -24.420 -15.341  0.00  0.00    -0.449 OA
ATOM      2  O   UNL     1      34.347 -23.982 -11.639  0.00  0.00    -0.285 OA
ATOM      3  C   UNL     1      32.925 -22.749 -16.298  0.00  0.00    +0.102 C 
ATOM      4  C   UNL     1      34.172 -23.636 -13.969  0.00  0.00    +0.078 C 
ATOM      5  C   UNL     1      34.795 -23.815 -15.205  0.00  0.00    +0.150 C 
ATOM      6  C   UNL     1      32.303 -22.570 -15.062  0.00  0.00    +0.160 C 
ATOM      7  C   UNL     1      34.171 -23.371 -16.372  0.00  0.00    +0.057 C 
ATOM      8  C   UNL     1      32.924 -23.013 -13.893  0.00  0.00    +0.045 C 
ATOM      9  C   UNL     1      34.849 -24.114 -12.747  0.00  0.00    +0.215 C 
ATOM     10  C   UNL     1      36.167 -24.758 -12.951  0.00  0.00    +0.128 C 
ATOM     11  C   UNL     1      36.641 -24.860 -14.196  0.00  0.00    +0.197 C 
ENDROOT
BRANCH  10  13
ATOM     12  O   UNL     1      38.257 -23.392 -11.479  0.00  0.00    -0.265 OA
ATOM     13  N   UNL     1      36.842 -25.221 -11.863  0.00  0.00    -0.272 N 
ATOM     14  C   UNL     1      37.829 -24.508 -11.213  0.00  0.00    +0.304 C 
ATOM     15  H   UNL     1      36.612 -26.114 -11.520  0.00  0.00    +0.155 HD
ENDBRANCH  10  13
BRANCH   3  16
ATOM     16  N   UNL     1      32.296 -22.299 -17.500  0.00  0.00    -0.216 N 
ATOM     17  H   UNL     1      31.325 -22.137 -17.534  0.00  0.00    +0.173 HD
BRANCH  16  18
ATOM     18  S   UNL     1      33.283 -22.045 -18.888  0.00  0.00    +0.056 S 
ATOM     19  O   UNL     1      34.496 -21.369 -18.469  0.00  0.00    -0.154 OA
ATOM     20  O   UNL     1      33.349 -23.241 -19.703  0.00  0.00    -0.154 OA
ATOM     21  C   UNL     1      32.298 -20.845 -19.758  0.00  0.00    +0.200 C 
ENDBRANCH  16  18
ENDBRANCH   3  16
BRANCH   6  22
ATOM     22  O   UNL     1      31.085 -21.964 -14.975  0.00  0.00    -0.452 OA
BRANCH  22  23
ATOM     23  C   UNL     1      29.965 -22.735 -15.234  0.00  0.00    +0.145 C 
ATOM     24  C   UNL     1      29.078 -22.327 -16.216  0.00  0.00    +0.037 C 
ATOM     25  C   UNL     1      29.758 -23.892 -14.505  0.00  0.00    +0.037 C 
ATOM     26  C   UNL     1      27.948 -23.103 -16.476  0.00  0.00    +0.003 C 
ATOM     27  C   UNL     1      28.629 -24.668 -14.766  0.00  0.00    +0.003 C 
ATOM     28  C   UNL     1      27.724 -24.273 -15.751  0.00  0.00    +0.000 C 
ENDBRANCH  22  23
ENDBRANCH   6  22
TORSDOF 5
ENDMDL
MODEL 5
REMARK VINA RESULT:      -9.2     14.310     17.154
REMARK  Name = 124246
REMARK  5 active torsions:
REMARK  status: ('A' for Active; 'I' for Inactive)
REMARK    1  A    between atoms: C_3  and  N_16
REMARK    2  A    between atoms: C_6  and  O_22
REMARK    3  A    between atoms: C_10  and  N_13
REMARK    4  A    between atoms: N_16  and  S_18
REMARK    5  A    between atoms: O_22  and  C_23
REMARK                            x       y       z     vdW  Elec       q    Type
REMARK                         _______ _______ _______ _____ _____    ______ ____
ROOT
ATOM      1  O   UNL     1      30.646  -9.399 -21.031  0.00  0.00    -0.449 OA
ATOM      2  O   UNL     1      33.483 -10.713 -23.661  0.00  0.00    -0.285 OA
ATOM      3  C   UNL     1      32.048  -6.184 -22.027  0.00  0.00    +0.102 C 
ATOM      4  C   UNL     1      32.441  -8.886 -22.590  0.00  0.00    +0.078 C 
ATOM      5  C   UNL     1      31.455  -8.498 -21.681  0.00  0.00    +0.150 C 
ATOM      6  C   UNL     1      33.034  -6.572 -22.935  0.00  0.00    +0.160 C 
ATOM      7  C   UNL     1      31.257  -7.146 -21.398  0.00  0.00    +0.057 C 
ATOM      8  C   UNL     1      33.233  -7.924 -23.220  0.00  0.00    +0.045 C 
ATOM      9  C   UNL     1      32.634 -10.321 -22.874  0.00  0.00    +0.215 C 
ATOM     10  C   UNL     1      31.735 -11.248 -22.146  0.00  0.00    +0.128 C 
ATOM     11  C   UNL     1      30.835 -10.733 -21.304  0.00  0.00    +0.197 C 
ENDROOT
BRANCH  10  13
ATOM     12  O   UNL     1      33.663 -13.040 -20.934  0.00  0.00    -0.265 OA
ATOM     13  N   UNL     1      31.863 -12.586 -22.364  0.00  0.00    -0.272 N 
ATOM     14  C   UNL     1      32.811 -13.376 -21.746  0.00  0.00    +0.304 C 
ATOM     15  H   UNL     1      31.244 -13.014 -22.999  0.00  0.00    +0.155 HD
ENDBRANCH  10  13
BRANCH   3  16
ATOM     16  N   UNL     1      31.836  -4.802 -21.729  0.00  0.00    -0.216 N 
ATOM     17  H   UNL     1      32.377  -4.343 -21.046  0.00  0.00    +0.173 HD
BRANCH  16  18
ATOM     18  S   UNL     1      30.610  -3.962 -22.597  0.00  0.00    +0.056 S 
ATOM     19  O   UNL     1      30.027  -4.874 -23.563  0.00  0.00    -0.154 OA
ATOM     20  O   UNL     1      29.766  -3.202 -21.698  0.00  0.00    -0.154 OA
ATOM     21  C   UNL     1      31.609  -2.809 -23.514  0.00  0.00    +0.200 C 
ENDBRANCH  16  18
ENDBRANCH   3  16
BRANCH   6  22
ATOM     22  O   UNL     1      33.814  -5.642 -23.557  0.00  0.00    -0.452 OA
BRANCH  22  23
ATOM     23  C   UNL     1      33.730  -5.552 -24.935  0.00  0.00    +0.145 C 
ATOM     24  C   UNL     1      34.849  -5.170 -25.655  0.00  0.00    +0.037 C 
ATOM     25  C   UNL     1      32.530  -5.843 -25.558  0.00  0.00    +0.037 C 
ATOM     26  C   UNL     1      34.763  -5.078 -27.045  0.00  0.00    +0.003 C 
ATOM     27  C   UNL     1      32.445  -5.752 -26.947  0.00  0.00    +0.003 C 
ATOM     28  C   UNL     1      33.562  -5.369 -27.691  0.00  0.00    +0.000 C 
ENDBRANCH  22  23
ENDBRANCH   6  22
TORSDOF 5
ENDMDL
