MODEL 1
REMARK VINA RESULT:     -13.3      0.000      0.000
REMARK  Name = 12136798
REMARK  7 active torsions:
REMARK  status: ('A' for Active; 'I' for Inactive)
REMARK    1  A    between atoms: C_1  and  C_21
REMARK    2  A    between atoms: C_2  and  C_9
REMARK    3  A    between atoms: N_8  and  C_12
REMARK    4  A    between atoms: C_13  and  N_18
REMARK    5  A    between atoms: C_21  and  N_23
REMARK    6  A    between atoms: C_24  and  C_26
REMARK    7  A    between atoms: C_27  and  C_29
REMARK                            x       y       z     vdW  Elec       q    Type
REMARK                         _______ _______ _______ _____ _____    ______ ____
ROOT
ATOM      1  C   UNL     1      34.971 -19.500 -20.603  0.00  0.00    -0.003 C 
ATOM      2  C   UNL     1      33.836 -21.449 -18.979  0.00  0.00    +0.054 C 
ATOM      3  C   UNL     1      33.591 -19.654 -20.576  0.00  0.00    -0.002 C 
ATOM      4  C   UNL     1      35.791 -20.311 -19.827  0.00  0.00    -0.002 C 
ATOM      5  C   UNL     1      33.020 -20.632 -19.761  0.00  0.00    +0.004 C 
ATOM      6  C   UNL     1      35.221 -21.289 -19.012  0.00  0.00    +0.004 C 
ENDROOT
BRANCH   2   9
ATOM      7  O   UNL     1      33.193 -23.641 -18.539  0.00  0.00    -0.270 OA
ATOM      8  N   UNL     1      32.789 -22.035 -16.877  0.00  0.00    -0.279 N 
ATOM      9  C   UNL     1      33.242 -22.470 -18.130  0.00  0.00    +0.250 C 
ATOM     10  H   UNL     1      32.896 -21.073 -16.693  0.00  0.00    +0.155 HD
BRANCH   8  12
ATOM     11  F   UNL     1      30.542 -25.021 -12.805  0.00  0.00    -0.204 F 
ATOM     12  C   UNL     1      32.195 -22.797 -15.841  0.00  0.00    +0.064 C 
ATOM     13  C   UNL     1      30.818 -22.931 -15.771  0.00  0.00    +0.057 C 
ATOM     14  C   UNL     1      33.026 -23.396 -14.907  0.00  0.00    +0.018 C 
ATOM     15  C   UNL     1      30.257 -23.686 -14.741  0.00  0.00    +0.045 C 
ATOM     16  C   UNL     1      32.465 -24.151 -13.878  0.00  0.00    +0.031 C 
ATOM     17  C   UNL     1      31.080 -24.295 -13.794  0.00  0.00    +0.141 C 
BRANCH  13  18
ATOM     18  N   UNL     1      29.965 -22.322 -16.718  0.00  0.00    -0.356 N 
ATOM     19  H   UNL     1      29.576 -22.859 -17.445  0.00  0.00    +0.142 HD
ATOM     20  H   UNL     1      29.758 -21.362 -16.650  0.00  0.00    +0.142 HD
ENDBRANCH  13  18
ENDBRANCH   8  12
ENDBRANCH   2   9
BRANCH   1  21
ATOM     21  C   UNL     1      35.586 -18.447 -21.480  0.00  0.00    +0.117 C 
BRANCH  21  23
ATOM     22  O   UNL     1      34.746 -16.590 -23.539  0.00  0.00    -0.270 OA
ATOM     23  N   UNL     1      34.962 -17.156 -21.295  0.00  0.00    -0.297 N 
ATOM     24  C   UNL     1      34.594 -16.336 -22.348  0.00  0.00    +0.246 C 
ATOM     25  H   UNL     1      34.790 -16.846 -20.376  0.00  0.00    +0.150 HD
BRANCH  24  26
ATOM     26  C   UNL     1      33.975 -15.067 -21.872  0.00  0.00    +0.058 C 
ATOM     27  C   UNL     1      33.449 -14.206 -22.756  0.00  0.00    +0.006 C 
BRANCH  27  29
ATOM     28  N   UNL     1      32.322 -10.652 -22.972  0.00  0.00    -0.242 NA
ATOM     29  C   UNL     1      32.804 -12.930 -22.397  0.00  0.00    +0.019 C 
ATOM     30  C   UNL     1      32.106 -12.814 -21.214  0.00  0.00    +0.003 C 
ATOM     31  C   UNL     1      32.891 -11.849 -23.240  0.00  0.00    +0.099 C 
ATOM     32  C   UNL     1      31.507 -11.598 -20.902  0.00  0.00    +0.021 C 
ATOM     33  C   UNL     1      31.643 -10.558 -21.806  0.00  0.00    +0.099 C 
ENDBRANCH  27  29
ENDBRANCH  24  26
ENDBRANCH  21  23
ENDBRANCH   1  21
TORSDOF 7
ENDMDL
MODEL 2
REMARK VINA RESULT:     -12.8      3.118      3.788
REMARK  Name = 12136798
REMARK  7 active torsions:
REMARK  status: ('A' for Active; 'I' for Inactive)
REMARK    1  A    between atoms: C_1  and  C_21
REMARK    2  A    between atoms: C_2  and  C_9
REMARK    3  A    between atoms: N_8  and  C_12
REMARK    4  A    between atoms: C_13  and  N_18
REMARK    5  A    between atoms: C_21  and  N_23
REMARK    6  A    between atoms: C_24  and  C_26
REMARK    7  A    between atoms: C_27  and  C_29
REMARK                            x       y       z     vdW  Elec       q    Type
REMARK                         _______ _______ _______ _____ _____    ______ ____
ROOT
ATOM      1  C   UNL     1      34.814 -20.792 -19.653  0.00  0.00    -0.003 C 
ATOM      2  C   UNL     1      34.993 -21.976 -17.144  0.00  0.00    +0.054 C 
ATOM      3  C   UNL     1      33.702 -21.423 -19.109  0.00  0.00    -0.002 C 
ATOM      4  C   UNL     1      36.015 -20.748 -18.957  0.00  0.00    -0.002 C 
ATOM      5  C   UNL     1      33.791 -22.017 -17.850  0.00  0.00    +0.004 C 
ATOM      6  C   UNL     1      36.106 -21.341 -17.697  0.00  0.00    +0.004 C 
ENDROOT
BRANCH   2   9
ATOM      7  O   UNL     1      34.146 -22.466 -15.034  0.00  0.00    -0.270 OA
ATOM      8  N   UNL     1      36.257 -23.330 -15.586  0.00  0.00    -0.279 N 
ATOM      9  C   UNL     1      35.088 -22.596 -15.832  0.00  0.00    +0.250 C 
ATOM     10  H   UNL     1      36.916 -23.343 -16.317  0.00  0.00    +0.155 HD
BRANCH   8  12
ATOM     11  F   UNL     1      37.672 -26.092 -11.013  0.00  0.00    -0.204 F 
ATOM     12  C   UNL     1      36.615 -24.055 -14.422  0.00  0.00    +0.064 C 
ATOM     13  C   UNL     1      36.468 -25.431 -14.382  0.00  0.00    +0.057 C 
ATOM     14  C   UNL     1      37.109 -23.350 -13.336  0.00  0.00    +0.018 C 
ATOM     15  C   UNL     1      36.827 -26.123 -13.225  0.00  0.00    +0.045 C 
ATOM     16  C   UNL     1      37.468 -24.042 -12.180  0.00  0.00    +0.031 C 
ATOM     17  C   UNL     1      37.327 -25.428 -12.124  0.00  0.00    +0.141 C 
BRANCH  13  18
ATOM     18  N   UNL     1      35.965 -26.155 -15.485  0.00  0.00    -0.356 N 
ATOM     19  H   UNL     1      36.579 -26.668 -16.059  0.00  0.00    +0.142 HD
ATOM     20  H   UNL     1      35.000 -26.148 -15.681  0.00  0.00    +0.142 HD
ENDBRANCH  13  18
ENDBRANCH   8  12
ENDBRANCH   2   9
BRANCH   1  21
ATOM     21  C   UNL     1      34.718 -20.153 -21.008  0.00  0.00    +0.117 C 
BRANCH  21  23
ATOM     22  O   UNL     1      36.400 -17.806 -21.244  0.00  0.00    -0.270 OA
ATOM     23  N   UNL     1      34.308 -18.768 -20.926  0.00  0.00    -0.297 N 
ATOM     24  C   UNL     1      35.192 -17.710 -21.053  0.00  0.00    +0.246 C 
ATOM     25  H   UNL     1      33.356 -18.569 -20.773  0.00  0.00    +0.150 HD
BRANCH  24  26
ATOM     26  C   UNL     1      34.503 -16.395 -20.927  0.00  0.00    +0.058 C 
ATOM     27  C   UNL     1      34.340 -15.619 -22.008  0.00  0.00    +0.006 C 
BRANCH  27  29
ATOM     28  N   UNL     1      33.077 -12.307 -23.187  0.00  0.00    -0.242 NA
ATOM     29  C   UNL     1      33.666 -14.308 -22.002  0.00  0.00    +0.019 C 
ATOM     30  C   UNL     1      33.019 -13.865 -20.868  0.00  0.00    +0.003 C 
ATOM     31  C   UNL     1      33.676 -13.519 -23.126  0.00  0.00    +0.099 C 
ATOM     32  C   UNL     1      32.392 -12.624 -20.891  0.00  0.00    +0.021 C 
ATOM     33  C   UNL     1      32.449 -11.891 -22.065  0.00  0.00    +0.099 C 
ENDBRANCH  27  29
ENDBRANCH  24  26
ENDBRANCH  21  23
ENDBRANCH   1  21
TORSDOF 7
ENDMDL
MODEL 3
REMARK VINA RESULT:     -12.8      5.062     12.475
REMARK  Name = 12136798
REMARK  7 active torsions:
REMARK  status: ('A' for Active; 'I' for Inactive)
REMARK    1  A    between atoms: C_1  and  C_21
REMARK    2  A    between atoms: C_2  and  C_9
REMARK    3  A    between atoms: N_8  and  C_12
REMARK    4  A    between atoms: C_13  and  N_18
REMARK    5  A    between atoms: C_21  and  N_23
REMARK    6  A    between atoms: C_24  and  C_26
REMARK    7  A    between atoms: C_27  and  C_29
REMARK                            x       y       z     vdW  Elec       q    Type
REMARK                         _______ _______ _______ _____ _____    ______ ____
ROOT
ATOM      1  C   UNL     1      33.615 -13.648 -22.689  0.00  0.00    -0.003 C 
ATOM      2  C   UNL     1      32.125 -11.394 -22.036  0.00  0.00    +0.054 C 
ATOM      3  C   UNL     1      33.472 -12.625 -23.618  0.00  0.00    -0.002 C 
ATOM      4  C   UNL     1      33.019 -13.557 -21.436  0.00  0.00    -0.002 C 
ATOM      5  C   UNL     1      32.725 -11.493 -23.291  0.00  0.00    +0.004 C 
ATOM      6  C   UNL     1      32.272 -12.425 -21.108  0.00  0.00    +0.004 C 
ENDROOT
BRANCH   2   9
ATOM      7  O   UNL     1      30.236 -10.362 -21.153  0.00  0.00    -0.270 OA
ATOM      8  N   UNL     1      31.938  -8.981 -21.992  0.00  0.00    -0.279 N 
ATOM      9  C   UNL     1      31.343 -10.215 -21.694  0.00  0.00    +0.250 C 
ATOM     10  H   UNL     1      32.822  -9.025 -22.423  0.00  0.00    +0.155 HD
BRANCH   8  12
ATOM     11  F   UNL     1      29.935  -3.901 -21.139  0.00  0.00    -0.204 F 
ATOM     12  C   UNL     1      31.432  -7.679 -21.755  0.00  0.00    +0.064 C 
ATOM     13  C   UNL     1      31.660  -7.049 -20.543  0.00  0.00    +0.057 C 
ATOM     14  C   UNL     1      30.709  -7.062 -22.764  0.00  0.00    +0.018 C 
ATOM     15  C   UNL     1      31.152  -5.767 -20.334  0.00  0.00    +0.045 C 
ATOM     16  C   UNL     1      30.202  -5.780 -22.555  0.00  0.00    +0.031 C 
ATOM     17  C   UNL     1      30.422  -5.132 -21.339  0.00  0.00    +0.141 C 
BRANCH  13  18
ATOM     18  N   UNL     1      32.396  -7.672 -19.511  0.00  0.00    -0.356 N 
ATOM     19  H   UNL     1      32.726  -7.138 -18.752  0.00  0.00    +0.142 HD
ATOM     20  H   UNL     1      32.578  -8.639 -19.549  0.00  0.00    +0.142 HD
ENDBRANCH  13  18
ENDBRANCH   8  12
ENDBRANCH   2   9
BRANCH   1  21
ATOM     21  C   UNL     1      34.419 -14.865 -23.040  0.00  0.00    +0.117 C 
BRANCH  21  23
ATOM     22  O   UNL     1      35.081 -17.671 -23.331  0.00  0.00    -0.270 OA
ATOM     23  N   UNL     1      34.296 -15.904 -22.042  0.00  0.00    -0.297 N 
ATOM     24  C   UNL     1      34.641 -17.224 -22.277  0.00  0.00    +0.246 C 
ATOM     25  H   UNL     1      33.951 -15.660 -21.152  0.00  0.00    +0.150 HD
BRANCH  24  26
ATOM     26  C   UNL     1      34.413 -18.078 -21.077  0.00  0.00    +0.058 C 
ATOM     27  C   UNL     1      34.061 -19.364 -21.228  0.00  0.00    +0.006 C 
BRANCH  27  29
ATOM     28  N   UNL     1      32.249 -21.474 -18.735  0.00  0.00    -0.242 NA
ATOM     29  C   UNL     1      33.822 -20.301 -20.116  0.00  0.00    +0.019 C 
ATOM     30  C   UNL     1      34.884 -20.863 -19.440  0.00  0.00    +0.003 C 
ATOM     31  C   UNL     1      32.538 -20.621 -19.746  0.00  0.00    +0.099 C 
ATOM     32  C   UNL     1      34.627 -21.744 -18.395  0.00  0.00    +0.021 C 
ATOM     33  C   UNL     1      33.305 -22.014 -18.085  0.00  0.00    +0.099 C 
ENDBRANCH  27  29
ENDBRANCH  24  26
ENDBRANCH  21  23
ENDBRANCH   1  21
TORSDOF 7
ENDMDL
MODEL 4
REMARK VINA RESULT:     -12.8      1.976      2.817
REMARK  Name = 12136798
REMARK  7 active torsions:
REMARK  status: ('A' for Active; 'I' for Inactive)
REMARK    1  A    between atoms: C_1  and  C_21
REMARK    2  A    between atoms: C_2  and  C_9
REMARK    3  A    between atoms: N_8  and  C_12
REMARK    4  A    between atoms: C_13  and  N_18
REMARK    5  A    between atoms: C_21  and  N_23
REMARK    6  A    between atoms: C_24  and  C_26
REMARK    7  A    between atoms: C_27  and  C_29
REMARK                            x       y       z     vdW  Elec       q    Type
REMARK                         _______ _______ _______ _____ _____    ______ ____
ROOT
ATOM      1  C   UNL     1      35.050 -19.052 -21.243  0.00  0.00    -0.003 C 
ATOM      2  C   UNL     1      34.678 -20.920 -19.219  0.00  0.00    +0.054 C 
ATOM      3  C   UNL     1      36.147 -19.525 -20.534  0.00  0.00    -0.002 C 
ATOM      4  C   UNL     1      33.769 -19.502 -20.950  0.00  0.00    -0.002 C 
ATOM      5  C   UNL     1      35.962 -20.464 -19.519  0.00  0.00    +0.004 C 
ATOM      6  C   UNL     1      33.582 -20.440 -19.935  0.00  0.00    +0.004 C 
ENDROOT
BRANCH   2   9
ATOM      7  O   UNL     1      33.694 -22.837 -18.343  0.00  0.00    -0.270 OA
ATOM      8  N   UNL     1      35.245 -21.700 -16.999  0.00  0.00    -0.279 N 
ATOM      9  C   UNL     1      34.483 -21.897 -18.159  0.00  0.00    +0.250 C 
ATOM     10  H   UNL     1      35.829 -20.907 -17.000  0.00  0.00    +0.155 HD
BRANCH   8  12
ATOM     11  F   UNL     1      35.322 -24.786 -12.414  0.00  0.00    -0.204 F 
ATOM     12  C   UNL     1      35.284 -22.491 -15.824  0.00  0.00    +0.064 C 
ATOM     13  C   UNL     1      36.496 -22.918 -15.308  0.00  0.00    +0.057 C 
ATOM     14  C   UNL     1      34.084 -22.824 -15.216  0.00  0.00    +0.018 C 
ATOM     15  C   UNL     1      36.510 -23.696 -14.150  0.00  0.00    +0.045 C 
ATOM     16  C   UNL     1      34.098 -23.602 -14.059  0.00  0.00    +0.031 C 
ATOM     17  C   UNL     1      35.310 -24.039 -13.526  0.00  0.00    +0.141 C 
BRANCH  13  18
ATOM     18  N   UNL     1      37.723 -22.583 -15.922  0.00  0.00    -0.356 N 
ATOM     19  H   UNL     1      37.976 -23.003 -16.776  0.00  0.00    +0.142 HD
ATOM     20  H   UNL     1      38.325 -21.929 -15.498  0.00  0.00    +0.142 HD
ENDBRANCH  13  18
ENDBRANCH   8  12
ENDBRANCH   2   9
BRANCH   1  21
ATOM     21  C   UNL     1      35.250 -18.043 -22.337  0.00  0.00    +0.117 C 
BRANCH  21  23
ATOM     22  O   UNL     1      34.524 -15.892 -24.137  0.00  0.00    -0.270 OA
ATOM     23  N   UNL     1      34.713 -16.748 -21.984  0.00  0.00    -0.297 N 
ATOM     24  C   UNL     1      34.395 -15.781 -22.922  0.00  0.00    +0.246 C 
ATOM     25  H   UNL     1      34.566 -16.545 -21.031  0.00  0.00    +0.150 HD
BRANCH  24  26
ATOM     26  C   UNL     1      33.861 -14.544 -22.283  0.00  0.00    +0.058 C 
ATOM     27  C   UNL     1      33.070 -13.717 -22.983  0.00  0.00    +0.006 C 
BRANCH  27  29
ATOM     28  N   UNL     1      32.020 -10.141 -22.746  0.00  0.00    -0.242 NA
ATOM     29  C   UNL     1      32.479 -12.476 -22.450  0.00  0.00    +0.019 C 
ATOM     30  C   UNL     1      31.857 -12.476 -21.219  0.00  0.00    +0.003 C 
ATOM     31  C   UNL     1      32.542 -11.312 -23.177  0.00  0.00    +0.099 C 
ATOM     32  C   UNL     1      31.309 -11.290 -20.742  0.00  0.00    +0.021 C 
ATOM     33  C   UNL     1      31.416 -10.161 -21.537  0.00  0.00    +0.099 C 
ENDBRANCH  27  29
ENDBRANCH  24  26
ENDBRANCH  21  23
ENDBRANCH   1  21
TORSDOF 7
ENDMDL
MODEL 5
REMARK VINA RESULT:     -12.5      4.794     12.070
REMARK  Name = 12136798
REMARK  7 active torsions:
REMARK  status: ('A' for Active; 'I' for Inactive)
REMARK    1  A    between atoms: C_1  and  C_21
REMARK    2  A    between atoms: C_2  and  C_9
REMARK    3  A    between atoms: N_8  and  C_12
REMARK    4  A    between atoms: C_13  and  N_18
REMARK    5  A    between atoms: C_21  and  N_23
REMARK    6  A    between atoms: C_24  and  C_26
REMARK    7  A    between atoms: C_27  and  C_29
REMARK                            x       y       z     vdW  Elec       q    Type
REMARK                         _______ _______ _______ _____ _____    ______ ____
ROOT
ATOM      1  C   UNL     1      33.980 -15.372 -23.235  0.00  0.00    -0.003 C 
ATOM      2  C   UNL     1      32.925 -12.869 -22.642  0.00  0.00    +0.054 C 
ATOM      3  C   UNL     1      33.322 -14.651 -24.224  0.00  0.00    -0.002 C 
ATOM      4  C   UNL     1      34.115 -14.855 -21.952  0.00  0.00    -0.002 C 
ATOM      5  C   UNL     1      32.793 -13.394 -23.928  0.00  0.00    +0.004 C 
ATOM      6  C   UNL     1      33.586 -13.599 -21.655  0.00  0.00    +0.004 C 
ENDROOT
BRANCH   2   9
ATOM      7  O   UNL     1      31.571 -11.452 -21.389  0.00  0.00    -0.270 OA
ATOM      8  N   UNL     1      32.824 -10.501 -23.130  0.00  0.00    -0.279 N 
ATOM      9  C   UNL     1      32.372 -11.560 -22.331  0.00  0.00    +0.250 C 
ATOM     10  H   UNL     1      33.462 -10.742 -23.840  0.00  0.00    +0.155 HD
BRANCH   8  12
ATOM     11  F   UNL     1      31.428  -5.163 -22.791  0.00  0.00    -0.204 F 
ATOM     12  C   UNL     1      32.485  -9.127 -23.048  0.00  0.00    +0.064 C 
ATOM     13  C   UNL     1      33.437  -8.154 -23.302  0.00  0.00    +0.057 C 
ATOM     14  C   UNL     1      31.184  -8.792 -22.708  0.00  0.00    +0.018 C 
ATOM     15  C   UNL     1      33.078  -6.809 -23.215  0.00  0.00    +0.045 C 
ATOM     16  C   UNL     1      30.826  -7.447 -22.622  0.00  0.00    +0.031 C 
ATOM     17  C   UNL     1      31.773  -6.455 -22.874  0.00  0.00    +0.141 C 
BRANCH  13  18
ATOM     18  N   UNL     1      34.764  -8.489 -23.649  0.00  0.00    -0.356 N 
ATOM     19  H   UNL     1      35.250  -7.948 -24.312  0.00  0.00    +0.142 HD
ATOM     20  H   UNL     1      35.204  -9.262 -23.227  0.00  0.00    +0.142 HD
ENDBRANCH  13  18
ENDBRANCH   8  12
ENDBRANCH   2   9
BRANCH   1  21
ATOM     21  C   UNL     1      34.550 -16.723 -23.555  0.00  0.00    +0.117 C 
BRANCH  21  23
ATOM     22  O   UNL     1      36.759 -18.033 -22.214  0.00  0.00    -0.270 OA
ATOM     23  N   UNL     1      34.481 -17.621 -22.423  0.00  0.00    -0.297 N 
ATOM     24  C   UNL     1      35.600 -18.200 -21.849  0.00  0.00    +0.246 C 
ATOM     25  H   UNL     1      33.597 -17.831 -22.043  0.00  0.00    +0.150 HD
BRANCH  24  26
ATOM     26  C   UNL     1      35.241 -19.081 -20.702  0.00  0.00    +0.058 C 
ATOM     27  C   UNL     1      34.076 -19.744 -20.706  0.00  0.00    +0.006 C 
BRANCH  27  29
ATOM     28  N   UNL     1      31.808 -21.556 -18.356  0.00  0.00    -0.242 NA
ATOM     29  C   UNL     1      33.624 -20.648 -19.633  0.00  0.00    +0.019 C 
ATOM     30  C   UNL     1      34.539 -21.402 -18.929  0.00  0.00    +0.003 C 
ATOM     31  C   UNL     1      32.288 -20.747 -19.328  0.00  0.00    +0.099 C 
ATOM     32  C   UNL     1      34.084 -22.246 -17.922  0.00  0.00    +0.021 C 
ATOM     33  C   UNL     1      32.721 -22.286 -17.677  0.00  0.00    +0.099 C 
ENDBRANCH  27  29
ENDBRANCH  24  26
ENDBRANCH  21  23
ENDBRANCH   1  21
TORSDOF 7
ENDMDL
MODEL 6
REMARK VINA RESULT:     -12.3      1.333      1.988
REMARK  Name = 12136798
REMARK  7 active torsions:
REMARK  status: ('A' for Active; 'I' for Inactive)
REMARK    1  A    between atoms: C_1  and  C_21
REMARK    2  A    between atoms: C_2  and  C_9
REMARK    3  A    between atoms: N_8  and  C_12
REMARK    4  A    between atoms: C_13  and  N_18
REMARK    5  A    between atoms: C_21  and  N_23
REMARK    6  A    between atoms: C_24  and  C_26
REMARK    7  A    between atoms: C_27  and  C_29
REMARK                            x       y       z     vdW  Elec       q    Type
REMARK                         _______ _______ _______ _____ _____    ______ ____
ROOT
ATOM      1  C   UNL     1      35.074 -19.427 -21.212  0.00  0.00    -0.003 C 
ATOM      2  C   UNL     1      33.685 -20.910 -19.315  0.00  0.00    +0.054 C 
ATOM      3  C   UNL     1      33.686 -19.465 -21.251  0.00  0.00    -0.002 C 
ATOM      4  C   UNL     1      35.776 -20.124 -20.235  0.00  0.00    -0.002 C 
ATOM      5  C   UNL     1      32.988 -20.208 -20.299  0.00  0.00    +0.004 C 
ATOM      6  C   UNL     1      35.078 -20.868 -19.283  0.00  0.00    +0.004 C 
ENDROOT
BRANCH   2   9
ATOM      7  O   UNL     1      31.790 -22.034 -18.567  0.00  0.00    -0.270 OA
ATOM      8  N   UNL     1      33.667 -22.007 -17.158  0.00  0.00    -0.279 N 
ATOM      9  C   UNL     1      32.957 -21.687 -18.324  0.00  0.00    +0.250 C 
ATOM     10  H   UNL     1      34.587 -21.661 -17.109  0.00  0.00    +0.155 HD
BRANCH   8  12
ATOM     11  F   UNL     1      31.903 -24.945 -12.821  0.00  0.00    -0.204 F 
ATOM     12  C   UNL     1      33.233 -22.764 -16.041  0.00  0.00    +0.064 C 
ATOM     13  C   UNL     1      34.156 -23.367 -15.204  0.00  0.00    +0.057 C 
ATOM     14  C   UNL     1      31.871 -22.882 -15.818  0.00  0.00    +0.018 C 
ATOM     15  C   UNL     1      33.705 -24.107 -14.110  0.00  0.00    +0.045 C 
ATOM     16  C   UNL     1      31.420 -23.621 -14.725  0.00  0.00    +0.031 C 
ATOM     17  C   UNL     1      32.336 -24.235 -13.871  0.00  0.00    +0.141 C 
BRANCH  13  18
ATOM     18  N   UNL     1      35.546 -23.252 -15.426  0.00  0.00    -0.356 N 
ATOM     19  H   UNL     1      35.885 -23.055 -16.329  0.00  0.00    +0.142 HD
ATOM     20  H   UNL     1      36.176 -23.367 -14.678  0.00  0.00    +0.142 HD
ENDBRANCH  13  18
ENDBRANCH   8  12
ENDBRANCH   2   9
BRANCH   1  21
ATOM     21  C   UNL     1      35.826 -18.626 -22.235  0.00  0.00    +0.117 C 
BRANCH  21  23
ATOM     22  O   UNL     1      34.993 -16.604 -20.336  0.00  0.00    -0.270 OA
ATOM     23  N   UNL     1      35.175 -17.368 -22.523  0.00  0.00    -0.297 N 
ATOM     24  C   UNL     1      34.814 -16.461 -21.541  0.00  0.00    +0.246 C 
ATOM     25  H   UNL     1      34.980 -17.145 -23.463  0.00  0.00    +0.150 HD
BRANCH  24  26
ATOM     26  C   UNL     1      34.161 -15.252 -22.117  0.00  0.00    +0.058 C 
ATOM     27  C   UNL     1      33.740 -14.269 -21.307  0.00  0.00    +0.006 C 
BRANCH  27  29
ATOM     28  N   UNL     1      31.427 -11.338 -21.410  0.00  0.00    -0.242 NA
ATOM     29  C   UNL     1      33.093 -13.027 -21.766  0.00  0.00    +0.019 C 
ATOM     30  C   UNL     1      33.518 -12.410 -22.924  0.00  0.00    +0.003 C 
ATOM     31  C   UNL     1      32.063 -12.475 -21.044  0.00  0.00    +0.099 C 
ATOM     32  C   UNL     1      32.888 -11.239 -23.333  0.00  0.00    +0.021 C 
ATOM     33  C   UNL     1      31.858 -10.749 -22.548  0.00  0.00    +0.099 C 
ENDBRANCH  27  29
ENDBRANCH  24  26
ENDBRANCH  21  23
ENDBRANCH   1  21
TORSDOF 7
ENDMDL
MODEL 7
REMARK VINA RESULT:     -12.1      4.580     11.241
REMARK  Name = 12136798
REMARK  7 active torsions:
REMARK  status: ('A' for Active; 'I' for Inactive)
REMARK    1  A    between atoms: C_1  and  C_21
REMARK    2  A    between atoms: C_2  and  C_9
REMARK    3  A    between atoms: N_8  and  C_12
REMARK    4  A    between atoms: C_13  and  N_18
REMARK    5  A    between atoms: C_21  and  N_23
REMARK    6  A    between atoms: C_24  and  C_26
REMARK    7  A    between atoms: C_27  and  C_29
REMARK                            x       y       z     vdW  Elec       q    Type
REMARK                         _______ _______ _______ _____ _____    ______ ____
ROOT
ATOM      1  C   UNL     1      34.377 -17.149 -23.459  0.00  0.00    -0.003 C 
ATOM      2  C   UNL     1      33.412 -14.550 -23.660  0.00  0.00    +0.054 C 
ATOM      3  C   UNL     1      34.564 -16.263 -22.406  0.00  0.00    -0.002 C 
ATOM      4  C   UNL     1      33.714 -16.749 -24.613  0.00  0.00    -0.002 C 
ATOM      5  C   UNL     1      34.080 -14.958 -22.505  0.00  0.00    +0.004 C 
ATOM      6  C   UNL     1      33.229 -15.445 -24.714  0.00  0.00    +0.004 C 
ENDROOT
BRANCH   2   9
ATOM      7  O   UNL     1      32.703 -12.708 -24.891  0.00  0.00    -0.270 OA
ATOM      8  N   UNL     1      32.669 -12.531 -22.552  0.00  0.00    -0.279 N 
ATOM      9  C   UNL     1      32.909 -13.189 -23.765  0.00  0.00    +0.250 C 
ATOM     10  H   UNL     1      32.881 -13.043 -21.738  0.00  0.00    +0.155 HD
BRANCH   8  12
ATOM     11  F   UNL     1      30.634  -7.464 -21.691  0.00  0.00    -0.204 F 
ATOM     12  C   UNL     1      32.162 -11.224 -22.342  0.00  0.00    +0.064 C 
ATOM     13  C   UNL     1      32.801 -10.128 -22.896  0.00  0.00    +0.057 C 
ATOM     14  C   UNL     1      31.019 -11.080 -21.571  0.00  0.00    +0.018 C 
ATOM     15  C   UNL     1      32.282  -8.851 -22.676  0.00  0.00    +0.045 C 
ATOM     16  C   UNL     1      30.501  -9.804 -21.351  0.00  0.00    +0.031 C 
ATOM     17  C   UNL     1      31.132  -8.689 -21.902  0.00  0.00    +0.141 C 
BRANCH  13  18
ATOM     18  N   UNL     1      33.966 -10.268 -23.682  0.00  0.00    -0.356 N 
ATOM     19  H   UNL     1      34.783 -10.648 -23.286  0.00  0.00    +0.142 HD
ATOM     20  H   UNL     1      33.961  -9.986 -24.625  0.00  0.00    +0.142 HD
ENDBRANCH  13  18
ENDBRANCH   8  12
ENDBRANCH   2   9
BRANCH   1  21
ATOM     21  C   UNL     1      34.898 -18.553 -23.352  0.00  0.00    +0.117 C 
BRANCH  21  23
ATOM     22  O   UNL     1      37.239 -18.343 -21.659  0.00  0.00    -0.270 OA
ATOM     23  N   UNL     1      35.026 -18.980 -21.976  0.00  0.00    -0.297 N 
ATOM     24  C   UNL     1      36.194 -18.835 -21.247  0.00  0.00    +0.246 C 
ATOM     25  H   UNL     1      34.246 -19.392 -21.539  0.00  0.00    +0.150 HD
BRANCH  24  26
ATOM     26  C   UNL     1      36.048 -19.360 -19.859  0.00  0.00    +0.058 C 
ATOM     27  C   UNL     1      35.657 -20.627 -19.660  0.00  0.00    +0.006 C 
BRANCH  27  29
ATOM     28  N   UNL     1      34.130 -22.548 -16.845  0.00  0.00    -0.242 NA
ATOM     29  C   UNL     1      35.490 -21.252 -18.336  0.00  0.00    +0.019 C 
ATOM     30  C   UNL     1      36.483 -21.141 -17.385  0.00  0.00    +0.003 C 
ATOM     31  C   UNL     1      34.346 -21.951 -18.039  0.00  0.00    +0.099 C 
ATOM     32  C   UNL     1      36.298 -21.741 -16.144  0.00  0.00    +0.021 C 
ATOM     33  C   UNL     1      35.115 -22.427 -15.927  0.00  0.00    +0.099 C 
ENDBRANCH  27  29
ENDBRANCH  24  26
ENDBRANCH  21  23
ENDBRANCH   1  21
TORSDOF 7
ENDMDL
MODEL 8
REMARK VINA RESULT:     -12.0      3.827     10.568
REMARK  Name = 12136798
REMARK  7 active torsions:
REMARK  status: ('A' for Active; 'I' for Inactive)
REMARK    1  A    between atoms: C_1  and  C_21
REMARK    2  A    between atoms: C_2  and  C_9
REMARK    3  A    between atoms: N_8  and  C_12
REMARK    4  A    between atoms: C_13  and  N_18
REMARK    5  A    between atoms: C_21  and  N_23
REMARK    6  A    between atoms: C_24  and  C_26
REMARK    7  A    between atoms: C_27  and  C_29
REMARK                            x       y       z     vdW  Elec       q    Type
REMARK                         _______ _______ _______ _____ _____    ______ ____
ROOT
ATOM      1  C   UNL     1      35.571 -20.435 -19.430  0.00  0.00    -0.003 C 
ATOM      2  C   UNL     1      34.684 -18.734 -21.441  0.00  0.00    +0.054 C 
ATOM      3  C   UNL     1      36.452 -19.522 -19.996  0.00  0.00    -0.002 C 
ATOM      4  C   UNL     1      34.251 -20.508 -19.860  0.00  0.00    -0.002 C 
ATOM      5  C   UNL     1      36.007 -18.667 -21.005  0.00  0.00    +0.004 C 
ATOM      6  C   UNL     1      33.806 -19.654 -20.869  0.00  0.00    +0.004 C 
ENDROOT
BRANCH   2   9
ATOM      7  O   UNL     1      33.794 -18.335 -23.553  0.00  0.00    -0.270 OA
ATOM      8  N   UNL     1      34.272 -16.475 -22.205  0.00  0.00    -0.279 N 
ATOM      9  C   UNL     1      34.220 -17.845 -22.495  0.00  0.00    +0.250 C 
ATOM     10  H   UNL     1      34.636 -16.238 -21.321  0.00  0.00    +0.155 HD
BRANCH   8  12
ATOM     11  F   UNL     1      32.704 -12.272 -25.434  0.00  0.00    -0.204 F 
ATOM     12  C   UNL     1      33.871 -15.385 -23.017  0.00  0.00    +0.064 C 
ATOM     13  C   UNL     1      33.690 -14.129 -22.464  0.00  0.00    +0.057 C 
ATOM     14  C   UNL     1      33.666 -15.615 -24.369  0.00  0.00    +0.018 C 
ATOM     15  C   UNL     1      33.294 -13.072 -23.284  0.00  0.00    +0.045 C 
ATOM     16  C   UNL     1      33.271 -14.558 -25.188  0.00  0.00    +0.031 C 
ATOM     17  C   UNL     1      33.084 -13.287 -24.646  0.00  0.00    +0.141 C 
BRANCH  13  18
ATOM     18  N   UNL     1      33.897 -13.888 -21.088  0.00  0.00    -0.356 N 
ATOM     19  H   UNL     1      33.169 -13.515 -20.539  0.00  0.00    +0.142 HD
ATOM     20  H   UNL     1      34.767 -14.094 -20.676  0.00  0.00    +0.142 HD
ENDBRANCH  13  18
ENDBRANCH   8  12
ENDBRANCH   2   9
BRANCH   1  21
ATOM     21  C   UNL     1      36.049 -21.355 -18.344  0.00  0.00    +0.117 C 
BRANCH  21  23
ATOM     22  O   UNL     1      36.240 -22.578 -15.724  0.00  0.00    -0.270 OA
ATOM     23  N   UNL     1      34.962 -21.824 -17.513  0.00  0.00    -0.297 N 
ATOM     24  C   UNL     1      35.156 -22.397 -16.268  0.00  0.00    +0.246 C 
ATOM     25  H   UNL     1      34.041 -21.730 -17.849  0.00  0.00    +0.150 HD
BRANCH  24  26
ATOM     26  C   UNL     1      33.866 -22.789 -15.632  0.00  0.00    +0.058 C 
ATOM     27  C   UNL     1      32.710 -22.581 -16.281  0.00  0.00    +0.006 C 
BRANCH  27  29
ATOM     28  N   UNL     1      28.995 -22.795 -15.960  0.00  0.00    -0.242 NA
ATOM     29  C   UNL     1      31.381 -22.939 -15.754  0.00  0.00    +0.019 C 
ATOM     30  C   UNL     1      31.269 -23.715 -14.619  0.00  0.00    +0.003 C 
ATOM     31  C   UNL     1      30.244 -22.503 -16.390  0.00  0.00    +0.099 C 
ATOM     32  C   UNL     1      30.001 -24.036 -14.146  0.00  0.00    +0.021 C 
ATOM     33  C   UNL     1      28.907 -23.556 -14.846  0.00  0.00    +0.099 C 
ENDBRANCH  27  29
ENDBRANCH  24  26
ENDBRANCH  21  23
ENDBRANCH   1  21
TORSDOF 7
ENDMDL
MODEL 9
REMARK VINA RESULT:     -11.8      4.670     11.428
REMARK  Name = 12136798
REMARK  7 active torsions:
REMARK  status: ('A' for Active; 'I' for Inactive)
REMARK    1  A    between atoms: C_1  and  C_21
REMARK    2  A    between atoms: C_2  and  C_9
REMARK    3  A    between atoms: N_8  and  C_12
REMARK    4  A    between atoms: C_13  and  N_18
REMARK    5  A    between atoms: C_21  and  N_23
REMARK    6  A    between atoms: C_24  and  C_26
REMARK    7  A    between atoms: C_27  and  C_29
REMARK                            x       y       z     vdW  Elec       q    Type
REMARK                         _______ _______ _______ _____ _____    ______ ____
ROOT
ATOM      1  C   UNL     1      34.810 -16.626 -22.176  0.00  0.00    -0.003 C 
ATOM      2  C   UNL     1      33.658 -14.138 -21.723  0.00  0.00    +0.054 C 
ATOM      3  C   UNL     1      34.483 -16.245 -20.880  0.00  0.00    -0.002 C 
ATOM      4  C   UNL     1      34.568 -15.776 -23.247  0.00  0.00    -0.002 C 
ATOM      5  C   UNL     1      33.905 -14.997 -20.652  0.00  0.00    +0.004 C 
ATOM      6  C   UNL     1      33.990 -14.527 -23.020  0.00  0.00    +0.004 C 
ENDROOT
BRANCH   2   9
ATOM      7  O   UNL     1      32.683 -12.542 -20.339  0.00  0.00    -0.270 OA
ATOM      8  N   UNL     1      32.974 -11.988 -22.600  0.00  0.00    -0.279 N 
ATOM      9  C   UNL     1      33.057 -12.834 -21.486  0.00  0.00    +0.250 C 
ATOM     10  H   UNL     1      33.313 -12.360 -23.446  0.00  0.00    +0.155 HD
BRANCH   8  12
ATOM     11  F   UNL     1      31.054  -6.814 -22.902  0.00  0.00    -0.204 F 
ATOM     12  C   UNL     1      32.465 -10.668 -22.668  0.00  0.00    +0.064 C 
ATOM     13  C   UNL     1      31.201 -10.378 -22.184  0.00  0.00    +0.057 C 
ATOM     14  C   UNL     1      33.264  -9.685 -23.232  0.00  0.00    +0.018 C 
ATOM     15  C   UNL     1      30.722  -9.070 -22.262  0.00  0.00    +0.045 C 
ATOM     16  C   UNL     1      32.785  -8.378 -23.311  0.00  0.00    +0.031 C 
ATOM     17  C   UNL     1      31.513  -8.070 -22.827  0.00  0.00    +0.141 C 
BRANCH  13  18
ATOM     18  N   UNL     1      30.381 -11.375 -21.608  0.00  0.00    -0.356 N 
ATOM     19  H   UNL     1      30.470 -12.311 -21.898  0.00  0.00    +0.142 HD
ATOM     20  H   UNL     1      29.723 -11.133 -20.918  0.00  0.00    +0.142 HD
ENDBRANCH  13  18
ENDBRANCH   8  12
ENDBRANCH   2   9
BRANCH   1  21
ATOM     21  C   UNL     1      35.432 -17.971 -22.421  0.00  0.00    +0.117 C 
BRANCH  21  23
ATOM     22  O   UNL     1      33.057 -19.503 -21.785  0.00  0.00    -0.270 OA
ATOM     23  N   UNL     1      35.241 -18.869 -21.304  0.00  0.00    -0.297 N 
ATOM     24  C   UNL     1      34.062 -19.561 -21.084  0.00  0.00    +0.246 C 
ATOM     25  H   UNL     1      35.984 -18.994 -20.671  0.00  0.00    +0.150 HD
BRANCH  24  26
ATOM     26  C   UNL     1      34.140 -20.412 -19.863  0.00  0.00    +0.058 C 
ATOM     27  C   UNL     1      35.297 -20.517 -19.193  0.00  0.00    +0.006 C 
BRANCH  27  29
ATOM     28  N   UNL     1      34.611 -22.946 -16.440  0.00  0.00    -0.242 NA
ATOM     29  C   UNL     1      35.485 -21.319 -17.971  0.00  0.00    +0.019 C 
ATOM     30  C   UNL     1      36.650 -21.210 -17.241  0.00  0.00    +0.003 C 
ATOM     31  C   UNL     1      34.502 -22.182 -17.551  0.00  0.00    +0.099 C 
ATOM     32  C   UNL     1      36.799 -21.980 -16.092  0.00  0.00    +0.021 C 
ATOM     33  C   UNL     1      35.760 -22.825 -15.738  0.00  0.00    +0.099 C 
ENDBRANCH  27  29
ENDBRANCH  24  26
ENDBRANCH  21  23
ENDBRANCH   1  21
TORSDOF 7
ENDMDL
