MODEL 1
REMARK VINA RESULT:     -10.3      0.000      0.000
REMARK  Name = 60651
REMARK  3 active torsions:
REMARK  status: ('A' for Active; 'I' for Inactive)
REMARK    1  A    between atoms: C_6  and  N_17
REMARK    2  A    between atoms: C_15  and  C_26
REMARK    3  A    between atoms: C_26  and  O_27
REMARK                            x       y       z     vdW  Elec       q    Type
REMARK                         _______ _______ _______ _____ _____    ______ ____
ROOT
ATOM      1  F   UNL     1      31.705 -22.500 -17.366  0.00  0.00    -0.203 F 
ATOM      2  O   UNL     1      36.300 -21.429 -16.848  0.00  0.00    -0.454 OA
ATOM      3  O   UNL     1      32.962 -24.383 -12.829  0.00  0.00    -0.286 OA
ATOM      4  N   UNL     1      36.366 -22.755 -14.354  0.00  0.00    -0.222 N 
ATOM      5  N   UNL     1      37.571 -22.278 -14.910  0.00  0.00    -0.159 NA
ATOM      6  C   UNL     1      34.007 -21.972 -17.123  0.00  0.00    +0.111 C 
ATOM      7  C   UNL     1      35.165 -22.018 -16.350  0.00  0.00    +0.171 C 
ATOM      8  C   UNL     1      35.172 -22.664 -15.110  0.00  0.00    +0.105 C 
ATOM      9  C   UNL     1      33.980 -23.224 -14.624  0.00  0.00    +0.059 C 
ATOM     10  C   UNL     1      32.831 -22.545 -16.638  0.00  0.00    +0.156 C 
ATOM     11  C   UNL     1      37.262 -21.156 -15.810  0.00  0.00    +0.302 C 
ATOM     12  C   UNL     1      32.810 -23.167 -15.387  0.00  0.00    +0.036 C 
ATOM     13  C   UNL     1      36.347 -23.344 -13.108  0.00  0.00    +0.092 C 
ATOM     14  C   UNL     1      33.979 -23.879 -13.289  0.00  0.00    +0.205 C 
ATOM     15  C   UNL     1      35.266 -23.891 -12.535  0.00  0.00    +0.130 C 
ATOM     16  C   UNL     1      38.247 -23.366 -15.622  0.00  0.00    +0.115 C 
ENDROOT
BRANCH   6  17
ATOM     17  N   UNL     1      34.003 -21.347 -18.375  0.00  0.00    -0.308 N 
ATOM     18  N   UNL     1      34.018 -20.305 -21.035  0.00  0.00    +0.388 N 
ATOM     19  C   UNL     1      32.747 -21.220 -19.121  0.00  0.00    +0.068 C 
ATOM     20  C   UNL     1      35.222 -21.428 -19.191  0.00  0.00    +0.068 C 
ATOM     21  C   UNL     1      32.853 -20.106 -20.165  0.00  0.00    -0.056 C 
ATOM     22  C   UNL     1      35.247 -20.306 -20.231  0.00  0.00    -0.056 C 
ATOM     23  C   UNL     1      34.078 -19.265 -22.061  0.00  0.00    -0.101 C 
ATOM     24  H   UNL     1      33.930 -21.208 -21.502  0.00  0.00    -0.080 HD
ENDBRANCH   6  17
BRANCH  15  26
ATOM     25  O   UNL     1      36.104 -25.452 -10.950  0.00  0.00    -0.245 OA
ATOM     26  C   UNL     1      35.412 -24.482 -11.204  0.00  0.00    +0.342 C 
BRANCH  26  27
ATOM     27  O   UNL     1      34.668 -23.789 -10.315  0.00  0.00    -0.477 OA
ATOM     28  H   UNL     1      33.736 -23.771 -10.399  0.00  0.00    +0.295 HD
ENDBRANCH  26  27
ENDBRANCH  15  26
TORSDOF 3
ENDMDL
MODEL 2
REMARK VINA RESULT:     -10.2      1.949      3.101
REMARK  Name = 60651
REMARK  3 active torsions:
REMARK  status: ('A' for Active; 'I' for Inactive)
REMARK    1  A    between atoms: C_6  and  N_17
REMARK    2  A    between atoms: C_15  and  C_26
REMARK    3  A    between atoms: C_26  and  O_27
REMARK                            x       y       z     vdW  Elec       q    Type
REMARK                         _______ _______ _______ _____ _____    ______ ____
ROOT
ATOM      1  F   UNL     1      37.389 -20.928 -17.230  0.00  0.00    -0.203 F 
ATOM      2  O   UNL     1      32.974 -22.560 -16.621  0.00  0.00    -0.454 OA
ATOM      3  O   UNL     1      37.488 -23.259 -12.729  0.00  0.00    -0.286 OA
ATOM      4  N   UNL     1      33.661 -23.578 -14.076  0.00  0.00    -0.222 N 
ATOM      5  N   UNL     1      32.313 -23.614 -14.489  0.00  0.00    -0.159 NA
ATOM      6  C   UNL     1      35.173 -21.728 -16.929  0.00  0.00    +0.111 C 
ATOM      7  C   UNL     1      34.252 -22.416 -16.143  0.00  0.00    +0.171 C 
ATOM      8  C   UNL     1      34.618 -22.928 -14.893  0.00  0.00    +0.105 C 
ATOM      9  C   UNL     1      35.945 -22.786 -14.459  0.00  0.00    +0.059 C 
ATOM     10  C   UNL     1      36.487 -21.580 -16.480  0.00  0.00    +0.156 C 
ATOM     11  C   UNL     1      32.271 -23.631 -15.959  0.00  0.00    +0.302 C 
ATOM     12  C   UNL     1      36.880 -22.112 -15.250  0.00  0.00    +0.036 C 
ATOM     13  C   UNL     1      34.048 -24.129 -12.873  0.00  0.00    +0.092 C 
ATOM     14  C   UNL     1      36.342 -23.363 -13.147  0.00  0.00    +0.205 C 
ATOM     15  C   UNL     1      35.288 -24.074 -12.367  0.00  0.00    +0.130 C 
ATOM     16  C   UNL     1      31.603 -22.453 -13.945  0.00  0.00    +0.115 C 
ENDROOT
BRANCH   6  17
ATOM     17  N   UNL     1      34.804 -21.195 -18.168  0.00  0.00    -0.308 N 
ATOM     18  N   UNL     1      34.128 -20.329 -20.805  0.00  0.00    +0.388 N 
ATOM     19  C   UNL     1      33.475 -21.481 -18.717  0.00  0.00    +0.068 C 
ATOM     20  C   UNL     1      35.862 -20.954 -19.158  0.00  0.00    +0.068 C 
ATOM     21  C   UNL     1      33.093 -20.438 -19.770  0.00  0.00    -0.056 C 
ATOM     22  C   UNL     1      35.402 -19.928 -20.197  0.00  0.00    -0.056 C 
ATOM     23  C   UNL     1      33.727 -19.369 -21.834  0.00  0.00    -0.101 C 
ATOM     24  H   UNL     1      34.248 -21.239 -21.249  0.00  0.00    -0.080 HD
ENDBRANCH   6  17
BRANCH  15  26
ATOM     25  O   UNL     1      34.914 -24.462 -10.052  0.00  0.00    -0.245 OA
ATOM     26  C   UNL     1      35.535 -24.707 -11.071  0.00  0.00    +0.342 C 
BRANCH  26  27
ATOM     27  O   UNL     1      36.548 -25.592 -11.184  0.00  0.00    -0.477 OA
ATOM     28  H   UNL     1      37.418 -25.343 -10.943  0.00  0.00    +0.295 HD
ENDBRANCH  26  27
ENDBRANCH  15  26
TORSDOF 3
ENDMDL
MODEL 3
REMARK VINA RESULT:      -9.6      9.053     11.941
REMARK  Name = 60651
REMARK  3 active torsions:
REMARK  status: ('A' for Active; 'I' for Inactive)
REMARK    1  A    between atoms: C_6  and  N_17
REMARK    2  A    between atoms: C_15  and  C_26
REMARK    3  A    between atoms: C_26  and  O_27
REMARK                            x       y       z     vdW  Elec       q    Type
REMARK                         _______ _______ _______ _____ _____    ______ ____
ROOT
ATOM      1  F   UNL     1      32.709 -12.040 -19.730  0.00  0.00    -0.203 F 
ATOM      2  O   UNL     1      32.774 -12.796 -24.415  0.00  0.00    -0.454 OA
ATOM      3  O   UNL     1      34.834 -16.612 -20.266  0.00  0.00    -0.286 OA
ATOM      4  N   UNL     1      33.901 -15.358 -24.023  0.00  0.00    -0.222 N 
ATOM      5  N   UNL     1      33.499 -14.975 -25.320  0.00  0.00    -0.159 NA
ATOM      6  C   UNL     1      32.723 -12.414 -22.074  0.00  0.00    +0.111 C 
ATOM      7  C   UNL     1      33.049 -13.242 -23.147  0.00  0.00    +0.171 C 
ATOM      8  C   UNL     1      33.623 -14.499 -22.931  0.00  0.00    +0.105 C 
ATOM      9  C   UNL     1      33.919 -14.900 -21.619  0.00  0.00    +0.059 C 
ATOM     10  C   UNL     1      33.007 -12.830 -20.772  0.00  0.00    +0.156 C 
ATOM     11  C   UNL     1      33.536 -13.507 -25.411  0.00  0.00    +0.302 C 
ATOM     12  C   UNL     1      33.610 -14.068 -20.539  0.00  0.00    +0.036 C 
ATOM     13  C   UNL     1      34.520 -16.569 -23.803  0.00  0.00    +0.092 C 
ATOM     14  C   UNL     1      34.563 -16.222 -21.394  0.00  0.00    +0.205 C 
ATOM     15  C   UNL     1      34.867 -17.046 -22.599  0.00  0.00    +0.130 C 
ATOM     16  C   UNL     1      32.156 -15.496 -25.589  0.00  0.00    +0.115 C 
ENDROOT
BRANCH   6  17
ATOM     17  N   UNL     1      32.127 -11.166 -22.285  0.00  0.00    -0.308 N 
ATOM     18  N   UNL     1      30.846  -8.701 -22.951  0.00  0.00    +0.388 N 
ATOM     19  C   UNL     1      30.693 -10.993 -22.035  0.00  0.00    +0.068 C 
ATOM     20  C   UNL     1      32.703 -10.292 -23.315  0.00  0.00    +0.068 C 
ATOM     21  C   UNL     1      30.358  -9.514 -21.830  0.00  0.00    -0.056 C 
ATOM     22  C   UNL     1      32.303  -8.835 -23.067  0.00  0.00    -0.056 C 
ATOM     23  C   UNL     1      30.473  -7.299 -22.770  0.00  0.00    -0.101 C 
ATOM     24  H   UNL     1      30.415  -9.036 -23.813  0.00  0.00    -0.080 HD
ENDBRANCH   6  17
BRANCH  15  26
ATOM     25  O   UNL     1      34.980 -19.409 -22.839  0.00  0.00    -0.245 OA
ATOM     26  C   UNL     1      35.514 -18.357 -22.534  0.00  0.00    +0.342 C 
BRANCH  26  27
ATOM     27  O   UNL     1      36.781 -18.216 -22.089  0.00  0.00    -0.477 OA
ATOM     28  H   UNL     1      37.498 -18.500 -22.621  0.00  0.00    +0.295 HD
ENDBRANCH  26  27
ENDBRANCH  15  26
TORSDOF 3
ENDMDL
MODEL 4
REMARK VINA RESULT:      -9.5      9.648     13.196
REMARK  Name = 60651
REMARK  3 active torsions:
REMARK  status: ('A' for Active; 'I' for Inactive)
REMARK    1  A    between atoms: C_6  and  N_17
REMARK    2  A    between atoms: C_15  and  C_26
REMARK    3  A    between atoms: C_26  and  O_27
REMARK                            x       y       z     vdW  Elec       q    Type
REMARK                         _______ _______ _______ _____ _____    ______ ____
ROOT
ATOM      1  F   UNL     1      31.230 -10.372 -19.346  0.00  0.00    -0.203 F 
ATOM      2  O   UNL     1      32.780 -10.640 -23.824  0.00  0.00    -0.454 OA
ATOM      3  O   UNL     1      33.288 -14.990 -19.721  0.00  0.00    -0.286 OA
ATOM      4  N   UNL     1      33.650 -13.295 -23.403  0.00  0.00    -0.222 N 
ATOM      5  N   UNL     1      33.698 -12.755 -24.705  0.00  0.00    -0.159 NA
ATOM      6  C   UNL     1      31.989 -10.501 -21.592  0.00  0.00    +0.111 C 
ATOM      7  C   UNL     1      32.619 -11.232 -22.597  0.00  0.00    +0.171 C 
ATOM      8  C   UNL     1      33.059 -12.538 -22.362  0.00  0.00    +0.105 C 
ATOM      9  C   UNL     1      32.905 -13.092 -21.081  0.00  0.00    +0.059 C 
ATOM     10  C   UNL     1      31.827 -11.066 -20.326  0.00  0.00    +0.156 C 
ATOM     11  C   UNL     1      33.802 -11.291 -24.604  0.00  0.00    +0.302 C 
ATOM     12  C   UNL     1      32.288 -12.358 -20.063  0.00  0.00    +0.036 C 
ATOM     13  C   UNL     1      34.131 -14.560 -23.144  0.00  0.00    +0.092 C 
ATOM     14  C   UNL     1      33.406 -14.468 -20.823  0.00  0.00    +0.205 C 
ATOM     15  C   UNL     1      34.059 -15.181 -21.958  0.00  0.00    +0.130 C 
ATOM     16  C   UNL     1      32.499 -13.157 -25.446  0.00  0.00    +0.115 C 
ENDROOT
BRANCH   6  17
ATOM     17  N   UNL     1      31.527  -9.202 -21.831  0.00  0.00    -0.308 N 
ATOM     18  N   UNL     1      30.390  -6.601 -22.154  0.00  0.00    +0.388 N 
ATOM     19  C   UNL     1      31.906  -8.116 -20.920  0.00  0.00    +0.068 C 
ATOM     20  C   UNL     1      30.232  -9.043 -22.506  0.00  0.00    +0.068 C 
ATOM     21  C   UNL     1      31.743  -6.758 -21.608  0.00  0.00    -0.056 C 
ATOM     22  C   UNL     1      30.125  -7.655 -23.141  0.00  0.00    -0.056 C 
ATOM     23  C   UNL     1      30.231  -5.280 -22.760  0.00  0.00    -0.101 C 
ATOM     24  H   UNL     1      29.716  -6.686 -21.394  0.00  0.00    -0.080 HD
ENDBRANCH   6  17
BRANCH  15  26
ATOM     25  O   UNL     1      34.711 -17.317 -22.774  0.00  0.00    -0.245 OA
ATOM     26  C   UNL     1      34.615 -16.530 -21.848  0.00  0.00    +0.342 C 
BRANCH  26  27
ATOM     27  O   UNL     1      34.999 -16.760 -20.574  0.00  0.00    -0.477 OA
ATOM     28  H   UNL     1      35.229 -16.042 -20.018  0.00  0.00    +0.295 HD
ENDBRANCH  26  27
ENDBRANCH  15  26
TORSDOF 3
ENDMDL
MODEL 5
REMARK VINA RESULT:      -9.5      2.737      7.719
REMARK  Name = 60651
REMARK  3 active torsions:
REMARK  status: ('A' for Active; 'I' for Inactive)
REMARK    1  A    between atoms: C_6  and  N_17
REMARK    2  A    between atoms: C_15  and  C_26
REMARK    3  A    between atoms: C_26  and  O_27
REMARK                            x       y       z     vdW  Elec       q    Type
REMARK                         _______ _______ _______ _____ _____    ______ ____
ROOT
ATOM      1  F   UNL     1      37.911 -20.980 -15.482  0.00  0.00    -0.203 F 
ATOM      2  O   UNL     1      33.927 -23.157 -16.867  0.00  0.00    -0.454 OA
ATOM      3  O   UNL     1      36.694 -18.765 -19.877  0.00  0.00    -0.286 OA
ATOM      4  N   UNL     1      33.870 -21.624 -19.240  0.00  0.00    -0.222 N 
ATOM      5  N   UNL     1      32.940 -22.672 -19.076  0.00  0.00    -0.159 NA
ATOM      6  C   UNL     1      35.926 -22.085 -16.173  0.00  0.00    +0.111 C 
ATOM      7  C   UNL     1      34.902 -22.222 -17.107  0.00  0.00    +0.171 C 
ATOM      8  C   UNL     1      34.883 -21.441 -18.267  0.00  0.00    +0.105 C 
ATOM      9  C   UNL     1      35.883 -20.473 -18.456  0.00  0.00    +0.059 C 
ATOM     10  C   UNL     1      36.924 -21.130 -16.378  0.00  0.00    +0.156 C 
ATOM     11  C   UNL     1      32.736 -22.900 -17.637  0.00  0.00    +0.302 C 
ATOM     12  C   UNL     1      36.903 -20.318 -17.514  0.00  0.00    +0.036 C 
ATOM     13  C   UNL     1      33.828 -20.808 -20.350  0.00  0.00    +0.092 C 
ATOM     14  C   UNL     1      35.840 -19.617 -19.672  0.00  0.00    +0.205 C 
ATOM     15  C   UNL     1      34.714 -19.840 -20.624  0.00  0.00    +0.130 C 
ATOM     16  C   UNL     1      33.437 -23.876 -19.746  0.00  0.00    +0.115 C 
ENDROOT
BRANCH   6  17
ATOM     17  N   UNL     1      35.961 -22.882 -15.023  0.00  0.00    -0.308 N 
ATOM     18  N   UNL     1      35.838 -24.645 -12.779  0.00  0.00    +0.388 N 
ATOM     19  C   UNL     1      36.737 -24.126 -15.024  0.00  0.00    +0.068 C 
ATOM     20  C   UNL     1      34.792 -22.862 -14.134  0.00  0.00    +0.068 C 
ATOM     21  C   UNL     1      37.058 -24.559 -13.591  0.00  0.00    -0.056 C 
ATOM     22  C   UNL     1      35.178 -23.336 -12.730  0.00  0.00    -0.056 C 
ATOM     23  C   UNL     1      36.152 -25.111 -11.429  0.00  0.00    -0.101 C 
ATOM     24  H   UNL     1      35.203 -25.318 -13.208  0.00  0.00    -0.080 HD
ENDBRANCH   6  17
BRANCH  15  26
ATOM     25  O   UNL     1      34.450 -19.542 -22.968  0.00  0.00    -0.245 OA
ATOM     26  C   UNL     1      34.533 -19.063 -21.850  0.00  0.00    +0.342 C 
BRANCH  26  27
ATOM     27  O   UNL     1      34.472 -17.748 -21.550  0.00  0.00    -0.477 OA
ATOM     28  H   UNL     1      34.156 -17.137 -22.185  0.00  0.00    +0.295 HD
ENDBRANCH  26  27
ENDBRANCH  15  26
TORSDOF 3
ENDMDL
MODEL 6
REMARK VINA RESULT:      -9.1      6.264     11.347
REMARK  Name = 60651
REMARK  3 active torsions:
REMARK  status: ('A' for Active; 'I' for Inactive)
REMARK    1  A    between atoms: C_6  and  N_17
REMARK    2  A    between atoms: C_15  and  C_26
REMARK    3  A    between atoms: C_26  and  O_27
REMARK                            x       y       z     vdW  Elec       q    Type
REMARK                         _______ _______ _______ _____ _____    ______ ____
ROOT
ATOM      1  F   UNL     1      34.632 -19.117 -23.797  0.00  0.00    -0.203 F 
ATOM      2  O   UNL     1      34.207 -16.003 -20.240  0.00  0.00    -0.454 OA
ATOM      3  O   UNL     1      33.199 -14.797 -26.032  0.00  0.00    -0.286 OA
ATOM      4  N   UNL     1      33.353 -14.003 -22.044  0.00  0.00    -0.222 N 
ATOM      5  N   UNL     1      33.313 -13.741 -20.659  0.00  0.00    -0.159 NA
ATOM      6  C   UNL     1      34.409 -17.571 -22.009  0.00  0.00    +0.111 C 
ATOM      7  C   UNL     1      34.111 -16.279 -21.581  0.00  0.00    +0.171 C 
ATOM      8  C   UNL     1      33.707 -15.299 -22.493  0.00  0.00    +0.105 C 
ATOM      9  C   UNL     1      33.655 -15.616 -23.860  0.00  0.00    +0.059 C 
ATOM     10  C   UNL     1      34.339 -17.880 -23.368  0.00  0.00    +0.156 C 
ATOM     11  C   UNL     1      34.313 -14.587 -19.990  0.00  0.00    +0.302 C 
ATOM     12  C   UNL     1      33.969 -16.905 -24.298  0.00  0.00    +0.036 C 
ATOM     13  C   UNL     1      33.012 -13.029 -22.958  0.00  0.00    +0.092 C 
ATOM     14  C   UNL     1      33.261 -14.562 -24.832  0.00  0.00    +0.205 C 
ATOM     15  C   UNL     1      32.949 -13.210 -24.285  0.00  0.00    +0.130 C 
ATOM     16  C   UNL     1      31.963 -14.002 -20.151  0.00  0.00    +0.115 C 
ENDROOT
BRANCH   6  17
ATOM     17  N   UNL     1      34.790 -18.560 -21.096  0.00  0.00    -0.308 N 
ATOM     18  N   UNL     1      35.593 -20.740 -19.434  0.00  0.00    +0.388 N 
ATOM     19  C   UNL     1      36.214 -18.803 -20.839  0.00  0.00    +0.068 C 
ATOM     20  C   UNL     1      33.907 -19.721 -20.927  0.00  0.00    +0.068 C 
ATOM     21  C   UNL     1      36.403 -19.518 -19.499  0.00  0.00    -0.056 C 
ATOM     22  C   UNL     1      34.171 -20.406 -19.584  0.00  0.00    -0.056 C 
ATOM     23  C   UNL     1      35.822 -21.443 -18.172  0.00  0.00    -0.101 C 
ATOM     24  H   UNL     1      35.867 -21.359 -20.197  0.00  0.00    -0.080 HD
ENDBRANCH   6  17
BRANCH  15  26
ATOM     25  O   UNL     1      32.561 -10.912 -24.752  0.00  0.00    -0.245 OA
ATOM     26  C   UNL     1      32.566 -12.073 -25.122  0.00  0.00    +0.342 C 
BRANCH  26  27
ATOM     27  O   UNL     1      32.224 -12.510 -26.353  0.00  0.00    -0.477 OA
ATOM     28  H   UNL     1      31.704 -13.283 -26.448  0.00  0.00    +0.295 HD
ENDBRANCH  26  27
ENDBRANCH  15  26
TORSDOF 3
ENDMDL
MODEL 7
REMARK VINA RESULT:      -8.6      3.786      6.846
REMARK  Name = 60651
REMARK  3 active torsions:
REMARK  status: ('A' for Active; 'I' for Inactive)
REMARK    1  A    between atoms: C_6  and  N_17
REMARK    2  A    between atoms: C_15  and  C_26
REMARK    3  A    between atoms: C_26  and  O_27
REMARK                            x       y       z     vdW  Elec       q    Type
REMARK                         _______ _______ _______ _____ _____    ______ ____
ROOT
ATOM      1  F   UNL     1      34.449 -22.964 -17.468  0.00  0.00    -0.203 F 
ATOM      2  O   UNL     1      32.909 -23.589 -13.022  0.00  0.00    -0.454 OA
ATOM      3  O   UNL     1      29.490 -21.924 -17.666  0.00  0.00    -0.286 OA
ATOM      4  N   UNL     1      30.264 -22.990 -13.815  0.00  0.00    -0.222 N 
ATOM      5  N   UNL     1      30.500 -23.446 -12.502  0.00  0.00    -0.159 NA
ATOM      6  C   UNL     1      33.686 -23.293 -15.244  0.00  0.00    +0.111 C 
ATOM      7  C   UNL     1      32.635 -23.272 -14.329  0.00  0.00    +0.171 C 
ATOM      8  C   UNL     1      31.336 -22.955 -14.739  0.00  0.00    +0.105 C 
ATOM      9  C   UNL     1      31.108 -22.605 -16.079  0.00  0.00    +0.059 C 
ATOM     10  C   UNL     1      33.446 -22.958 -16.578  0.00  0.00    +0.156 C 
ATOM     11  C   UNL     1      31.883 -23.111 -12.129  0.00  0.00    +0.302 C 
ATOM     12  C   UNL     1      32.161 -22.607 -16.999  0.00  0.00    +0.036 C 
ATOM     13  C   UNL     1      28.998 -22.620 -14.218  0.00  0.00    +0.092 C 
ATOM     14  C   UNL     1      29.733 -22.232 -16.506  0.00  0.00    +0.205 C 
ATOM     15  C   UNL     1      28.668 -22.247 -15.462  0.00  0.00    +0.130 C 
ATOM     16  C   UNL     1      30.261 -24.890 -12.435  0.00  0.00    +0.115 C 
ENDROOT
BRANCH   6  17
ATOM     17  N   UNL     1      34.982 -23.632 -14.842  0.00  0.00    -0.308 N 
ATOM     18  N   UNL     1      37.540 -24.330 -13.778  0.00  0.00    +0.388 N 
ATOM     19  C   UNL     1      35.341 -25.042 -14.657  0.00  0.00    +0.068 C 
ATOM     20  C   UNL     1      35.719 -22.674 -14.006  0.00  0.00    +0.068 C 
ATOM     21  C   UNL     1      36.860 -25.222 -14.724  0.00  0.00    -0.056 C 
ATOM     22  C   UNL     1      37.225 -22.932 -14.095  0.00  0.00    -0.056 C 
ATOM     23  C   UNL     1      38.986 -24.549 -13.812  0.00  0.00    -0.101 C 
ATOM     24  H   UNL     1      37.209 -24.535 -12.835  0.00  0.00    -0.080 HD
ENDBRANCH   6  17
BRANCH  15  26
ATOM     25  O   UNL     1      26.354 -22.053 -14.949  0.00  0.00    -0.245 OA
ATOM     26  C   UNL     1      27.275 -21.887 -15.731  0.00  0.00    +0.342 C 
BRANCH  26  27
ATOM     27  O   UNL     1      27.175 -21.349 -16.965  0.00  0.00    -0.477 OA
ATOM     28  H   UNL     1      27.942 -21.231 -17.488  0.00  0.00    +0.295 HD
ENDBRANCH  26  27
ENDBRANCH  15  26
TORSDOF 3
ENDMDL
MODEL 8
REMARK VINA RESULT:      -8.4      2.682      7.502
REMARK  Name = 60651
REMARK  3 active torsions:
REMARK  status: ('A' for Active; 'I' for Inactive)
REMARK    1  A    between atoms: C_6  and  N_17
REMARK    2  A    between atoms: C_15  and  C_26
REMARK    3  A    between atoms: C_26  and  O_27
REMARK                            x       y       z     vdW  Elec       q    Type
REMARK                         _______ _______ _______ _____ _____    ______ ____
ROOT
ATOM      1  F   UNL     1      38.200 -22.195 -16.065  0.00  0.00    -0.203 F 
ATOM      2  O   UNL     1      33.671 -23.213 -15.076  0.00  0.00    -0.454 OA
ATOM      3  O   UNL     1      35.563 -20.199 -19.908  0.00  0.00    -0.286 OA
ATOM      4  N   UNL     1      32.833 -21.996 -17.484  0.00  0.00    -0.222 N 
ATOM      5  N   UNL     1      31.888 -22.693 -16.702  0.00  0.00    -0.159 NA
ATOM      6  C   UNL     1      35.939 -22.722 -15.568  0.00  0.00    +0.111 C 
ATOM      7  C   UNL     1      34.593 -22.645 -15.919  0.00  0.00    +0.171 C 
ATOM      8  C   UNL     1      34.198 -22.022 -17.107  0.00  0.00    +0.105 C 
ATOM      9  C   UNL     1      35.172 -21.425 -17.923  0.00  0.00    +0.059 C 
ATOM     10  C   UNL     1      36.901 -22.138 -16.394  0.00  0.00    +0.156 C 
ATOM     11  C   UNL     1      32.345 -22.695 -15.304  0.00  0.00    +0.302 C 
ATOM     12  C   UNL     1      36.523 -21.483 -17.569  0.00  0.00    +0.036 C 
ATOM     13  C   UNL     1      32.449 -21.328 -18.628  0.00  0.00    +0.092 C 
ATOM     14  C   UNL     1      34.746 -20.730 -19.167  0.00  0.00    +0.205 C 
ATOM     15  C   UNL     1      33.286 -20.705 -19.469  0.00  0.00    +0.130 C 
ATOM     16  C   UNL     1      31.735 -24.056 -17.219  0.00  0.00    +0.115 C 
ENDROOT
BRANCH   6  17
ATOM     17  N   UNL     1      36.339 -23.366 -14.392  0.00  0.00    -0.308 N 
ATOM     18  N   UNL     1      37.402 -24.645 -12.069  0.00  0.00    +0.388 N 
ATOM     19  C   UNL     1      36.685 -22.571 -13.210  0.00  0.00    +0.068 C 
ATOM     20  C   UNL     1      37.027 -24.658 -14.512  0.00  0.00    +0.068 C 
ATOM     21  C   UNL     1      36.594 -23.425 -11.943  0.00  0.00    -0.056 C 
ATOM     22  C   UNL     1      36.924 -25.444 -13.203  0.00  0.00    -0.056 C 
ATOM     23  C   UNL     1      37.350 -25.426 -10.834  0.00  0.00    -0.101 C 
ATOM     24  H   UNL     1      38.372 -24.381 -12.239  0.00  0.00    -0.080 HD
ENDBRANCH   6  17
BRANCH  15  26
ATOM     25  O   UNL     1      31.535 -20.033 -20.930  0.00  0.00    -0.245 OA
ATOM     26  C   UNL     1      32.720 -20.045 -20.646  0.00  0.00    +0.342 C 
BRANCH  26  27
ATOM     27  O   UNL     1      33.707 -19.459 -21.357  0.00  0.00    -0.477 OA
ATOM     28  H   UNL     1      33.840 -18.533 -21.299  0.00  0.00    +0.295 HD
ENDBRANCH  26  27
ENDBRANCH  15  26
TORSDOF 3
ENDMDL
MODEL 9
REMARK VINA RESULT:      -7.8      3.115      5.079
REMARK  Name = 60651
REMARK  3 active torsions:
REMARK  status: ('A' for Active; 'I' for Inactive)
REMARK    1  A    between atoms: C_6  and  N_17
REMARK    2  A    between atoms: C_15  and  C_26
REMARK    3  A    between atoms: C_26  and  O_27
REMARK                            x       y       z     vdW  Elec       q    Type
REMARK                         _______ _______ _______ _____ _____    ______ ____
ROOT
ATOM      1  F   UNL     1      33.672 -21.996 -17.135  0.00  0.00    -0.203 F 
ATOM      2  O   UNL     1      33.359 -23.890 -12.794  0.00  0.00    -0.454 OA
ATOM      3  O   UNL     1      38.421 -23.331 -15.969  0.00  0.00    -0.286 OA
ATOM      4  N   UNL     1      36.155 -24.291 -12.728  0.00  0.00    -0.222 N 
ATOM      5  N   UNL     1      35.398 -24.543 -11.565  0.00  0.00    -0.159 NA
ATOM      6  C   UNL     1      33.506 -22.929 -14.958  0.00  0.00    +0.111 C 
ATOM      7  C   UNL     1      34.134 -23.527 -13.867  0.00  0.00    +0.171 C 
ATOM      8  C   UNL     1      35.517 -23.733 -13.862  0.00  0.00    +0.105 C 
ATOM      9  C   UNL     1      36.266 -23.377 -14.995  0.00  0.00    +0.059 C 
ATOM     10  C   UNL     1      34.262 -22.564 -16.073  0.00  0.00    +0.156 C 
ATOM     11  C   UNL     1      34.019 -24.865 -11.962  0.00  0.00    +0.302 C 
ATOM     12  C   UNL     1      35.640 -22.792 -16.100  0.00  0.00    +0.036 C 
ATOM     13  C   UNL     1      37.510 -24.543 -12.757  0.00  0.00    +0.092 C 
ATOM     14  C   UNL     1      37.731 -23.630 -15.003  0.00  0.00    +0.205 C 
ATOM     15  C   UNL     1      38.320 -24.265 -13.789  0.00  0.00    +0.130 C 
ATOM     16  C   UNL     1      35.443 -23.369 -10.688  0.00  0.00    +0.115 C 
ENDROOT
BRANCH   6  17
ATOM     17  N   UNL     1      32.126 -22.700 -14.956  0.00  0.00    -0.308 N 
ATOM     18  N   UNL     1      29.278 -22.482 -14.891  0.00  0.00    +0.388 N 
ATOM     19  C   UNL     1      31.442 -22.383 -13.698  0.00  0.00    +0.068 C 
ATOM     20  C   UNL     1      31.312 -23.387 -15.967  0.00  0.00    +0.068 C 
ATOM     21  C   UNL     1      30.106 -21.689 -13.974  0.00  0.00    -0.056 C 
ATOM     22  C   UNL     1      29.980 -22.661 -16.168  0.00  0.00    -0.056 C 
ATOM     23  C   UNL     1      27.984 -21.836 -15.104  0.00  0.00    -0.101 C 
ATOM     24  H   UNL     1      29.112 -23.399 -14.476  0.00  0.00    -0.080 HD
ENDBRANCH   6  17
BRANCH  15  26
ATOM     25  O   UNL     1      40.648 -23.784 -13.770  0.00  0.00    -0.245 OA
ATOM     26  C   UNL     1      39.741 -24.590 -13.661  0.00  0.00    +0.342 C 
BRANCH  26  27
ATOM     27  O   UNL     1      39.884 -25.908 -13.406  0.00  0.00    -0.477 OA
ATOM     28  H   UNL     1      40.545 -26.201 -12.810  0.00  0.00    +0.295 HD
ENDBRANCH  26  27
ENDBRANCH  15  26
TORSDOF 3
ENDMDL
