MODEL 1
REMARK VINA RESULT:     -11.3      0.000      0.000
REMARK  Name = 60652
REMARK  3 active torsions:
REMARK  status: ('A' for Active; 'I' for Inactive)
REMARK    1  A    between atoms: C_1  and  C_4
REMARK    2  A    between atoms: C_1  and  C_14
REMARK    3  A    between atoms: C_1  and  N_20
REMARK                            x       y       z     vdW  Elec       q    Type
REMARK                         _______ _______ _______ _____ _____    ______ ____
ROOT
ATOM      1  C   UNL     1      34.658 -17.062 -22.714  0.00  0.00    +0.124 C 
ENDROOT
BRANCH   1   4
ATOM      2  N   UNL     1      33.659 -20.896 -19.642  0.00  0.00    -0.315 N 
ATOM      3  N   UNL     1      35.754 -21.100 -18.928  0.00  0.00    -0.315 N 
ATOM      4  C   UNL     1      34.999 -18.115 -21.712  0.00  0.00    +0.001 C 
ATOM      5  C   UNL     1      33.990 -18.960 -21.238  0.00  0.00    +0.013 C 
ATOM      6  C   UNL     1      36.317 -18.239 -21.267  0.00  0.00    -0.001 C 
ATOM      7  C   UNL     1      34.367 -19.925 -20.303  0.00  0.00    +0.059 C 
ATOM      8  C   UNL     1      35.672 -20.073 -19.841  0.00  0.00    +0.059 C 
ATOM      9  C   UNL     1      36.673 -19.216 -20.327  0.00  0.00    +0.015 C 
ATOM     10  C   UNL     1      34.531 -21.570 -18.833  0.00  0.00    +0.182 C 
ATOM     11  H   UNL     1      32.695 -21.074 -19.734  0.00  0.00    +0.148 HD
ATOM     12  H   UNL     1      36.556 -21.413 -18.450  0.00  0.00    +0.148 HD
ENDBRANCH   1   4
BRANCH   1  14
ATOM     13 CL   UNL     1      33.580 -12.066 -23.672  0.00  0.00    -0.082 Cl
ATOM     14  C   UNL     1      34.283 -15.670 -22.176  0.00  0.00    +0.001 C 
ATOM     15  C   UNL     1      34.127 -14.645 -23.074  0.00  0.00    +0.009 C 
ATOM     16  C   UNL     1      34.123 -15.519 -20.821  0.00  0.00    -0.002 C 
ATOM     17  C   UNL     1      33.786 -13.383 -22.585  0.00  0.00    +0.057 C 
ATOM     18  C   UNL     1      33.782 -14.258 -20.332  0.00  0.00    +0.001 C 
ATOM     19  C   UNL     1      33.614 -13.190 -21.214  0.00  0.00    +0.011 C 
ENDBRANCH   1  14
BRANCH   1  20
ATOM     20  N   UNL     1      33.696 -17.520 -23.765  0.00  0.00    -0.262 N 
ATOM     21  N   UNL     1      32.206 -17.404 -25.337  0.00  0.00    -0.225 NA
ATOM     22  C   UNL     1      33.476 -18.798 -24.080  0.00  0.00    +0.088 C 
ATOM     23  C   UNL     1      32.945 -16.702 -24.507  0.00  0.00    +0.168 C 
ATOM     24  C   UNL     1      32.531 -18.711 -25.077  0.00  0.00    +0.117 C 
ENDBRANCH   1  20
TORSDOF 3
ENDMDL
MODEL 2
REMARK VINA RESULT:     -10.4      4.813      8.979
REMARK  Name = 60652
REMARK  3 active torsions:
REMARK  status: ('A' for Active; 'I' for Inactive)
REMARK    1  A    between atoms: C_1  and  C_4
REMARK    2  A    between atoms: C_1  and  C_14
REMARK    3  A    between atoms: C_1  and  N_20
REMARK                            x       y       z     vdW  Elec       q    Type
REMARK                         _______ _______ _______ _____ _____    ______ ____
ROOT
ATOM      1  C   UNL     1      33.379 -22.986 -16.626  0.00  0.00    +0.124 C 
ENDROOT
BRANCH   1   4
ATOM      2  N   UNL     1      36.023 -20.179 -19.830  0.00  0.00    -0.315 N 
ATOM      3  N   UNL     1      34.241 -19.456 -20.944  0.00  0.00    -0.315 N 
ATOM      4  C   UNL     1      33.555 -22.050 -17.777  0.00  0.00    +0.001 C 
ATOM      5  C   UNL     1      34.843 -21.643 -18.136  0.00  0.00    +0.013 C 
ATOM      6  C   UNL     1      32.431 -21.599 -18.473  0.00  0.00    -0.001 C 
ATOM      7  C   UNL     1      34.946 -20.768 -19.219  0.00  0.00    +0.059 C 
ATOM      8  C   UNL     1      33.846 -20.301 -19.932  0.00  0.00    +0.059 C 
ATOM      9  C   UNL     1      32.559 -20.720 -19.557  0.00  0.00    +0.015 C 
ATOM     10  C   UNL     1      35.551 -19.406 -20.854  0.00  0.00    +0.182 C 
ATOM     11  H   UNL     1      36.968 -20.294 -19.576  0.00  0.00    +0.148 HD
ATOM     12  H   UNL     1      33.667 -18.991 -21.593  0.00  0.00    +0.148 HD
ENDBRANCH   1   4
BRANCH   1  14
ATOM     13 CL   UNL     1      28.190 -22.684 -16.464  0.00  0.00    -0.082 Cl
ATOM     14  C   UNL     1      32.094 -22.844 -15.790  0.00  0.00    +0.001 C 
ATOM     15  C   UNL     1      30.889 -22.833 -16.446  0.00  0.00    +0.009 C 
ATOM     16  C   UNL     1      32.214 -22.736 -14.428  0.00  0.00    -0.002 C 
ATOM     17  C   UNL     1      29.725 -22.705 -15.688  0.00  0.00    +0.057 C 
ATOM     18  C   UNL     1      31.051 -22.608 -13.670  0.00  0.00    +0.001 C 
ATOM     19  C   UNL     1      29.806 -22.592 -14.299  0.00  0.00    +0.011 C 
ENDBRANCH   1  14
BRANCH   1  20
ATOM     20  N   UNL     1      34.589 -23.102 -15.754  0.00  0.00    -0.262 N 
ATOM     21  N   UNL     1      36.311 -22.489 -14.585  0.00  0.00    -0.225 NA
ATOM     22  C   UNL     1      35.083 -24.256 -15.300  0.00  0.00    +0.088 C 
ATOM     23  C   UNL     1      35.316 -22.064 -15.332  0.00  0.00    +0.168 C 
ATOM     24  C   UNL     1      36.173 -23.854 -14.561  0.00  0.00    +0.117 C 
ENDBRANCH   1  20
TORSDOF 3
ENDMDL
MODEL 3
REMARK VINA RESULT:     -10.4      5.993      8.795
REMARK  Name = 60652
REMARK  3 active torsions:
REMARK  status: ('A' for Active; 'I' for Inactive)
REMARK    1  A    between atoms: C_1  and  C_4
REMARK    2  A    between atoms: C_1  and  C_14
REMARK    3  A    between atoms: C_1  and  N_20
REMARK                            x       y       z     vdW  Elec       q    Type
REMARK                         _______ _______ _______ _____ _____    ______ ____
ROOT
ATOM      1  C   UNL     1      33.670 -23.211 -16.265  0.00  0.00    +0.124 C 
ENDROOT
BRANCH   1   4
ATOM      2  N   UNL     1      36.494 -26.007 -13.209  0.00  0.00    -0.315 N 
ATOM      3  N   UNL     1      37.625 -24.280 -12.384  0.00  0.00    -0.315 N 
ATOM      4  C   UNL     1      34.727 -23.442 -15.235  0.00  0.00    +0.001 C 
ATOM      5  C   UNL     1      34.989 -24.747 -14.806  0.00  0.00    +0.013 C 
ATOM      6  C   UNL     1      35.434 -22.353 -14.721  0.00  0.00    -0.001 C 
ATOM      7  C   UNL     1      35.987 -24.902 -13.842  0.00  0.00    +0.059 C 
ATOM      8  C   UNL     1      36.709 -23.837 -13.311  0.00  0.00    +0.059 C 
ATOM      9  C   UNL     1      36.432 -22.533 -13.753  0.00  0.00    +0.015 C 
ATOM     10  C   UNL     1      37.469 -25.585 -12.349  0.00  0.00    +0.182 C 
ATOM     11  H   UNL     1      36.207 -26.939 -13.349  0.00  0.00    +0.148 HD
ATOM     12  H   UNL     1      38.259 -23.738 -11.862  0.00  0.00    +0.148 HD
ENDBRANCH   1   4
BRANCH   1  14
ATOM     13 CL   UNL     1      32.077 -20.398 -20.339  0.00  0.00    -0.082 Cl
ATOM     14  C   UNL     1      34.021 -22.283 -17.441  0.00  0.00    +0.001 C 
ATOM     15  C   UNL     1      33.002 -21.832 -18.241  0.00  0.00    +0.009 C 
ATOM     16  C   UNL     1      35.338 -21.950 -17.635  0.00  0.00    -0.002 C 
ATOM     17  C   UNL     1      33.321 -20.989 -19.306  0.00  0.00    +0.057 C 
ATOM     18  C   UNL     1      35.657 -21.108 -18.701  0.00  0.00    +0.001 C 
ATOM     19  C   UNL     1      34.648 -20.628 -19.536  0.00  0.00    +0.011 C 
ENDBRANCH   1  14
BRANCH   1  20
ATOM     20  N   UNL     1      32.329 -22.880 -15.687  0.00  0.00    -0.262 N 
ATOM     21  N   UNL     1      30.853 -22.219 -14.242  0.00  0.00    -0.225 NA
ATOM     22  C   UNL     1      31.173 -23.017 -16.340  0.00  0.00    +0.088 C 
ATOM     23  C   UNL     1      32.136 -22.411 -14.452  0.00  0.00    +0.168 C 
ATOM     24  C   UNL     1      30.246 -22.595 -15.414  0.00  0.00    +0.117 C 
ENDBRANCH   1  20
TORSDOF 3
ENDMDL
MODEL 4
REMARK VINA RESULT:     -10.4      7.086     10.122
REMARK  Name = 60652
REMARK  3 active torsions:
REMARK  status: ('A' for Active; 'I' for Inactive)
REMARK    1  A    between atoms: C_1  and  C_4
REMARK    2  A    between atoms: C_1  and  C_14
REMARK    3  A    between atoms: C_1  and  N_20
REMARK                            x       y       z     vdW  Elec       q    Type
REMARK                         _______ _______ _______ _____ _____    ______ ____
ROOT
ATOM      1  C   UNL     1      34.554 -23.161 -14.484  0.00  0.00    +0.124 C 
ENDROOT
BRANCH   1   4
ATOM      2  N   UNL     1      29.809 -22.735 -16.045  0.00  0.00    -0.315 N 
ATOM      3  N   UNL     1      28.999 -24.152 -14.535  0.00  0.00    -0.315 N 
ATOM      4  C   UNL     1      33.091 -23.456 -14.457  0.00  0.00    +0.001 C 
ATOM      5  C   UNL     1      32.250 -22.834 -15.386  0.00  0.00    +0.013 C 
ATOM      6  C   UNL     1      32.587 -24.347 -13.506  0.00  0.00    -0.001 C 
ATOM      7  C   UNL     1      30.892 -23.148 -15.312  0.00  0.00    +0.059 C 
ATOM      8  C   UNL     1      30.361 -24.031 -14.377  0.00  0.00    +0.059 C 
ATOM      9  C   UNL     1      31.220 -24.647 -13.451  0.00  0.00    +0.015 C 
ATOM     10  C   UNL     1      28.702 -23.362 -15.543  0.00  0.00    +0.182 C 
ATOM     11  H   UNL     1      29.826 -22.101 -16.798  0.00  0.00    +0.148 HD
ATOM     12  H   UNL     1      28.382 -24.708 -14.008  0.00  0.00    +0.148 HD
ENDBRANCH   1   4
BRANCH   1  14
ATOM     13 CL   UNL     1      33.929 -21.726 -19.443  0.00  0.00    -0.082 Cl
ATOM     14  C   UNL     1      35.104 -22.430 -15.722  0.00  0.00    +0.001 C 
ATOM     15  C   UNL     1      34.345 -22.424 -16.865  0.00  0.00    +0.009 C 
ATOM     16  C   UNL     1      36.329 -21.818 -15.625  0.00  0.00    -0.002 C 
ATOM     17  C   UNL     1      34.844 -21.760 -17.986  0.00  0.00    +0.057 C 
ATOM     18  C   UNL     1      36.827 -21.155 -16.746  0.00  0.00    +0.001 C 
ATOM     19  C   UNL     1      36.085 -21.126 -17.926  0.00  0.00    +0.011 C 
ENDBRANCH   1  14
BRANCH   1  20
ATOM     20  N   UNL     1      35.411 -24.331 -14.113  0.00  0.00    -0.262 N 
ATOM     21  N   UNL     1      36.419 -26.243 -14.296  0.00  0.00    -0.225 NA
ATOM     22  C   UNL     1      36.057 -24.453 -12.952  0.00  0.00    +0.088 C 
ATOM     23  C   UNL     1      35.626 -25.387 -14.901  0.00  0.00    +0.168 C 
ATOM     24  C   UNL     1      36.692 -25.668 -13.080  0.00  0.00    +0.117 C 
ENDBRANCH   1  20
TORSDOF 3
ENDMDL
MODEL 5
REMARK VINA RESULT:     -10.3      4.867      9.048
REMARK  Name = 60652
REMARK  3 active torsions:
REMARK  status: ('A' for Active; 'I' for Inactive)
REMARK    1  A    between atoms: C_1  and  C_4
REMARK    2  A    between atoms: C_1  and  C_14
REMARK    3  A    between atoms: C_1  and  N_20
REMARK                            x       y       z     vdW  Elec       q    Type
REMARK                         _______ _______ _______ _____ _____    ______ ____
ROOT
ATOM      1  C   UNL     1      33.445 -23.140 -16.407  0.00  0.00    +0.124 C 
ENDROOT
BRANCH   1   4
ATOM      2  N   UNL     1      32.512 -20.229 -20.381  0.00  0.00    -0.315 N 
ATOM      3  N   UNL     1      34.648 -19.725 -20.736  0.00  0.00    -0.315 N 
ATOM      4  C   UNL     1      33.815 -22.240 -17.540  0.00  0.00    +0.001 C 
ATOM      5  C   UNL     1      32.807 -21.727 -18.362  0.00  0.00    +0.013 C 
ATOM      6  C   UNL     1      35.159 -21.927 -17.759  0.00  0.00    -0.001 C 
ATOM      7  C   UNL     1      33.211 -20.892 -19.405  0.00  0.00    +0.059 C 
ATOM      8  C   UNL     1      34.541 -20.562 -19.648  0.00  0.00    +0.059 C 
ATOM      9  C   UNL     1      35.541 -21.086 -18.812  0.00  0.00    +0.015 C 
ATOM     10  C   UNL     1      33.413 -19.547 -21.150  0.00  0.00    +0.182 C 
ATOM     11  H   UNL     1      31.535 -20.242 -20.505  0.00  0.00    +0.148 HD
ATOM     12  H   UNL     1      35.470 -19.344 -21.120  0.00  0.00    +0.148 HD
ENDBRANCH   1   4
BRANCH   1  14
ATOM     13 CL   UNL     1      28.259 -22.857 -16.674  0.00  0.00    -0.082 Cl
ATOM     14  C   UNL     1      32.104 -22.872 -15.701  0.00  0.00    +0.001 C 
ATOM     15  C   UNL     1      30.950 -22.979 -16.435  0.00  0.00    +0.009 C 
ATOM     16  C   UNL     1      32.125 -22.540 -14.370  0.00  0.00    -0.002 C 
ATOM     17  C   UNL     1      29.734 -22.737 -15.795  0.00  0.00    +0.057 C 
ATOM     18  C   UNL     1      30.909 -22.298 -13.730  0.00  0.00    +0.001 C 
ATOM     19  C   UNL     1      29.714 -22.397 -14.442  0.00  0.00    +0.011 C 
ENDBRANCH   1  14
BRANCH   1  20
ATOM     20  N   UNL     1      34.551 -23.349 -15.420  0.00  0.00    -0.262 N 
ATOM     21  N   UNL     1      36.151 -22.868 -14.037  0.00  0.00    -0.225 NA
ATOM     22  C   UNL     1      34.962 -24.545 -14.991  0.00  0.00    +0.088 C 
ATOM     23  C   UNL     1      35.254 -22.365 -14.856  0.00  0.00    +0.168 C 
ATOM     24  C   UNL     1      35.974 -24.226 -14.116  0.00  0.00    +0.117 C 
ENDBRANCH   1  20
TORSDOF 3
ENDMDL
MODEL 6
REMARK VINA RESULT:     -10.2      7.009      9.785
REMARK  Name = 60652
REMARK  3 active torsions:
REMARK  status: ('A' for Active; 'I' for Inactive)
REMARK    1  A    between atoms: C_1  and  C_4
REMARK    2  A    between atoms: C_1  and  C_14
REMARK    3  A    between atoms: C_1  and  N_20
REMARK                            x       y       z     vdW  Elec       q    Type
REMARK                         _______ _______ _______ _____ _____    ______ ____
ROOT
ATOM      1  C   UNL     1      33.538 -23.821 -15.277  0.00  0.00    +0.124 C 
ENDROOT
BRANCH   1   4
ATOM      2  N   UNL     1      37.894 -25.993 -14.076  0.00  0.00    -0.315 N 
ATOM      3  N   UNL     1      38.596 -24.299 -12.820  0.00  0.00    -0.315 N 
ATOM      4  C   UNL     1      34.869 -23.900 -14.605  0.00  0.00    +0.001 C 
ATOM      5  C   UNL     1      35.656 -25.042 -14.779  0.00  0.00    +0.013 C 
ATOM      6  C   UNL     1      35.305 -22.832 -13.817  0.00  0.00    -0.001 C 
ATOM      7  C   UNL     1      36.890 -25.060 -14.127  0.00  0.00    +0.059 C 
ATOM      8  C   UNL     1      37.352 -24.012 -13.336  0.00  0.00    +0.059 C 
ATOM      9  C   UNL     1      36.548 -22.872 -13.172  0.00  0.00    +0.015 C 
ATOM     10  C   UNL     1      38.889 -25.493 -13.284  0.00  0.00    +0.182 C 
ATOM     11  H   UNL     1      37.896 -26.867 -14.529  0.00  0.00    +0.148 HD
ATOM     12  H   UNL     1      39.145 -23.733 -12.232  0.00  0.00    +0.148 HD
ENDBRANCH   1   4
BRANCH   1  14
ATOM     13 CL   UNL     1      35.902 -20.988 -18.941  0.00  0.00    -0.082 Cl
ATOM     14  C   UNL     1      33.427 -22.923 -16.522  0.00  0.00    +0.001 C 
ATOM     15  C   UNL     1      34.582 -22.437 -17.078  0.00  0.00    +0.009 C 
ATOM     16  C   UNL     1      32.177 -22.652 -17.018  0.00  0.00    -0.002 C 
ATOM     17  C   UNL     1      34.481 -21.624 -18.208  0.00  0.00    +0.057 C 
ATOM     18  C   UNL     1      32.075 -21.839 -18.147  0.00  0.00    +0.001 C 
ATOM     19  C   UNL     1      33.227 -21.325 -18.742  0.00  0.00    +0.011 C 
ENDBRANCH   1  14
BRANCH   1  20
ATOM     20  N   UNL     1      32.400 -23.590 -14.332  0.00  0.00    -0.262 N 
ATOM     21  N   UNL     1      30.880 -24.023 -12.847  0.00  0.00    -0.225 NA
ATOM     22  C   UNL     1      31.798 -22.413 -14.151  0.00  0.00    +0.088 C 
ATOM     23  C   UNL     1      31.855 -24.536 -13.562  0.00  0.00    +0.168 C 
ATOM     24  C   UNL     1      30.838 -22.700 -13.208  0.00  0.00    +0.117 C 
ENDBRANCH   1  20
TORSDOF 3
ENDMDL
MODEL 7
REMARK VINA RESULT:     -10.2      6.635     10.942
REMARK  Name = 60652
REMARK  3 active torsions:
REMARK  status: ('A' for Active; 'I' for Inactive)
REMARK    1  A    between atoms: C_1  and  C_4
REMARK    2  A    between atoms: C_1  and  C_14
REMARK    3  A    between atoms: C_1  and  N_20
REMARK                            x       y       z     vdW  Elec       q    Type
REMARK                         _______ _______ _______ _____ _____    ______ ____
ROOT
ATOM      1  C   UNL     1      33.750 -22.988 -13.929  0.00  0.00    +0.124 C 
ENDROOT
BRANCH   1   4
ATOM      2  N   UNL     1      36.136 -21.240 -17.977  0.00  0.00    -0.315 N 
ATOM      3  N   UNL     1      34.454 -21.659 -19.369  0.00  0.00    -0.315 N 
ATOM      4  C   UNL     1      33.888 -22.654 -15.379  0.00  0.00    +0.001 C 
ATOM      5  C   UNL     1      35.077 -22.082 -15.838  0.00  0.00    +0.013 C 
ATOM      6  C   UNL     1      32.827 -22.920 -16.248  0.00  0.00    -0.001 C 
ATOM      7  C   UNL     1      35.149 -21.791 -17.202  0.00  0.00    +0.059 C 
ATOM      8  C   UNL     1      34.110 -22.044 -18.092  0.00  0.00    +0.059 C 
ATOM      9  C   UNL     1      32.921 -22.620 -17.613  0.00  0.00    +0.015 C 
ATOM     10  C   UNL     1      35.674 -21.182 -19.263  0.00  0.00    +0.182 C 
ATOM     11  H   UNL     1      37.020 -20.940 -17.664  0.00  0.00    +0.148 HD
ATOM     12  H   UNL     1      33.906 -21.727 -20.182  0.00  0.00    +0.148 HD
ENDBRANCH   1   4
BRANCH   1  14
ATOM     13 CL   UNL     1      37.404 -26.642 -14.518  0.00  0.00    -0.082 Cl
ATOM     14  C   UNL     1      34.846 -23.867 -13.300  0.00  0.00    +0.001 C 
ATOM     15  C   UNL     1      35.528 -24.738 -14.112  0.00  0.00    +0.009 C 
ATOM     16  C   UNL     1      35.090 -23.738 -11.956  0.00  0.00    -0.002 C 
ATOM     17  C   UNL     1      36.522 -25.533 -13.541  0.00  0.00    +0.057 C 
ATOM     18  C   UNL     1      36.084 -24.533 -11.385  0.00  0.00    +0.001 C 
ATOM     19  C   UNL     1      36.799 -25.431 -12.177  0.00  0.00    +0.011 C 
ENDBRANCH   1  14
BRANCH   1  20
ATOM     20  N   UNL     1      32.383 -23.462 -13.548  0.00  0.00    -0.262 N 
ATOM     21  N   UNL     1      30.336 -23.380 -12.835  0.00  0.00    -0.225 NA
ATOM     22  C   UNL     1      31.972 -24.729 -13.635  0.00  0.00    +0.088 C 
ATOM     23  C   UNL     1      31.416 -22.671 -13.076  0.00  0.00    +0.168 C 
ATOM     24  C   UNL     1      30.675 -24.664 -13.181  0.00  0.00    +0.117 C 
ENDBRANCH   1  20
TORSDOF 3
ENDMDL
MODEL 8
REMARK VINA RESULT:     -10.1      6.944      9.840
REMARK  Name = 60652
REMARK  3 active torsions:
REMARK  status: ('A' for Active; 'I' for Inactive)
REMARK    1  A    between atoms: C_1  and  C_4
REMARK    2  A    between atoms: C_1  and  C_14
REMARK    3  A    between atoms: C_1  and  N_20
REMARK                            x       y       z     vdW  Elec       q    Type
REMARK                         _______ _______ _______ _____ _____    ______ ____
ROOT
ATOM      1  C   UNL     1      33.794 -22.567 -15.192  0.00  0.00    +0.124 C 
ENDROOT
BRANCH   1   4
ATOM      2  N   UNL     1      37.634 -25.775 -14.886  0.00  0.00    -0.315 N 
ATOM      3  N   UNL     1      38.508 -24.832 -13.072  0.00  0.00    -0.315 N 
ATOM      4  C   UNL     1      35.041 -23.130 -14.593  0.00  0.00    +0.001 C 
ATOM      5  C   UNL     1      35.641 -24.245 -15.185  0.00  0.00    +0.013 C 
ATOM      6  C   UNL     1      35.586 -22.533 -13.453  0.00  0.00    -0.001 C 
ATOM      7  C   UNL     1      36.804 -24.727 -14.582  0.00  0.00    +0.059 C 
ATOM      8  C   UNL     1      37.370 -24.154 -13.447  0.00  0.00    +0.059 C 
ATOM      9  C   UNL     1      36.754 -23.034 -12.865  0.00  0.00    +0.015 C 
ATOM     10  C   UNL     1      38.636 -25.796 -13.956  0.00  0.00    +0.182 C 
ATOM     11  H   UNL     1      37.527 -26.401 -15.639  0.00  0.00    +0.148 HD
ATOM     12  H   UNL     1      39.097 -24.637 -12.309  0.00  0.00    +0.148 HD
ENDBRANCH   1   4
BRANCH   1  14
ATOM     13 CL   UNL     1      28.616 -22.147 -14.962  0.00  0.00    -0.082 Cl
ATOM     14  C   UNL     1      32.452 -23.106 -14.665  0.00  0.00    +0.001 C 
ATOM     15  C   UNL     1      31.302 -22.448 -15.021  0.00  0.00    +0.009 C 
ATOM     16  C   UNL     1      32.469 -24.219 -13.863  0.00  0.00    -0.002 C 
ATOM     17  C   UNL     1      30.086 -22.938 -14.544  0.00  0.00    +0.057 C 
ATOM     18  C   UNL     1      31.253 -24.709 -13.386  0.00  0.00    +0.001 C 
ATOM     19  C   UNL     1      30.061 -24.068 -13.726  0.00  0.00    +0.011 C 
ENDBRANCH   1  14
BRANCH   1  20
ATOM     20  N   UNL     1      33.814 -22.516 -16.687  0.00  0.00    -0.262 N 
ATOM     21  N   UNL     1      33.247 -22.943 -18.737  0.00  0.00    -0.225 NA
ATOM     22  C   UNL     1      34.672 -21.788 -17.405  0.00  0.00    +0.088 C 
ATOM     23  C   UNL     1      32.977 -23.195 -17.476  0.00  0.00    +0.168 C 
ATOM     24  C   UNL     1      34.302 -22.067 -18.701  0.00  0.00    +0.117 C 
ENDBRANCH   1  20
TORSDOF 3
ENDMDL
MODEL 9
REMARK VINA RESULT:     -10.0      6.908     10.238
REMARK  Name = 60652
REMARK  3 active torsions:
REMARK  status: ('A' for Active; 'I' for Inactive)
REMARK    1  A    between atoms: C_1  and  C_4
REMARK    2  A    between atoms: C_1  and  C_14
REMARK    3  A    between atoms: C_1  and  N_20
REMARK                            x       y       z     vdW  Elec       q    Type
REMARK                         _______ _______ _______ _____ _____    ______ ____
ROOT
ATOM      1  C   UNL     1      31.155  -7.584 -22.538  0.00  0.00    +0.124 C 
ENDROOT
BRANCH   1   4
ATOM      2  N   UNL     1      33.628 -11.840 -23.489  0.00  0.00    -0.315 N 
ATOM      3  N   UNL     1      32.394 -13.073 -22.112  0.00  0.00    -0.315 N 
ATOM      4  C   UNL     1      31.443  -9.042 -22.391  0.00  0.00    +0.001 C 
ATOM      5  C   UNL     1      32.490  -9.610 -23.124  0.00  0.00    +0.013 C 
ATOM      6  C   UNL     1      30.664  -9.812 -21.524  0.00  0.00    -0.001 C 
ATOM      7  C   UNL     1      32.712 -10.976 -22.946  0.00  0.00    +0.059 C 
ATOM      8  C   UNL     1      31.954 -11.769 -22.090  0.00  0.00    +0.059 C 
ATOM      9  C   UNL     1      30.906 -11.182 -21.361  0.00  0.00    +0.015 C 
ATOM     10  C   UNL     1      33.397 -13.080 -22.960  0.00  0.00    +0.182 C 
ATOM     11  H   UNL     1      34.327 -11.609 -24.143  0.00  0.00    +0.148 HD
ATOM     12  H   UNL     1      32.034 -13.835 -21.603  0.00  0.00    +0.148 HD
ENDBRANCH   1   4
BRANCH   1  14
ATOM     13 CL   UNL     1      34.666  -4.590 -24.936  0.00  0.00    -0.082 Cl
ATOM     14  C   UNL     1      31.636  -6.896 -23.828  0.00  0.00    +0.001 C 
ATOM     15  C   UNL     1      32.790  -6.155 -23.779  0.00  0.00    +0.009 C 
ATOM     16  C   UNL     1      30.890  -7.057 -24.968  0.00  0.00    -0.002 C 
ATOM     17  C   UNL     1      33.226  -5.532 -24.948  0.00  0.00    +0.057 C 
ATOM     18  C   UNL     1      31.326  -6.434 -26.137  0.00  0.00    +0.001 C 
ATOM     19  C   UNL     1      32.494  -5.672 -26.128  0.00  0.00    +0.011 C 
ENDBRANCH   1  14
BRANCH   1  20
ATOM     20  N   UNL     1      31.499  -6.777 -21.326  0.00  0.00    -0.262 N 
ATOM     21  N   UNL     1      32.454  -6.239 -19.454  0.00  0.00    -0.225 NA
ATOM     22  C   UNL     1      30.976  -5.582 -21.042  0.00  0.00    +0.088 C 
ATOM     23  C   UNL     1      32.369  -7.160 -20.387  0.00  0.00    +0.168 C 
ATOM     24  C   UNL     1      31.589  -5.252 -19.855  0.00  0.00    +0.117 C 
ENDBRANCH   1  20
TORSDOF 3
ENDMDL
