MODEL 1
REMARK VINA RESULT:     -12.7      0.000      0.000
REMARK  Name = 9924495
REMARK  4 active torsions:
REMARK  status: ('A' for Active; 'I' for Inactive)
REMARK    1  A    between atoms: N_2  and  C_22
REMARK    2  A    between atoms: C_3  and  C_14
REMARK    3  A    between atoms: C_4  and  C_9
REMARK    4  A    between atoms: C_15  and  C_21
REMARK                            x       y       z     vdW  Elec       q    Type
REMARK                         _______ _______ _______ _____ _____    ______ ____
ROOT
ATOM      1  O   UNL     1      36.279 -22.516 -16.239  0.00  0.00    -0.269 OA
ATOM      2  N   UNL     1      34.000 -22.357 -16.818  0.00  0.00    -0.233 N 
ATOM      3  C   UNL     1      34.750 -23.394 -14.685  0.00  0.00    +0.055 C 
ATOM      4  C   UNL     1      32.407 -23.420 -15.356  0.00  0.00    +0.033 C 
ATOM      5  C   UNL     1      35.089 -22.696 -15.978  0.00  0.00    +0.257 C 
ATOM      6  C   UNL     1      33.475 -23.727 -14.433  0.00  0.00    +0.007 C 
ATOM      7  C   UNL     1      32.705 -22.749 -16.480  0.00  0.00    +0.074 C 
ENDROOT
BRANCH   4   9
ATOM      8  N   UNL     1      30.788 -24.667 -14.101  0.00  0.00    -0.244 NA
ATOM      9  C   UNL     1      30.997 -23.771 -15.091  0.00  0.00    +0.083 C 
ATOM     10  C   UNL     1      29.989 -23.192 -15.842  0.00  0.00    +0.019 C 
ATOM     11  C   UNL     1      28.676 -23.555 -15.557  0.00  0.00    +0.003 C 
ATOM     12  C   UNL     1      29.500 -24.995 -13.853  0.00  0.00    +0.099 C 
ATOM     13  C   UNL     1      28.420 -24.472 -14.545  0.00  0.00    +0.021 C 
ENDBRANCH   4   9
BRANCH   3  14
ATOM     14  C   UNL     1      35.796 -23.712 -13.697  0.00  0.00    +0.014 C 
ATOM     15  C   UNL     1      36.534 -24.893 -13.758  0.00  0.00    +0.069 C 
ATOM     16  C   UNL     1      36.040 -22.789 -12.679  0.00  0.00    +0.001 C 
ATOM     17  C   UNL     1      37.515 -25.153 -12.801  0.00  0.00    +0.010 C 
ATOM     18  C   UNL     1      37.021 -23.048 -11.723  0.00  0.00    +0.000 C 
ATOM     19  C   UNL     1      37.759 -24.230 -11.783  0.00  0.00    +0.001 C 
BRANCH  15  21
ATOM     20  N   UNL     1      36.133 -26.650 -15.619  0.00  0.00    -0.191 NA
ATOM     21  C   UNL     1      36.312 -25.864 -14.787  0.00  0.00    +0.100 C 
ENDBRANCH  15  21
ENDBRANCH   3  14
BRANCH   2  22
ATOM     22  C   UNL     1      34.245 -21.625 -18.046  0.00  0.00    +0.058 C 
ATOM     23  C   UNL     1      35.549 -21.331 -18.424  0.00  0.00    +0.015 C 
ATOM     24  C   UNL     1      33.171 -21.227 -18.835  0.00  0.00    +0.015 C 
ATOM     25  C   UNL     1      35.784 -20.628 -19.605  0.00  0.00    +0.001 C 
ATOM     26  C   UNL     1      33.406 -20.524 -20.016  0.00  0.00    +0.001 C 
ATOM     27  C   UNL     1      34.713 -20.224 -20.402  0.00  0.00    +0.000 C 
ENDBRANCH   2  22
TORSDOF 4
ENDMDL
MODEL 2
REMARK VINA RESULT:     -12.4      1.199      5.154
REMARK  Name = 9924495
REMARK  4 active torsions:
REMARK  status: ('A' for Active; 'I' for Inactive)
REMARK    1  A    between atoms: N_2  and  C_22
REMARK    2  A    between atoms: C_3  and  C_14
REMARK    3  A    between atoms: C_4  and  C_9
REMARK    4  A    between atoms: C_15  and  C_21
REMARK                            x       y       z     vdW  Elec       q    Type
REMARK                         _______ _______ _______ _____ _____    ______ ____
ROOT
ATOM      1  O   UNL     1      32.868 -24.139 -13.084  0.00  0.00    -0.269 OA
ATOM      2  N   UNL     1      32.215 -23.388 -15.221  0.00  0.00    -0.233 N 
ATOM      3  C   UNL     1      34.592 -23.375 -14.488  0.00  0.00    +0.055 C 
ATOM      4  C   UNL     1      33.915 -22.408 -16.620  0.00  0.00    +0.033 C 
ATOM      5  C   UNL     1      33.147 -23.692 -14.198  0.00  0.00    +0.257 C 
ATOM      6  C   UNL     1      34.913 -22.761 -15.637  0.00  0.00    +0.007 C 
ATOM      7  C   UNL     1      32.636 -22.743 -16.383  0.00  0.00    +0.074 C 
ENDROOT
BRANCH   4   9
ATOM      8  N   UNL     1      35.568 -21.572 -18.143  0.00  0.00    -0.244 NA
ATOM      9  C   UNL     1      34.251 -21.741 -17.894  0.00  0.00    +0.083 C 
ATOM     10  C   UNL     1      33.239 -21.329 -18.745  0.00  0.00    +0.019 C 
ATOM     11  C   UNL     1      33.604 -20.704 -19.932  0.00  0.00    +0.003 C 
ATOM     12  C   UNL     1      35.884 -20.960 -19.306  0.00  0.00    +0.099 C 
ATOM     13  C   UNL     1      34.949 -20.513 -20.226  0.00  0.00    +0.021 C 
ENDBRANCH   4   9
BRANCH   3  14
ATOM     14  C   UNL     1      35.654 -23.731 -13.530  0.00  0.00    +0.014 C 
ATOM     15  C   UNL     1      36.390 -24.910 -13.648  0.00  0.00    +0.069 C 
ATOM     16  C   UNL     1      35.914 -22.850 -12.480  0.00  0.00    +0.001 C 
ATOM     17  C   UNL     1      37.385 -25.208 -12.717  0.00  0.00    +0.010 C 
ATOM     18  C   UNL     1      36.909 -23.147 -11.549  0.00  0.00    +0.000 C 
ATOM     19  C   UNL     1      37.645 -24.326 -11.668  0.00  0.00    +0.001 C 
BRANCH  15  21
ATOM     20  N   UNL     1      35.958 -26.590 -15.572  0.00  0.00    -0.191 NA
ATOM     21  C   UNL     1      36.151 -25.840 -14.712  0.00  0.00    +0.100 C 
ENDBRANCH  15  21
ENDBRANCH   3  14
BRANCH   2  22
ATOM     22  C   UNL     1      30.816 -23.727 -15.038  0.00  0.00    +0.058 C 
ATOM     23  C   UNL     1      30.472 -24.878 -14.341  0.00  0.00    +0.015 C 
ATOM     24  C   UNL     1      29.834 -22.894 -15.562  0.00  0.00    +0.015 C 
ATOM     25  C   UNL     1      29.127 -25.202 -14.165  0.00  0.00    +0.001 C 
ATOM     26  C   UNL     1      28.489 -23.218 -15.387  0.00  0.00    +0.001 C 
ATOM     27  C   UNL     1      28.135 -24.373 -14.688  0.00  0.00    +0.000 C 
ENDBRANCH   2  22
TORSDOF 4
ENDMDL
MODEL 3
REMARK VINA RESULT:     -10.2      1.271      2.131
REMARK  Name = 9924495
REMARK  4 active torsions:
REMARK  status: ('A' for Active; 'I' for Inactive)
REMARK    1  A    between atoms: N_2  and  C_22
REMARK    2  A    between atoms: C_3  and  C_14
REMARK    3  A    between atoms: C_4  and  C_9
REMARK    4  A    between atoms: C_15  and  C_21
REMARK                            x       y       z     vdW  Elec       q    Type
REMARK                         _______ _______ _______ _____ _____    ______ ____
ROOT
ATOM      1  O   UNL     1      36.511 -22.484 -16.631  0.00  0.00    -0.269 OA
ATOM      2  N   UNL     1      34.174 -22.338 -16.900  0.00  0.00    -0.233 N 
ATOM      3  C   UNL     1      35.208 -23.449 -14.929  0.00  0.00    +0.055 C 
ATOM      4  C   UNL     1      32.798 -23.486 -15.289  0.00  0.00    +0.033 C 
ATOM      5  C   UNL     1      35.367 -22.693 -16.224  0.00  0.00    +0.257 C 
ATOM      6  C   UNL     1      33.981 -23.813 -14.527  0.00  0.00    +0.007 C 
ATOM      7  C   UNL     1      32.939 -22.765 -16.413  0.00  0.00    +0.074 C 
ENDROOT
BRANCH   4   9
ATOM      8  N   UNL     1      30.453 -23.661 -15.757  0.00  0.00    -0.244 NA
ATOM      9  C   UNL     1      31.439 -23.870 -14.857  0.00  0.00    +0.083 C 
ATOM     10  C   UNL     1      31.240 -24.405 -13.596  0.00  0.00    +0.019 C 
ATOM     11  C   UNL     1      29.942 -24.751 -13.234  0.00  0.00    +0.003 C 
ATOM     12  C   UNL     1      29.205 -24.008 -15.370  0.00  0.00    +0.099 C 
ATOM     13  C   UNL     1      28.901 -24.552 -14.132  0.00  0.00    +0.021 C 
ENDBRANCH   4   9
BRANCH   3  14
ATOM     14  C   UNL     1      36.379 -23.790 -14.101  0.00  0.00    +0.014 C 
ATOM     15  C   UNL     1      36.327 -23.774 -12.708  0.00  0.00    +0.069 C 
ATOM     16  C   UNL     1      37.564 -24.136 -14.751  0.00  0.00    +0.001 C 
ATOM     17  C   UNL     1      37.460 -24.102 -11.964  0.00  0.00    +0.010 C 
ATOM     18  C   UNL     1      38.697 -24.465 -14.008  0.00  0.00    +0.000 C 
ATOM     19  C   UNL     1      38.645 -24.449 -12.614  0.00  0.00    +0.001 C 
BRANCH  15  21
ATOM     20  N   UNL     1      34.159 -23.142 -11.438  0.00  0.00    -0.191 NA
ATOM     21  C   UNL     1      35.128 -23.423 -12.006  0.00  0.00    +0.100 C 
ENDBRANCH  15  21
ENDBRANCH   3  14
BRANCH   2  22
ATOM     22  C   UNL     1      34.248 -21.553 -18.118  0.00  0.00    +0.058 C 
ATOM     23  C   UNL     1      33.081 -21.225 -18.797  0.00  0.00    +0.015 C 
ATOM     24  C   UNL     1      35.486 -21.135 -18.592  0.00  0.00    +0.015 C 
ATOM     25  C   UNL     1      33.153 -20.469 -19.967  0.00  0.00    +0.001 C 
ATOM     26  C   UNL     1      35.558 -20.380 -19.762  0.00  0.00    +0.001 C 
ATOM     27  C   UNL     1      34.391 -20.047 -20.450  0.00  0.00    +0.000 C 
ENDBRANCH   2  22
TORSDOF 4
ENDMDL
MODEL 4
REMARK VINA RESULT:     -10.1      1.871      5.502
REMARK  Name = 9924495
REMARK  4 active torsions:
REMARK  status: ('A' for Active; 'I' for Inactive)
REMARK    1  A    between atoms: N_2  and  C_22
REMARK    2  A    between atoms: C_3  and  C_14
REMARK    3  A    between atoms: C_4  and  C_9
REMARK    4  A    between atoms: C_15  and  C_21
REMARK                            x       y       z     vdW  Elec       q    Type
REMARK                         _______ _______ _______ _____ _____    ______ ____
ROOT
ATOM      1  O   UNL     1      33.113 -24.261 -14.061  0.00  0.00    -0.269 OA
ATOM      2  N   UNL     1      32.040 -23.221 -15.884  0.00  0.00    -0.233 N 
ATOM      3  C   UNL     1      34.518 -23.355 -15.714  0.00  0.00    +0.055 C 
ATOM      4  C   UNL     1      33.434 -22.102 -17.501  0.00  0.00    +0.033 C 
ATOM      5  C   UNL     1      33.160 -23.677 -15.145  0.00  0.00    +0.257 C 
ATOM      6  C   UNL     1      34.606 -22.602 -16.821  0.00  0.00    +0.007 C 
ATOM      7  C   UNL     1      32.224 -22.437 -17.022  0.00  0.00    +0.074 C 
ENDROOT
BRANCH   4   9
ATOM      8  N   UNL     1      32.328 -20.888 -19.248  0.00  0.00    -0.244 NA
ATOM      9  C   UNL     1      33.511 -21.280 -18.725  0.00  0.00    +0.083 C 
ATOM     10  C   UNL     1      34.744 -20.960 -19.265  0.00  0.00    +0.019 C 
ATOM     11  C   UNL     1      34.766 -20.184 -20.420  0.00  0.00    +0.003 C 
ATOM     12  C   UNL     1      32.389 -20.136 -20.370  0.00  0.00    +0.099 C 
ATOM     13  C   UNL     1      33.571 -19.760 -20.988  0.00  0.00    +0.021 C 
ENDBRANCH   4   9
BRANCH   3  14
ATOM     14  C   UNL     1      35.747 -23.858 -15.074  0.00  0.00    +0.014 C 
ATOM     15  C   UNL     1      36.930 -23.119 -15.064  0.00  0.00    +0.069 C 
ATOM     16  C   UNL     1      35.703 -25.112 -14.465  0.00  0.00    +0.001 C 
ATOM     17  C   UNL     1      38.070 -23.635 -14.447  0.00  0.00    +0.010 C 
ATOM     18  C   UNL     1      36.843 -25.628 -13.847  0.00  0.00    +0.000 C 
ATOM     19  C   UNL     1      38.026 -24.889 -13.837  0.00  0.00    +0.001 C 
BRANCH  15  21
ATOM     20  N   UNL     1      37.078 -20.784 -16.177  0.00  0.00    -0.191 NA
ATOM     21  C   UNL     1      37.013 -21.828 -15.679  0.00  0.00    +0.100 C 
ENDBRANCH  15  21
ENDBRANCH   3  14
BRANCH   2  22
ATOM     22  C   UNL     1      30.702 -23.551 -15.432  0.00  0.00    +0.058 C 
ATOM     23  C   UNL     1      30.494 -24.697 -14.675  0.00  0.00    +0.015 C 
ATOM     24  C   UNL     1      29.641 -22.714 -15.759  0.00  0.00    +0.015 C 
ATOM     25  C   UNL     1      29.207 -25.012 -14.240  0.00  0.00    +0.001 C 
ATOM     26  C   UNL     1      28.354 -23.030 -15.325  0.00  0.00    +0.001 C 
ATOM     27  C   UNL     1      28.137 -24.179 -14.564  0.00  0.00    +0.000 C 
ENDBRANCH   2  22
TORSDOF 4
ENDMDL
MODEL 5
REMARK VINA RESULT:     -10.0      1.678      6.402
REMARK  Name = 9924495
REMARK  4 active torsions:
REMARK  status: ('A' for Active; 'I' for Inactive)
REMARK    1  A    between atoms: N_2  and  C_22
REMARK    2  A    between atoms: C_3  and  C_14
REMARK    3  A    between atoms: C_4  and  C_9
REMARK    4  A    between atoms: C_15  and  C_21
REMARK                            x       y       z     vdW  Elec       q    Type
REMARK                         _______ _______ _______ _____ _____    ______ ____
ROOT
ATOM      1  O   UNL     1      31.574 -22.358 -17.663  0.00  0.00    -0.269 OA
ATOM      2  N   UNL     1      31.935 -23.325 -15.544  0.00  0.00    -0.233 N 
ATOM      3  C   UNL     1      33.797 -22.386 -16.900  0.00  0.00    +0.055 C 
ATOM      4  C   UNL     1      34.217 -23.560 -14.806  0.00  0.00    +0.033 C 
ATOM      5  C   UNL     1      32.325 -22.667 -16.737  0.00  0.00    +0.257 C 
ATOM      6  C   UNL     1      34.658 -22.831 -15.972  0.00  0.00    +0.007 C 
ATOM      7  C   UNL     1      32.900 -23.760 -14.636  0.00  0.00    +0.074 C 
ENDROOT
BRANCH   4   9
ATOM      8  N   UNL     1      34.728 -23.928 -12.493  0.00  0.00    -0.244 NA
ATOM      9  C   UNL     1      35.149 -24.050 -13.771  0.00  0.00    +0.083 C 
ATOM     10  C   UNL     1      36.369 -24.590 -14.140  0.00  0.00    +0.019 C 
ATOM     11  C   UNL     1      37.214 -25.038 -13.129  0.00  0.00    +0.003 C 
ATOM     12  C   UNL     1      35.576 -24.373 -11.538  0.00  0.00    +0.099 C 
ATOM     13  C   UNL     1      36.817 -24.930 -11.802  0.00  0.00    +0.021 C 
ENDBRANCH   4   9
BRANCH   3  14
ATOM     14  C   UNL     1      34.301 -21.628 -18.059  0.00  0.00    +0.014 C 
ATOM     15  C   UNL     1      35.632 -21.226 -18.157  0.00  0.00    +0.069 C 
ATOM     16  C   UNL     1      33.401 -21.314 -19.078  0.00  0.00    +0.001 C 
ATOM     17  C   UNL     1      36.065 -20.510 -19.273  0.00  0.00    +0.010 C 
ATOM     18  C   UNL     1      33.833 -20.598 -20.194  0.00  0.00    +0.000 C 
ATOM     19  C   UNL     1      35.166 -20.196 -20.292  0.00  0.00    +0.001 C 
BRANCH  15  21
ATOM     20  N   UNL     1      37.356 -21.775 -16.302  0.00  0.00    -0.191 NA
ATOM     21  C   UNL     1      36.585 -21.531 -17.131  0.00  0.00    +0.100 C 
ENDBRANCH  15  21
ENDBRANCH   3  14
BRANCH   2  22
ATOM     22  C   UNL     1      30.528 -23.569 -15.289  0.00  0.00    +0.058 C 
ATOM     23  C   UNL     1      29.582 -22.636 -15.696  0.00  0.00    +0.015 C 
ATOM     24  C   UNL     1      30.140 -24.736 -14.641  0.00  0.00    +0.015 C 
ATOM     25  C   UNL     1      28.230 -22.872 -15.451  0.00  0.00    +0.001 C 
ATOM     26  C   UNL     1      28.787 -24.972 -14.395  0.00  0.00    +0.001 C 
ATOM     27  C   UNL     1      27.832 -24.040 -14.801  0.00  0.00    +0.000 C 
ENDBRANCH   2  22
TORSDOF 4
ENDMDL
MODEL 6
REMARK VINA RESULT:      -9.9      1.428      5.636
REMARK  Name = 9924495
REMARK  4 active torsions:
REMARK  status: ('A' for Active; 'I' for Inactive)
REMARK    1  A    between atoms: N_2  and  C_22
REMARK    2  A    between atoms: C_3  and  C_14
REMARK    3  A    between atoms: C_4  and  C_9
REMARK    4  A    between atoms: C_15  and  C_21
REMARK                            x       y       z     vdW  Elec       q    Type
REMARK                         _______ _______ _______ _____ _____    ______ ____
ROOT
ATOM      1  O   UNL     1      31.317 -21.717 -17.802  0.00  0.00    -0.269 OA
ATOM      2  N   UNL     1      33.642 -21.998 -17.539  0.00  0.00    -0.233 N 
ATOM      3  C   UNL     1      32.002 -23.093 -16.023  0.00  0.00    +0.055 C 
ATOM      4  C   UNL     1      34.400 -23.233 -15.613  0.00  0.00    +0.033 C 
ATOM      5  C   UNL     1      32.280 -22.219 -17.220  0.00  0.00    +0.257 C 
ATOM      6  C   UNL     1      33.028 -23.544 -15.286  0.00  0.00    +0.007 C 
ATOM      7  C   UNL     1      34.646 -22.500 -16.711  0.00  0.00    +0.074 C 
ENDROOT
BRANCH   4   9
ATOM      8  N   UNL     1      35.921 -25.002 -15.059  0.00  0.00    -0.244 NA
ATOM      9  C   UNL     1      35.542 -23.727 -14.819  0.00  0.00    +0.083 C 
ATOM     10  C   UNL     1      36.151 -22.896 -13.894  0.00  0.00    +0.019 C 
ATOM     11  C   UNL     1      37.223 -23.407 -13.168  0.00  0.00    +0.003 C 
ATOM     12  C   UNL     1      36.965 -25.464 -14.335  0.00  0.00    +0.099 C 
ATOM     13  C   UNL     1      37.643 -24.713 -13.387  0.00  0.00    +0.021 C 
ENDBRANCH   4   9
BRANCH   3  14
ATOM     14  C   UNL     1      30.623 -23.460 -15.657  0.00  0.00    +0.014 C 
ATOM     15  C   UNL     1      30.319 -24.068 -14.439  0.00  0.00    +0.069 C 
ATOM     16  C   UNL     1      29.605 -23.183 -16.570  0.00  0.00    +0.001 C 
ATOM     17  C   UNL     1      28.999 -24.399 -14.133  0.00  0.00    +0.010 C 
ATOM     18  C   UNL     1      28.285 -23.513 -16.265  0.00  0.00    +0.000 C 
ATOM     19  C   UNL     1      27.982 -24.120 -15.046  0.00  0.00    +0.001 C 
BRANCH  15  21
ATOM     20  N   UNL     1      32.159 -24.611 -12.698  0.00  0.00    -0.191 NA
ATOM     21  C   UNL     1      31.337 -24.368 -13.477  0.00  0.00    +0.100 C 
ENDBRANCH  15  21
ENDBRANCH   3  14
BRANCH   2  22
ATOM     22  C   UNL     1      33.985 -21.221 -18.715  0.00  0.00    +0.058 C 
ATOM     23  C   UNL     1      32.975 -20.697 -19.512  0.00  0.00    +0.015 C 
ATOM     24  C   UNL     1      35.322 -21.007 -19.032  0.00  0.00    +0.015 C 
ATOM     25  C   UNL     1      33.305 -19.949 -20.642  0.00  0.00    +0.001 C 
ATOM     26  C   UNL     1      35.652 -20.260 -20.162  0.00  0.00    +0.001 C 
ATOM     27  C   UNL     1      34.644 -19.731 -20.968  0.00  0.00    +0.000 C 
ENDBRANCH   2  22
TORSDOF 4
ENDMDL
MODEL 7
REMARK VINA RESULT:      -9.8      1.127      5.766
REMARK  Name = 9924495
REMARK  4 active torsions:
REMARK  status: ('A' for Active; 'I' for Inactive)
REMARK    1  A    between atoms: N_2  and  C_22
REMARK    2  A    between atoms: C_3  and  C_14
REMARK    3  A    between atoms: C_4  and  C_9
REMARK    4  A    between atoms: C_15  and  C_21
REMARK                            x       y       z     vdW  Elec       q    Type
REMARK                         _______ _______ _______ _____ _____    ______ ____
ROOT
ATOM      1  O   UNL     1      36.591 -22.169 -16.135  0.00  0.00    -0.269 OA
ATOM      2  N   UNL     1      35.211 -23.415 -14.686  0.00  0.00    -0.233 N 
ATOM      3  C   UNL     1      34.321 -22.310 -16.730  0.00  0.00    +0.055 C 
ATOM      4  C   UNL     1      32.844 -23.421 -15.141  0.00  0.00    +0.033 C 
ATOM      5  C   UNL     1      35.491 -22.637 -15.837  0.00  0.00    +0.257 C 
ATOM      6  C   UNL     1      33.088 -22.688 -16.362  0.00  0.00    +0.007 C 
ATOM      7  C   UNL     1      33.896 -23.759 -14.376  0.00  0.00    +0.074 C 
ENDROOT
BRANCH   4   9
ATOM      8  N   UNL     1      30.527 -23.747 -15.660  0.00  0.00    -0.244 NA
ATOM      9  C   UNL     1      31.495 -23.853 -14.725  0.00  0.00    +0.083 C 
ATOM     10  C   UNL     1      31.288 -24.328 -13.441  0.00  0.00    +0.019 C 
ATOM     11  C   UNL     1      30.000 -24.723 -13.094  0.00  0.00    +0.003 C 
ATOM     12  C   UNL     1      29.287 -24.139 -15.287  0.00  0.00    +0.099 C 
ATOM     13  C   UNL     1      28.976 -24.629 -14.029  0.00  0.00    +0.021 C 
ENDBRANCH   4   9
BRANCH   3  14
ATOM     14  C   UNL     1      34.514 -21.584 -17.998  0.00  0.00    +0.014 C 
ATOM     15  C   UNL     1      33.439 -21.152 -18.773  0.00  0.00    +0.069 C 
ATOM     16  C   UNL     1      35.821 -21.332 -18.417  0.00  0.00    +0.001 C 
ATOM     17  C   UNL     1      33.668 -20.469 -19.967  0.00  0.00    +0.010 C 
ATOM     18  C   UNL     1      36.051 -20.648 -19.610  0.00  0.00    +0.000 C 
ATOM     19  C   UNL     1      34.975 -20.216 -20.385  0.00  0.00    +0.001 C 
BRANCH  15  21
ATOM     20  N   UNL     1      30.988 -21.586 -18.053  0.00  0.00    -0.191 NA
ATOM     21  C   UNL     1      32.083 -21.393 -18.375  0.00  0.00    +0.100 C 
ENDBRANCH  15  21
ENDBRANCH   3  14
BRANCH   2  22
ATOM     22  C   UNL     1      36.298 -23.824 -13.817  0.00  0.00    +0.058 C 
ATOM     23  C   UNL     1      37.013 -24.979 -14.106  0.00  0.00    +0.015 C 
ATOM     24  C   UNL     1      36.614 -23.054 -12.703  0.00  0.00    +0.015 C 
ATOM     25  C   UNL     1      38.058 -25.372 -13.270  0.00  0.00    +0.001 C 
ATOM     26  C   UNL     1      37.659 -23.446 -11.867  0.00  0.00    +0.001 C 
ATOM     27  C   UNL     1      38.381 -24.606 -12.151  0.00  0.00    +0.000 C 
ENDBRANCH   2  22
TORSDOF 4
ENDMDL
