MODEL 1
REMARK VINA RESULT:     -11.2      0.000      0.000
REMARK  Name = 24178120
REMARK  2 active torsions:
REMARK  status: ('A' for Active; 'I' for Inactive)
REMARK    1  A    between atoms: N_2  and  C_16
REMARK    2  A    between atoms: C_4  and  O_22
REMARK                            x       y       z     vdW  Elec       q    Type
REMARK                         _______ _______ _______ _____ _____    ______ ____
ROOT
ATOM      1  O   UNL     1      34.156 -23.652 -12.600  0.00  0.00    -0.288 OA
ATOM      2  N   UNL     1      34.960 -22.122 -16.860  0.00  0.00    -0.264 N 
ATOM      3  N   UNL     1      32.683 -22.799 -16.308  0.00  0.00    -0.392 NA
ATOM      4  C   UNL     1      34.618 -23.482 -14.958  0.00  0.00    +0.204 C 
ATOM      5  C   UNL     1      35.895 -22.668 -14.776  0.00  0.00    +0.065 C 
ATOM      6  C   UNL     1      36.267 -22.251 -16.206  0.00  0.00    +0.101 C 
ATOM      7  C   UNL     1      33.964 -22.758 -16.125  0.00  0.00    +0.195 C 
ATOM      8  C   UNL     1      33.736 -23.610 -13.748  0.00  0.00    +0.207 C 
ATOM      9  C   UNL     1      32.302 -23.769 -14.059  0.00  0.00    +0.063 C 
ATOM     10  C   UNL     1      31.858 -23.409 -15.342  0.00  0.00    +0.117 C 
ATOM     11  C   UNL     1      31.427 -24.293 -13.104  0.00  0.00    +0.005 C 
ATOM     12  C   UNL     1      30.505 -23.596 -15.648  0.00  0.00    +0.081 C 
ATOM     13  C   UNL     1      29.625 -24.128 -14.703  0.00  0.00    -0.037 C 
ATOM     14  C   UNL     1      30.085 -24.472 -13.433  0.00  0.00    -0.008 C 
ATOM     15  C   UNL     1      28.188 -24.321 -15.051  0.00  0.00    +0.027 C 
ENDROOT
BRANCH   2  16
ATOM     16  C   UNL     1      34.812 -21.473 -18.061  0.00  0.00    +0.053 C 
ATOM     17  C   UNL     1      33.550 -21.369 -18.648  0.00  0.00    +0.015 C 
ATOM     18  C   UNL     1      35.924 -20.916 -18.695  0.00  0.00    +0.015 C 
ATOM     19  C   UNL     1      33.400 -20.709 -19.867  0.00  0.00    +0.001 C 
ATOM     20  C   UNL     1      35.772 -20.256 -19.915  0.00  0.00    +0.001 C 
ATOM     21  C   UNL     1      34.511 -20.153 -20.500  0.00  0.00    +0.000 C 
ENDBRANCH   2  16
BRANCH   4  22
ATOM     22  O   UNL     1      34.895 -24.812 -15.365  0.00  0.00    -0.372 OA
ATOM     23  H   UNL     1      35.311 -24.802 -16.241  0.00  0.00    +0.211 HD
ENDBRANCH   4  22
TORSDOF 2
ENDMDL
MODEL 2
REMARK VINA RESULT:     -11.1      2.845      6.878
REMARK  Name = 24178120
REMARK  2 active torsions:
REMARK  status: ('A' for Active; 'I' for Inactive)
REMARK    1  A    between atoms: N_2  and  C_16
REMARK    2  A    between atoms: C_4  and  O_22
REMARK                            x       y       z     vdW  Elec       q    Type
REMARK                         _______ _______ _______ _____ _____    ______ ____
ROOT
ATOM      1  O   UNL     1      31.528 -20.441 -19.438  0.00  0.00    -0.288 OA
ATOM      2  N   UNL     1      34.456 -22.663 -16.676  0.00  0.00    -0.264 N 
ATOM      3  N   UNL     1      35.396 -21.184 -18.372  0.00  0.00    -0.392 NA
ATOM      4  C   UNL     1      33.087 -22.014 -18.490  0.00  0.00    +0.204 C 
ATOM      5  C   UNL     1      32.210 -22.348 -17.287  0.00  0.00    +0.065 C 
ATOM      6  C   UNL     1      33.122 -23.208 -16.401  0.00  0.00    +0.101 C 
ATOM      7  C   UNL     1      34.458 -21.899 -17.839  0.00  0.00    +0.195 C 
ATOM      8  C   UNL     1      32.687 -20.804 -19.285  0.00  0.00    +0.207 C 
ATOM      9  C   UNL     1      33.811 -20.119 -19.953  0.00  0.00    +0.063 C 
ATOM     10  C   UNL     1      35.113 -20.388 -19.500  0.00  0.00    +0.117 C 
ATOM     11  C   UNL     1      33.575 -19.254 -21.024  0.00  0.00    +0.005 C 
ATOM     12  C   UNL     1      36.181 -19.767 -20.158  0.00  0.00    +0.081 C 
ATOM     13  C   UNL     1      35.955 -18.909 -21.236  0.00  0.00    -0.037 C 
ATOM     14  C   UNL     1      34.654 -18.650 -21.666  0.00  0.00    -0.008 C 
ATOM     15  C   UNL     1      37.108 -18.260 -21.925  0.00  0.00    +0.027 C 
ENDROOT
BRANCH   2  16
ATOM     16  C   UNL     1      35.532 -22.936 -15.867  0.00  0.00    +0.053 C 
ATOM     17  C   UNL     1      36.751 -22.296 -16.087  0.00  0.00    +0.015 C 
ATOM     18  C   UNL     1      35.405 -23.855 -14.824  0.00  0.00    +0.015 C 
ATOM     19  C   UNL     1      37.843 -22.573 -15.265  0.00  0.00    +0.001 C 
ATOM     20  C   UNL     1      36.498 -24.132 -14.003  0.00  0.00    +0.001 C 
ATOM     21  C   UNL     1      37.716 -23.491 -14.224  0.00  0.00    +0.000 C 
ENDBRANCH   2  16
BRANCH   4  22
ATOM     22  O   UNL     1      33.131 -23.081 -19.423  0.00  0.00    -0.372 OA
ATOM     23  H   UNL     1      32.229 -23.323 -19.680  0.00  0.00    +0.211 HD
ENDBRANCH   4  22
TORSDOF 2
ENDMDL
MODEL 3
REMARK VINA RESULT:     -10.0     12.125     15.561
REMARK  Name = 24178120
REMARK  2 active torsions:
REMARK  status: ('A' for Active; 'I' for Inactive)
REMARK    1  A    between atoms: N_2  and  C_16
REMARK    2  A    between atoms: C_4  and  O_22
REMARK                            x       y       z     vdW  Elec       q    Type
REMARK                         _______ _______ _______ _____ _____    ______ ____
ROOT
ATOM      1  O   UNL     1      31.502  -7.496 -20.064  0.00  0.00    -0.288 OA
ATOM      2  N   UNL     1      32.151 -11.604 -22.023  0.00  0.00    -0.264 N 
ATOM      3  N   UNL     1      33.036  -9.645 -23.175  0.00  0.00    -0.392 NA
ATOM      4  C   UNL     1      31.319  -9.474 -21.426  0.00  0.00    +0.204 C 
ATOM      5  C   UNL     1      31.171 -10.426 -20.243  0.00  0.00    +0.065 C 
ATOM      6  C   UNL     1      31.249 -11.818 -20.885  0.00  0.00    +0.101 C 
ATOM      7  C   UNL     1      32.278 -10.250 -22.317  0.00  0.00    +0.195 C 
ATOM      8  C   UNL     1      31.780  -8.082 -21.101  0.00  0.00    +0.207 C 
ATOM      9  C   UNL     1      32.539  -7.427 -22.185  0.00  0.00    +0.063 C 
ATOM     10  C   UNL     1      33.080  -8.237 -23.198  0.00  0.00    +0.117 C 
ATOM     11  C   UNL     1      32.681  -6.038 -22.208  0.00  0.00    +0.005 C 
ATOM     12  C   UNL     1      33.767  -7.612 -24.245  0.00  0.00    +0.081 C 
ATOM     13  C   UNL     1      33.905  -6.223 -24.282  0.00  0.00    -0.037 C 
ATOM     14  C   UNL     1      33.367  -5.438 -23.263  0.00  0.00    -0.008 C 
ATOM     15  C   UNL     1      34.639  -5.578 -25.408  0.00  0.00    +0.027 C 
ENDROOT
BRANCH   2  16
ATOM     16  C   UNL     1      32.738 -12.652 -22.689  0.00  0.00    +0.053 C 
ATOM     17  C   UNL     1      33.586 -13.525 -22.008  0.00  0.00    +0.015 C 
ATOM     18  C   UNL     1      32.485 -12.843 -24.049  0.00  0.00    +0.015 C 
ATOM     19  C   UNL     1      34.181 -14.590 -22.685  0.00  0.00    +0.001 C 
ATOM     20  C   UNL     1      33.081 -13.908 -24.725  0.00  0.00    +0.001 C 
ATOM     21  C   UNL     1      33.928 -14.780 -24.044  0.00  0.00    +0.000 C 
ENDBRANCH   2  16
BRANCH   4  22
ATOM     22  O   UNL     1      30.098  -9.313 -22.129  0.00  0.00    -0.372 OA
ATOM     23  H   UNL     1      30.098  -9.885 -22.912  0.00  0.00    +0.211 HD
ENDBRANCH   4  22
TORSDOF 2
ENDMDL
MODEL 4
REMARK VINA RESULT:      -9.9      2.079      6.122
REMARK  Name = 24178120
REMARK  2 active torsions:
REMARK  status: ('A' for Active; 'I' for Inactive)
REMARK    1  A    between atoms: N_2  and  C_16
REMARK    2  A    between atoms: C_4  and  O_22
REMARK                            x       y       z     vdW  Elec       q    Type
REMARK                         _______ _______ _______ _____ _____    ______ ____
ROOT
ATOM      1  O   UNL     1      30.752 -21.679 -17.858  0.00  0.00    -0.288 OA
ATOM      2  N   UNL     1      34.206 -23.248 -15.260  0.00  0.00    -0.264 N 
ATOM      3  N   UNL     1      34.775 -21.907 -17.216  0.00  0.00    -0.392 NA
ATOM      4  C   UNL     1      32.574 -22.964 -16.946  0.00  0.00    +0.204 C 
ATOM      5  C   UNL     1      31.884 -23.229 -15.612  0.00  0.00    +0.065 C 
ATOM      6  C   UNL     1      32.980 -23.881 -14.758  0.00  0.00    +0.101 C 
ATOM      7  C   UNL     1      33.989 -22.637 -16.492  0.00  0.00    +0.195 C 
ATOM      8  C   UNL     1      31.954 -21.906 -17.814  0.00  0.00    +0.207 C 
ATOM      9  C   UNL     1      32.911 -21.204 -18.691  0.00  0.00    +0.063 C 
ATOM     10  C   UNL     1      34.278 -21.288 -18.381  0.00  0.00    +0.117 C 
ATOM     11  C   UNL     1      32.460 -20.506 -19.814  0.00  0.00    +0.005 C 
ATOM     12  C   UNL     1      35.189 -20.654 -19.234  0.00  0.00    +0.081 C 
ATOM     13  C   UNL     1      34.747 -19.962 -20.364  0.00  0.00    -0.037 C 
ATOM     14  C   UNL     1      33.385 -19.885 -20.650  0.00  0.00    -0.008 C 
ATOM     15  C   UNL     1      35.734 -19.296 -21.261  0.00  0.00    +0.027 C 
ENDROOT
BRANCH   2  16
ATOM     16  C   UNL     1      35.391 -23.314 -14.569  0.00  0.00    +0.053 C 
ATOM     17  C   UNL     1      35.479 -22.783 -13.282  0.00  0.00    +0.015 C 
ATOM     18  C   UNL     1      36.508 -23.912 -15.154  0.00  0.00    +0.015 C 
ATOM     19  C   UNL     1      36.682 -22.850 -12.579  0.00  0.00    +0.001 C 
ATOM     20  C   UNL     1      37.711 -23.979 -14.451  0.00  0.00    +0.001 C 
ATOM     21  C   UNL     1      37.797 -23.448 -13.165  0.00  0.00    +0.000 C 
ENDBRANCH   2  16
BRANCH   4  22
ATOM     22  O   UNL     1      32.629 -24.130 -17.752  0.00  0.00    -0.372 OA
ATOM     23  H   UNL     1      32.488 -24.913 -17.198  0.00  0.00    +0.211 HD
ENDBRANCH   4  22
TORSDOF 2
ENDMDL
MODEL 5
REMARK VINA RESULT:      -9.3     14.036     16.645
REMARK  Name = 24178120
REMARK  2 active torsions:
REMARK  status: ('A' for Active; 'I' for Inactive)
REMARK    1  A    between atoms: N_2  and  C_16
REMARK    2  A    between atoms: C_4  and  O_22
REMARK                            x       y       z     vdW  Elec       q    Type
REMARK                         _______ _______ _______ _____ _____    ______ ____
ROOT
ATOM      1  O   UNL     1      30.364  -8.836 -19.214  0.00  0.00    -0.288 OA
ATOM      2  N   UNL     1      32.011  -5.773 -22.221  0.00  0.00    -0.264 N 
ATOM      3  N   UNL     1      32.242  -8.138 -22.769  0.00  0.00    -0.392 NA
ATOM      4  C   UNL     1      31.781  -7.360 -20.485  0.00  0.00    +0.204 C 
ATOM      5  C   UNL     1      31.001  -6.099 -20.126  0.00  0.00    +0.065 C 
ATOM      6  C   UNL     1      31.622  -5.020 -21.023  0.00  0.00    +0.101 C 
ATOM      7  C   UNL     1      32.038  -7.141 -21.969  0.00  0.00    +0.195 C 
ATOM      8  C   UNL     1      31.110  -8.666 -20.169  0.00  0.00    +0.207 C 
ATOM      9  C   UNL     1      31.492  -9.775 -21.065  0.00  0.00    +0.063 C 
ATOM     10  C   UNL     1      32.091  -9.457 -22.295  0.00  0.00    +0.117 C 
ATOM     11  C   UNL     1      31.287 -11.101 -20.675  0.00  0.00    +0.005 C 
ATOM     12  C   UNL     1      32.487 -10.509 -23.128  0.00  0.00    +0.081 C 
ATOM     13  C   UNL     1      32.295 -11.838 -22.742  0.00  0.00    -0.037 C 
ATOM     14  C   UNL     1      31.692 -12.132 -21.520  0.00  0.00    -0.008 C 
ATOM     15  C   UNL     1      32.727 -12.944 -23.643  0.00  0.00    +0.027 C 
ENDROOT
BRANCH   2  16
ATOM     16  C   UNL     1      32.327  -5.145 -23.401  0.00  0.00    +0.053 C 
ATOM     17  C   UNL     1      31.316  -4.605 -24.197  0.00  0.00    +0.015 C 
ATOM     18  C   UNL     1      33.659  -5.047 -23.804  0.00  0.00    +0.015 C 
ATOM     19  C   UNL     1      31.637  -3.967 -25.395  0.00  0.00    +0.001 C 
ATOM     20  C   UNL     1      33.980  -4.409 -25.003  0.00  0.00    +0.001 C 
ATOM     21  C   UNL     1      32.968  -3.870 -25.797  0.00  0.00    +0.000 C 
ENDBRANCH   2  16
BRANCH   4  22
ATOM     22  O   UNL     1      33.035  -7.409 -19.824  0.00  0.00    -0.372 OA
ATOM     23  H   UNL     1      33.033  -8.135 -19.181  0.00  0.00    +0.211 HD
ENDBRANCH   4  22
TORSDOF 2
ENDMDL
MODEL 6
REMARK VINA RESULT:      -9.0      7.252     10.938
REMARK  Name = 24178120
REMARK  2 active torsions:
REMARK  status: ('A' for Active; 'I' for Inactive)
REMARK    1  A    between atoms: N_2  and  C_16
REMARK    2  A    between atoms: C_4  and  O_22
REMARK                            x       y       z     vdW  Elec       q    Type
REMARK                         _______ _______ _______ _____ _____    ______ ____
ROOT
ATOM      1  O   UNL     1      32.399 -14.145 -25.356  0.00  0.00    -0.288 OA
ATOM      2  N   UNL     1      34.449 -17.407 -22.846  0.00  0.00    -0.264 N 
ATOM      3  N   UNL     1      33.658 -15.412 -21.687  0.00  0.00    -0.392 NA
ATOM      4  C   UNL     1      33.987 -15.471 -24.120  0.00  0.00    +0.204 C 
ATOM      5  C   UNL     1      33.827 -16.707 -25.000  0.00  0.00    +0.065 C 
ATOM      6  C   UNL     1      34.618 -17.789 -24.253  0.00  0.00    +0.101 C 
ATOM      7  C   UNL     1      34.008 -16.092 -22.732  0.00  0.00    +0.195 C 
ATOM      8  C   UNL     1      32.950 -14.398 -24.292  0.00  0.00    +0.207 C 
ATOM      9  C   UNL     1      32.700 -13.597 -23.077  0.00  0.00    +0.063 C 
ATOM     10  C   UNL     1      33.118 -14.120 -21.842  0.00  0.00    +0.117 C 
ATOM     11  C   UNL     1      32.091 -12.343 -23.170  0.00  0.00    +0.005 C 
ATOM     12  C   UNL     1      32.915 -13.344 -20.695  0.00  0.00    +0.081 C 
ATOM     13  C   UNL     1      32.316 -12.085 -20.780  0.00  0.00    -0.037 C 
ATOM     14  C   UNL     1      31.902 -11.588 -22.015  0.00  0.00    -0.008 C 
ATOM     15  C   UNL     1      32.111 -11.274 -19.546  0.00  0.00    +0.027 C 
ENDROOT
BRANCH   2  16
ATOM     16  C   UNL     1      34.738 -18.272 -21.820  0.00  0.00    +0.053 C 
ATOM     17  C   UNL     1      33.764 -19.157 -21.357  0.00  0.00    +0.015 C 
ATOM     18  C   UNL     1      36.008 -18.268 -21.239  0.00  0.00    +0.015 C 
ATOM     19  C   UNL     1      34.057 -20.036 -20.315  0.00  0.00    +0.001 C 
ATOM     20  C   UNL     1      36.301 -19.148 -20.197  0.00  0.00    +0.001 C 
ATOM     21  C   UNL     1      35.326 -20.031 -19.736  0.00  0.00    +0.000 C 
ENDBRANCH   2  16
BRANCH   4  22
ATOM     22  O   UNL     1      35.233 -14.829 -24.335  0.00  0.00    -0.372 OA
ATOM     23  H   UNL     1      35.114 -13.868 -24.290  0.00  0.00    +0.211 HD
ENDBRANCH   4  22
TORSDOF 2
ENDMDL
MODEL 7
REMARK VINA RESULT:      -9.0      2.117      5.424
REMARK  Name = 24178120
REMARK  2 active torsions:
REMARK  status: ('A' for Active; 'I' for Inactive)
REMARK    1  A    between atoms: N_2  and  C_16
REMARK    2  A    between atoms: C_4  and  O_22
REMARK                            x       y       z     vdW  Elec       q    Type
REMARK                         _______ _______ _______ _____ _____    ______ ____
ROOT
ATOM      1  O   UNL     1      36.579 -21.940 -15.441  0.00  0.00    -0.288 OA
ATOM      2  N   UNL     1      32.148 -23.059 -15.937  0.00  0.00    -0.264 N 
ATOM      3  N   UNL     1      33.152 -23.350 -13.734  0.00  0.00    -0.392 NA
ATOM      4  C   UNL     1      34.504 -23.118 -15.772  0.00  0.00    +0.204 C 
ATOM      5  C   UNL     1      34.104 -22.320 -17.008  0.00  0.00    +0.065 C 
ATOM      6  C   UNL     1      32.663 -22.773 -17.282  0.00  0.00    +0.101 C 
ATOM      7  C   UNL     1      33.185 -23.189 -15.018  0.00  0.00    +0.195 C 
ATOM      8  C   UNL     1      35.639 -22.559 -14.962  0.00  0.00    +0.207 C 
ATOM      9  C   UNL     1      35.579 -22.892 -13.524  0.00  0.00    +0.063 C 
ATOM     10  C   UNL     1      34.352 -23.325 -12.996  0.00  0.00    +0.117 C 
ATOM     11  C   UNL     1      36.725 -22.804 -12.731  0.00  0.00    +0.005 C 
ATOM     12  C   UNL     1      34.305 -23.677 -11.642  0.00  0.00    +0.081 C 
ATOM     13  C   UNL     1      35.448 -23.601 -10.843  0.00  0.00    -0.037 C 
ATOM     14  C   UNL     1      36.654 -23.162 -11.386  0.00  0.00    -0.008 C 
ATOM     15  C   UNL     1      35.376 -23.983  -9.404  0.00  0.00    +0.027 C 
ENDROOT
BRANCH   2  16
ATOM     16  C   UNL     1      30.804 -23.201 -15.691  0.00  0.00    +0.053 C 
ATOM     17  C   UNL     1      29.899 -22.270 -16.200  0.00  0.00    +0.015 C 
ATOM     18  C   UNL     1      30.344 -24.278 -14.932  0.00  0.00    +0.015 C 
ATOM     19  C   UNL     1      28.535 -22.414 -15.951  0.00  0.00    +0.001 C 
ATOM     20  C   UNL     1      28.979 -24.422 -14.683  0.00  0.00    +0.001 C 
ATOM     21  C   UNL     1      28.075 -23.490 -15.192  0.00  0.00    +0.000 C 
ENDBRANCH   2  16
BRANCH   4  22
ATOM     22  O   UNL     1      34.893 -24.442 -16.102  0.00  0.00    -0.372 OA
ATOM     23  H   UNL     1      34.290 -24.798 -16.772  0.00  0.00    +0.211 HD
ENDBRANCH   4  22
TORSDOF 2
ENDMDL
MODEL 8
REMARK VINA RESULT:      -8.8     13.834     17.312
REMARK  Name = 24178120
REMARK  2 active torsions:
REMARK  status: ('A' for Active; 'I' for Inactive)
REMARK    1  A    between atoms: N_2  and  C_16
REMARK    2  A    between atoms: C_4  and  O_22
REMARK                            x       y       z     vdW  Elec       q    Type
REMARK                         _______ _______ _______ _____ _____    ______ ____
ROOT
ATOM      1  O   UNL     1      32.055  -4.880 -21.237  0.00  0.00    -0.288 OA
ATOM      2  N   UNL     1      31.815  -9.437 -21.797  0.00  0.00    -0.264 N 
ATOM      3  N   UNL     1      32.970  -8.143 -23.511  0.00  0.00    -0.392 NA
ATOM      4  C   UNL     1      31.427  -7.108 -21.904  0.00  0.00    +0.204 C 
ATOM      5  C   UNL     1      31.181  -7.598 -20.481  0.00  0.00    +0.065 C 
ATOM      6  C   UNL     1      30.962  -9.108 -20.649  0.00  0.00    +0.101 C 
ATOM      7  C   UNL     1      32.170  -8.292 -22.505  0.00  0.00    +0.195 C 
ATOM      8  C   UNL     1      32.155  -5.801 -22.037  0.00  0.00    +0.207 C 
ATOM      9  C   UNL     1      32.952  -5.675 -23.273  0.00  0.00    +0.063 C 
ATOM     10  C   UNL     1      33.270  -6.848 -23.978  0.00  0.00    +0.117 C 
ATOM     11  C   UNL     1      33.345  -4.417 -23.735  0.00  0.00    +0.005 C 
ATOM     12  C   UNL     1      33.993  -6.724 -25.170  0.00  0.00    +0.081 C 
ATOM     13  C   UNL     1      34.382  -5.470 -25.645  0.00  0.00    -0.037 C 
ATOM     14  C   UNL     1      34.062  -4.319 -24.926  0.00  0.00    -0.008 C 
ATOM     15  C   UNL     1      35.150  -5.361 -26.918  0.00  0.00    +0.027 C 
ENDROOT
BRANCH   2  16
ATOM     16  C   UNL     1      32.156 -10.733 -22.099  0.00  0.00    +0.053 C 
ATOM     17  C   UNL     1      32.819 -11.020 -23.292  0.00  0.00    +0.015 C 
ATOM     18  C   UNL     1      31.839 -11.763 -21.212  0.00  0.00    +0.015 C 
ATOM     19  C   UNL     1      33.166 -12.336 -23.599  0.00  0.00    +0.001 C 
ATOM     20  C   UNL     1      32.186 -13.079 -21.519  0.00  0.00    +0.001 C 
ATOM     21  C   UNL     1      32.849 -13.364 -22.712  0.00  0.00    +0.000 C 
ENDBRANCH   2  16
BRANCH   4  22
ATOM     22  O   UNL     1      30.215  -6.940 -22.620  0.00  0.00    -0.372 OA
ATOM     23  H   UNL     1      29.907  -7.801 -22.942  0.00  0.00    +0.211 HD
ENDBRANCH   4  22
TORSDOF 2
ENDMDL
MODEL 9
REMARK VINA RESULT:      -8.6      2.473      5.082
REMARK  Name = 24178120
REMARK  2 active torsions:
REMARK  status: ('A' for Active; 'I' for Inactive)
REMARK    1  A    between atoms: N_2  and  C_16
REMARK    2  A    between atoms: C_4  and  O_22
REMARK                            x       y       z     vdW  Elec       q    Type
REMARK                         _______ _______ _______ _____ _____    ______ ____
ROOT
ATOM      1  O   UNL     1      31.552 -22.661 -13.315  0.00  0.00    -0.288 OA
ATOM      2  N   UNL     1      35.858 -24.260 -13.521  0.00  0.00    -0.264 N 
ATOM      3  N   UNL     1      34.875 -23.380 -15.572  0.00  0.00    -0.392 NA
ATOM      4  C   UNL     1      33.509 -24.029 -13.636  0.00  0.00    +0.204 C 
ATOM      5  C   UNL     1      33.954 -23.952 -12.180  0.00  0.00    +0.065 C 
ATOM      6  C   UNL     1      35.344 -24.605 -12.190  0.00  0.00    +0.101 C 
ATOM      7  C   UNL     1      34.832 -23.846 -14.365  0.00  0.00    +0.195 C 
ATOM      8  C   UNL     1      32.443 -23.056 -14.055  0.00  0.00    +0.207 C 
ATOM      9  C   UNL     1      32.502 -22.669 -15.478  0.00  0.00    +0.063 C 
ATOM     10  C   UNL     1      33.696 -22.903 -16.179  0.00  0.00    +0.117 C 
ATOM     11  C   UNL     1      31.384 -22.115 -16.106  0.00  0.00    +0.005 C 
ATOM     12  C   UNL     1      33.739 -22.571 -17.538  0.00  0.00    +0.081 C 
ATOM     13  C   UNL     1      32.622 -22.026 -18.177  0.00  0.00    -0.037 C 
ATOM     14  C   UNL     1      31.449 -21.795 -17.461  0.00  0.00    -0.008 C 
ATOM     15  C   UNL     1      32.689 -21.682 -19.626  0.00  0.00    +0.027 C 
ENDROOT
BRANCH   2  16
ATOM     16  C   UNL     1      37.188 -24.384 -13.838  0.00  0.00    +0.053 C 
ATOM     17  C   UNL     1      37.978 -25.327 -13.180  0.00  0.00    +0.015 C 
ATOM     18  C   UNL     1      37.750 -23.566 -14.819  0.00  0.00    +0.015 C 
ATOM     19  C   UNL     1      39.329 -25.453 -13.502  0.00  0.00    +0.001 C 
ATOM     20  C   UNL     1      39.102 -23.693 -15.141  0.00  0.00    +0.001 C 
ATOM     21  C   UNL     1      39.890 -24.635 -14.482  0.00  0.00    +0.000 C 
ENDBRANCH   2  16
BRANCH   4  22
ATOM     22  O   UNL     1      32.999 -25.311 -13.965  0.00  0.00    -0.372 OA
ATOM     23  H   UNL     1      33.454 -25.648 -14.752  0.00  0.00    +0.211 HD
ENDBRANCH   4  22
TORSDOF 2
ENDMDL
