MODEL 1
REMARK VINA RESULT:     -11.1      0.000      0.000
REMARK  Name = 36846
REMARK  3 active torsions:
REMARK  status: ('A' for Active; 'I' for Inactive)
REMARK    1  A    between atoms: C_10  and  C_20
REMARK    2  A    between atoms: C_20  and  C_21
REMARK    3  A    between atoms: C_21  and  N_22
REMARK                            x       y       z     vdW  Elec       q    Type
REMARK                         _______ _______ _______ _____ _____    ______ ____
ROOT
ATOM      1  O   UNL     1      32.113 -24.107 -14.272  0.00  0.00    -0.454 OA
ATOM      2  O   UNL     1      33.477 -22.749 -18.061  0.00  0.00    -0.471 OA
ATOM      3  C   UNL     1      31.919 -22.980 -16.201  0.00  0.00    +0.059 A 
ATOM      4  C   UNL     1      32.831 -23.488 -15.273  0.00  0.00    +0.145 A 
ATOM      5  C   UNL     1      34.266 -23.405 -15.308  0.00  0.00    +0.033 C 
ATOM      6  C   UNL     1      30.609 -23.294 -15.732  0.00  0.00    +0.037 A 
ATOM      7  C   UNL     1      32.276 -22.247 -17.448  0.00  0.00    +0.235 C 
ATOM      8  C   UNL     1      35.020 -22.468 -16.191  0.00  0.00    +0.037 C 
ATOM      9  C   UNL     1      30.790 -23.986 -14.547  0.00  0.00    +0.145 A 
ATOM     10  C   UNL     1      34.951 -24.262 -14.528  0.00  0.00    -0.025 C 
ATOM     11  C   UNL     1      34.597 -22.179 -17.504  0.00  0.00    +0.139 C 
ATOM     12  C   UNL     1      29.294 -23.070 -16.182  0.00  0.00    +0.003 C 
ATOM     13  C   UNL     1      36.176 -21.816 -15.725  0.00  0.00    +0.003 C 
ATOM     14  C   UNL     1      29.751 -24.483 -13.761  0.00  0.00    +0.037 C 
ATOM     15  C   UNL     1      35.338 -21.334 -18.338  0.00  0.00    +0.037 C 
ATOM     16  C   UNL     1      28.226 -23.556 -15.414  0.00  0.00    +0.000 C 
ATOM     17  C   UNL     1      28.454 -24.250 -14.225  0.00  0.00    +0.003 C 
ATOM     18  C   UNL     1      36.903 -20.952 -16.549  0.00  0.00    +0.000 C 
ATOM     19  C   UNL     1      36.490 -20.719 -17.858  0.00  0.00    +0.003 C 
ENDROOT
BRANCH  10  20
ATOM     20  C   UNL     1      36.444 -24.338 -14.489  0.00  0.00    +0.003 C 
BRANCH  20  21
ATOM     21  C   UNL     1      36.920 -25.789 -14.546  0.00  0.00    -0.073 C 
BRANCH  21  22
ATOM     22  N   UNL     1      37.951 -26.023 -13.542  0.00  0.00    +0.384 N 
ATOM     23  C   UNL     1      37.514 -25.542 -12.231  0.00  0.00    -0.101 C 
ATOM     24  C   UNL     1      39.204 -25.373 -13.929  0.00  0.00    -0.101 C 
ATOM     25  H   UNL     1      38.115 -27.028 -13.481  0.00  0.00    -0.080 HD
ENDBRANCH  21  22
ENDBRANCH  20  21
ENDBRANCH  10  20
TORSDOF 3
ENDMDL
MODEL 2
REMARK VINA RESULT:     -10.4      2.461      6.004
REMARK  Name = 36846
REMARK  3 active torsions:
REMARK  status: ('A' for Active; 'I' for Inactive)
REMARK    1  A    between atoms: C_10  and  C_20
REMARK    2  A    between atoms: C_20  and  C_21
REMARK    3  A    between atoms: C_21  and  N_22
REMARK                            x       y       z     vdW  Elec       q    Type
REMARK                         _______ _______ _______ _____ _____    ______ ____
ROOT
ATOM      1  O   UNL     1      33.300 -22.312 -16.907  0.00  0.00    -0.454 OA
ATOM      2  O   UNL     1      36.899 -23.603 -15.051  0.00  0.00    -0.471 OA
ATOM      3  C   UNL     1      35.499 -22.208 -16.477  0.00  0.00    +0.059 A 
ATOM      4  C   UNL     1      34.266 -22.630 -15.975  0.00  0.00    +0.145 A 
ATOM      5  C   UNL     1      33.997 -23.279 -14.721  0.00  0.00    +0.033 C 
ATOM      6  C   UNL     1      35.262 -21.604 -17.747  0.00  0.00    +0.037 A 
ATOM      7  C   UNL     1      36.811 -22.372 -15.790  0.00  0.00    +0.235 C 
ATOM      8  C   UNL     1      34.967 -23.324 -13.587  0.00  0.00    +0.037 C 
ATOM      9  C   UNL     1      33.897 -21.698 -17.959  0.00  0.00    +0.145 A 
ATOM     10  C   UNL     1      32.819 -23.921 -14.599  0.00  0.00    -0.025 C 
ATOM     11  C   UNL     1      36.352 -23.473 -13.796  0.00  0.00    +0.139 C 
ATOM     12  C   UNL     1      36.053 -20.992 -18.738  0.00  0.00    +0.003 C 
ATOM     13  C   UNL     1      34.523 -23.188 -12.259  0.00  0.00    +0.003 C 
ATOM     14  C   UNL     1      33.244 -21.225 -19.097  0.00  0.00    +0.037 C 
ATOM     15  C   UNL     1      37.245 -23.559 -12.723  0.00  0.00    +0.037 C 
ATOM     16  C   UNL     1      35.427 -20.505 -19.895  0.00  0.00    +0.000 C 
ATOM     17  C   UNL     1      34.047 -20.621 -20.068  0.00  0.00    +0.003 C 
ATOM     18  C   UNL     1      35.419 -23.248 -11.186  0.00  0.00    +0.000 C 
ATOM     19  C   UNL     1      36.777 -23.443 -11.418  0.00  0.00    +0.003 C 
ENDROOT
BRANCH  10  20
ATOM     20  C   UNL     1      32.413 -24.687 -13.381  0.00  0.00    +0.003 C 
BRANCH  20  21
ATOM     21  C   UNL     1      30.920 -24.516 -13.100  0.00  0.00    -0.073 C 
BRANCH  21  22
ATOM     22  N   UNL     1      30.217 -24.130 -14.317  0.00  0.00    +0.384 N 
ATOM     23  C   UNL     1      29.712 -22.761 -14.210  0.00  0.00    -0.101 C 
ATOM     24  C   UNL     1      29.117 -25.056 -14.593  0.00  0.00    -0.101 C 
ATOM     25  H   UNL     1      30.877 -24.172 -15.094  0.00  0.00    -0.080 HD
ENDBRANCH  21  22
ENDBRANCH  20  21
ENDBRANCH  10  20
TORSDOF 3
ENDMDL
MODEL 3
REMARK VINA RESULT:     -10.3      2.918      6.812
REMARK  Name = 36846
REMARK  3 active torsions:
REMARK  status: ('A' for Active; 'I' for Inactive)
REMARK    1  A    between atoms: C_10  and  C_20
REMARK    2  A    between atoms: C_20  and  C_21
REMARK    3  A    between atoms: C_21  and  N_22
REMARK                            x       y       z     vdW  Elec       q    Type
REMARK                         _______ _______ _______ _____ _____    ______ ____
ROOT
ATOM      1  O   UNL     1      31.903 -21.564 -18.352  0.00  0.00    -0.454 OA
ATOM      2  O   UNL     1      34.765 -23.739 -16.085  0.00  0.00    -0.471 OA
ATOM      3  C   UNL     1      33.954 -21.953 -17.531  0.00  0.00    +0.059 A 
ATOM      4  C   UNL     1      32.590 -22.163 -17.317  0.00  0.00    +0.145 A 
ATOM      5  C   UNL     1      31.963 -22.866 -16.230  0.00  0.00    +0.033 C 
ATOM      6  C   UNL     1      34.088 -21.190 -18.729  0.00  0.00    +0.037 A 
ATOM      7  C   UNL     1      35.050 -22.449 -16.652  0.00  0.00    +0.235 C 
ATOM      8  C   UNL     1      32.663 -23.219 -14.960  0.00  0.00    +0.037 C 
ATOM      9  C   UNL     1      32.799 -20.983 -19.189  0.00  0.00    +0.145 A 
ATOM     10  C   UNL     1      30.689 -23.262 -16.407  0.00  0.00    -0.025 C 
ATOM     11  C   UNL     1      34.011 -23.625 -14.940  0.00  0.00    +0.139 C 
ATOM     12  C   UNL     1      35.158 -20.657 -19.472  0.00  0.00    +0.003 C 
ATOM     13  C   UNL     1      31.995 -23.128 -13.724  0.00  0.00    +0.003 C 
ATOM     14  C   UNL     1      32.483 -20.277 -20.349  0.00  0.00    +0.037 C 
ATOM     15  C   UNL     1      34.642 -23.998 -13.748  0.00  0.00    +0.037 C 
ATOM     16  C   UNL     1      34.875 -19.941 -20.643  0.00  0.00    +0.000 C 
ATOM     17  C   UNL     1      33.559 -19.755 -21.071  0.00  0.00    +0.003 C 
ATOM     18  C   UNL     1      32.632 -23.476 -12.529  0.00  0.00    +0.000 C 
ATOM     19  C   UNL     1      33.952 -23.920 -12.542  0.00  0.00    +0.003 C 
ENDROOT
BRANCH  10  20
ATOM     20  C   UNL     1      29.915 -24.047 -15.395  0.00  0.00    +0.003 C 
BRANCH  20  21
ATOM     21  C   UNL     1      28.412 -23.938 -15.651  0.00  0.00    -0.073 C 
BRANCH  21  22
ATOM     22  N   UNL     1      28.071 -22.592 -16.097  0.00  0.00    +0.384 N 
ATOM     23  C   UNL     1      27.597 -21.781 -14.975  0.00  0.00    -0.101 C 
ATOM     24  C   UNL     1      27.057 -22.641 -17.152  0.00  0.00    -0.101 C 
ATOM     25  H   UNL     1      28.913 -22.159 -16.477  0.00  0.00    -0.080 HD
ENDBRANCH  21  22
ENDBRANCH  20  21
ENDBRANCH  10  20
TORSDOF 3
ENDMDL
MODEL 4
REMARK VINA RESULT:     -10.3      2.635      6.519
REMARK  Name = 36846
REMARK  3 active torsions:
REMARK  status: ('A' for Active; 'I' for Inactive)
REMARK    1  A    between atoms: C_10  and  C_20
REMARK    2  A    between atoms: C_20  and  C_21
REMARK    3  A    between atoms: C_21  and  N_22
REMARK                            x       y       z     vdW  Elec       q    Type
REMARK                         _______ _______ _______ _____ _____    ______ ____
ROOT
ATOM      1  O   UNL     1      34.961 -22.675 -14.408  0.00  0.00    -0.454 OA
ATOM      2  O   UNL     1      31.459 -25.054 -14.030  0.00  0.00    -0.471 OA
ATOM      3  C   UNL     1      33.380 -23.771 -13.254  0.00  0.00    +0.059 A 
ATOM      4  C   UNL     1      33.660 -23.129 -14.463  0.00  0.00    +0.145 A 
ATOM      5  C   UNL     1      32.785 -22.945 -15.589  0.00  0.00    +0.033 C 
ATOM      6  C   UNL     1      34.550 -23.687 -12.442  0.00  0.00    +0.037 A 
ATOM      7  C   UNL     1      32.086 -24.420 -12.902  0.00  0.00    +0.235 C 
ATOM      8  C   UNL     1      31.306 -23.133 -15.528  0.00  0.00    +0.037 C 
ATOM      9  C   UNL     1      35.486 -23.007 -13.202  0.00  0.00    +0.145 A 
ATOM     10  C   UNL     1      33.357 -22.635 -16.768  0.00  0.00    -0.025 C 
ATOM     11  C   UNL     1      30.716 -24.156 -14.759  0.00  0.00    +0.139 C 
ATOM     12  C   UNL     1      34.917 -24.113 -11.152  0.00  0.00    +0.003 C 
ATOM     13  C   UNL     1      30.443 -22.266 -16.223  0.00  0.00    +0.003 C 
ATOM     14  C   UNL     1      36.780 -22.712 -12.775  0.00  0.00    +0.037 C 
ATOM     15  C   UNL     1      29.330 -24.349 -14.747  0.00  0.00    +0.037 C 
ATOM     16  C   UNL     1      36.211 -23.833 -10.692  0.00  0.00    +0.000 C 
ATOM     17  C   UNL     1      37.125 -23.143 -11.492  0.00  0.00    +0.003 C 
ATOM     18  C   UNL     1      29.057 -22.443 -16.191  0.00  0.00    +0.000 C 
ATOM     19  C   UNL     1      28.501 -23.490 -15.461  0.00  0.00    +0.003 C 
ENDROOT
BRANCH  10  20
ATOM     20  C   UNL     1      32.592 -22.462 -18.041  0.00  0.00    +0.003 C 
BRANCH  20  21
ATOM     21  C   UNL     1      33.538 -22.268 -19.226  0.00  0.00    -0.073 C 
BRANCH  21  22
ATOM     22  N   UNL     1      34.059 -20.906 -19.239  0.00  0.00    +0.384 N 
ATOM     23  C   UNL     1      33.343 -20.089 -20.220  0.00  0.00    -0.101 C 
ATOM     24  C   UNL     1      35.493 -20.906 -19.529  0.00  0.00    -0.101 C 
ATOM     25  H   UNL     1      33.916 -20.501 -18.314  0.00  0.00    -0.080 HD
ENDBRANCH  21  22
ENDBRANCH  20  21
ENDBRANCH  10  20
TORSDOF 3
ENDMDL
MODEL 5
REMARK VINA RESULT:     -10.2      2.387      6.279
REMARK  Name = 36846
REMARK  3 active torsions:
REMARK  status: ('A' for Active; 'I' for Inactive)
REMARK    1  A    between atoms: C_10  and  C_20
REMARK    2  A    between atoms: C_20  and  C_21
REMARK    3  A    between atoms: C_21  and  N_22
REMARK                            x       y       z     vdW  Elec       q    Type
REMARK                         _______ _______ _______ _____ _____    ______ ____
ROOT
ATOM      1  O   UNL     1      34.892 -24.278 -14.048  0.00  0.00    -0.454 OA
ATOM      2  O   UNL     1      36.304 -21.175 -16.586  0.00  0.00    -0.471 OA
ATOM      3  C   UNL     1      36.453 -23.209 -15.252  0.00  0.00    +0.059 A 
ATOM      4  C   UNL     1      35.081 -23.431 -15.120  0.00  0.00    +0.145 A 
ATOM      5  C   UNL     1      34.018 -22.900 -15.930  0.00  0.00    +0.033 C 
ATOM      6  C   UNL     1      37.110 -23.959 -14.232  0.00  0.00    +0.037 A 
ATOM      7  C   UNL     1      37.091 -22.339 -16.280  0.00  0.00    +0.235 C 
ATOM      8  C   UNL     1      34.230 -22.268 -17.265  0.00  0.00    +0.037 C 
ATOM      9  C   UNL     1      36.103 -24.593 -13.524  0.00  0.00    +0.145 A 
ATOM     10  C   UNL     1      32.774 -22.941 -15.416  0.00  0.00    -0.025 C 
ATOM     11  C   UNL     1      35.348 -21.453 -17.534  0.00  0.00    +0.139 C 
ATOM     12  C   UNL     1      38.443 -24.168 -13.831  0.00  0.00    +0.003 C 
ATOM     13  C   UNL     1      33.323 -22.492 -18.317  0.00  0.00    +0.003 C 
ATOM     14  C   UNL     1      36.318 -25.431 -12.431  0.00  0.00    +0.037 C 
ATOM     15  C   UNL     1      35.511 -20.829 -18.776  0.00  0.00    +0.037 C 
ATOM     16  C   UNL     1      38.694 -25.006 -12.736  0.00  0.00    +0.000 C 
ATOM     17  C   UNL     1      37.648 -25.626 -12.050  0.00  0.00    +0.003 C 
ATOM     18  C   UNL     1      33.500 -21.889 -19.567  0.00  0.00    +0.000 C 
ATOM     19  C   UNL     1      34.588 -21.051 -19.792  0.00  0.00    +0.003 C 
ENDROOT
BRANCH  10  20
ATOM     20  C   UNL     1      31.571 -22.384 -16.109  0.00  0.00    +0.003 C 
BRANCH  20  21
ATOM     21  C   UNL     1      30.330 -22.494 -15.224  0.00  0.00    -0.073 C 
BRANCH  21  22
ATOM     22  N   UNL     1      29.280 -23.233 -15.915  0.00  0.00    +0.384 N 
ATOM     23  C   UNL     1      28.171 -22.345 -16.269  0.00  0.00    -0.101 C 
ATOM     24  C   UNL     1      28.799 -24.340 -15.088  0.00  0.00    -0.101 C 
ATOM     25  H   UNL     1      29.673 -23.618 -16.774  0.00  0.00    -0.080 HD
ENDBRANCH  21  22
ENDBRANCH  20  21
ENDBRANCH  10  20
TORSDOF 3
ENDMDL
MODEL 6
REMARK VINA RESULT:      -9.5      1.764      5.421
REMARK  Name = 36846
REMARK  3 active torsions:
REMARK  status: ('A' for Active; 'I' for Inactive)
REMARK    1  A    between atoms: C_10  and  C_20
REMARK    2  A    between atoms: C_20  and  C_21
REMARK    3  A    between atoms: C_21  and  N_22
REMARK                            x       y       z     vdW  Elec       q    Type
REMARK                         _______ _______ _______ _____ _____    ______ ____
ROOT
ATOM      1  O   UNL     1      34.458 -22.376 -16.727  0.00  0.00    -0.454 OA
ATOM      2  O   UNL     1      30.298 -21.807 -16.070  0.00  0.00    -0.471 OA
ATOM      3  C   UNL     1      32.341 -22.033 -17.381  0.00  0.00    +0.059 A 
ATOM      4  C   UNL     1      33.141 -22.561 -16.365  0.00  0.00    +0.145 A 
ATOM      5  C   UNL     1      32.717 -23.196 -15.146  0.00  0.00    +0.033 C 
ATOM      6  C   UNL     1      33.209 -21.526 -18.392  0.00  0.00    +0.037 A 
ATOM      7  C   UNL     1      30.851 -22.013 -17.382  0.00  0.00    +0.235 C 
ATOM      8  C   UNL     1      31.329 -23.690 -14.909  0.00  0.00    +0.037 C 
ATOM      9  C   UNL     1      34.495 -21.762 -17.936  0.00  0.00    +0.145 A 
ATOM     10  C   UNL     1      33.625 -23.297 -14.157  0.00  0.00    -0.025 C 
ATOM     11  C   UNL     1      30.199 -22.992 -15.379  0.00  0.00    +0.139 C 
ATOM     12  C   UNL     1      33.047 -20.892 -19.638  0.00  0.00    +0.003 C 
ATOM     13  C   UNL     1      31.105 -24.898 -14.223  0.00  0.00    +0.003 C 
ATOM     14  C   UNL     1      35.652 -21.413 -18.631  0.00  0.00    +0.037 C 
ATOM     15  C   UNL     1      28.902 -23.442 -15.110  0.00  0.00    +0.037 C 
ATOM     16  C   UNL     1      34.190 -20.528 -20.363  0.00  0.00    +0.000 C 
ATOM     17  C   UNL     1      35.469 -20.786 -19.866  0.00  0.00    +0.003 C 
ATOM     18  C   UNL     1      29.809 -25.361 -13.976  0.00  0.00    +0.000 C 
ATOM     19  C   UNL     1      28.708 -24.629 -14.410  0.00  0.00    +0.003 C 
ENDROOT
BRANCH  10  20
ATOM     20  C   UNL     1      33.328 -23.882 -12.813  0.00  0.00    +0.003 C 
BRANCH  20  21
ATOM     21  C   UNL     1      34.573 -23.879 -11.927  0.00  0.00    -0.073 C 
BRANCH  21  22
ATOM     22  N   UNL     1      35.778 -23.817 -12.747  0.00  0.00    +0.384 N 
ATOM     23  C   UNL     1      36.465 -25.110 -12.752  0.00  0.00    -0.101 C 
ATOM     24  C   UNL     1      36.675 -22.766 -12.266  0.00  0.00    -0.101 C 
ATOM     25  H   UNL     1      35.501 -23.594 -13.704  0.00  0.00    -0.080 HD
ENDBRANCH  21  22
ENDBRANCH  20  21
ENDBRANCH  10  20
TORSDOF 3
ENDMDL
MODEL 7
REMARK VINA RESULT:      -9.2      2.167      4.586
REMARK  Name = 36846
REMARK  3 active torsions:
REMARK  status: ('A' for Active; 'I' for Inactive)
REMARK    1  A    between atoms: C_10  and  C_20
REMARK    2  A    between atoms: C_20  and  C_21
REMARK    3  A    between atoms: C_21  and  N_22
REMARK                            x       y       z     vdW  Elec       q    Type
REMARK                         _______ _______ _______ _____ _____    ______ ____
ROOT
ATOM      1  O   UNL     1      32.332 -23.066 -15.742  0.00  0.00    -0.454 OA
ATOM      2  O   UNL     1      34.800 -23.191 -12.284  0.00  0.00    -0.471 OA
ATOM      3  C   UNL     1      32.923 -23.810 -13.710  0.00  0.00    +0.059 A 
ATOM      4  C   UNL     1      33.402 -23.231 -14.887  0.00  0.00    +0.145 A 
ATOM      5  C   UNL     1      34.754 -22.860 -15.203  0.00  0.00    +0.033 C 
ATOM      6  C   UNL     1      31.519 -24.010 -13.869  0.00  0.00    +0.037 A 
ATOM      7  C   UNL     1      33.749 -24.145 -12.516  0.00  0.00    +0.235 C 
ATOM      8  C   UNL     1      35.944 -23.333 -14.435  0.00  0.00    +0.037 C 
ATOM      9  C   UNL     1      31.213 -23.534 -15.133  0.00  0.00    +0.145 A 
ATOM     10  C   UNL     1      34.934 -21.998 -16.221  0.00  0.00    -0.025 C 
ATOM     11  C   UNL     1      35.914 -23.483 -13.034  0.00  0.00    +0.139 C 
ATOM     12  C   UNL     1      30.479 -24.538 -13.083  0.00  0.00    +0.003 C 
ATOM     13  C   UNL     1      37.137 -23.673 -15.098  0.00  0.00    +0.003 C 
ATOM     14  C   UNL     1      29.934 -23.540 -15.686  0.00  0.00    +0.037 C 
ATOM     15  C   UNL     1      37.050 -23.883 -12.322  0.00  0.00    +0.037 C 
ATOM     16  C   UNL     1      29.180 -24.560 -13.610  0.00  0.00    +0.000 C 
ATOM     17  C   UNL     1      28.915 -24.069 -14.890  0.00  0.00    +0.003 C 
ATOM     18  C   UNL     1      38.265 -24.097 -14.389  0.00  0.00    +0.000 C 
ATOM     19  C   UNL     1      38.224 -24.193 -13.000  0.00  0.00    +0.003 C 
ENDROOT
BRANCH  10  20
ATOM     20  C   UNL     1      36.271 -21.474 -16.640  0.00  0.00    +0.003 C 
BRANCH  20  21
ATOM     21  C   UNL     1      36.410 -21.481 -18.162  0.00  0.00    -0.073 C 
BRANCH  21  22
ATOM     22  N   UNL     1      35.255 -20.837 -18.778  0.00  0.00    +0.384 N 
ATOM     23  C   UNL     1      34.281 -21.837 -19.218  0.00  0.00    -0.101 C 
ATOM     24  C   UNL     1      35.672 -20.003 -19.906  0.00  0.00    -0.101 C 
ATOM     25  H   UNL     1      34.813 -20.240 -18.079  0.00  0.00    -0.080 HD
ENDBRANCH  21  22
ENDBRANCH  20  21
ENDBRANCH  10  20
TORSDOF 3
ENDMDL
MODEL 8
REMARK VINA RESULT:      -9.0      2.594      6.320
REMARK  Name = 36846
REMARK  3 active torsions:
REMARK  status: ('A' for Active; 'I' for Inactive)
REMARK    1  A    between atoms: C_10  and  C_20
REMARK    2  A    between atoms: C_20  and  C_21
REMARK    3  A    between atoms: C_21  and  N_22
REMARK                            x       y       z     vdW  Elec       q    Type
REMARK                         _______ _______ _______ _____ _____    ______ ____
ROOT
ATOM      1  O   UNL     1      33.117 -21.167 -18.914  0.00  0.00    -0.454 OA
ATOM      2  O   UNL     1      36.455 -22.767 -16.826  0.00  0.00    -0.471 OA
ATOM      3  C   UNL     1      35.251 -21.175 -18.224  0.00  0.00    +0.059 A 
ATOM      4  C   UNL     1      33.962 -21.620 -17.922  0.00  0.00    +0.145 A 
ATOM      5  C   UNL     1      33.540 -22.406 -16.795  0.00  0.00    +0.033 C 
ATOM      6  C   UNL     1      35.174 -20.418 -19.431  0.00  0.00    +0.037 A 
ATOM      7  C   UNL     1      36.471 -21.455 -17.415  0.00  0.00    +0.235 C 
ATOM      8  C   UNL     1      34.368 -22.610 -15.571  0.00  0.00    +0.037 C 
ATOM      9  C   UNL     1      33.842 -20.450 -19.809  0.00  0.00    +0.145 A 
ATOM     10  C   UNL     1      32.347 -23.025 -16.889  0.00  0.00    -0.025 C 
ATOM     11  C   UNL     1      35.766 -22.771 -15.636  0.00  0.00    +0.139 C 
ATOM     12  C   UNL     1      36.084 -19.715 -20.243  0.00  0.00    +0.003 C 
ATOM     13  C   UNL     1      33.773 -22.621 -14.296  0.00  0.00    +0.003 C 
ATOM     14  C   UNL     1      33.334 -19.828 -20.948  0.00  0.00    +0.037 C 
ATOM     15  C   UNL     1      36.526 -23.008 -14.485  0.00  0.00    +0.037 C 
ATOM     16  C   UNL     1      35.605 -19.078 -21.396  0.00  0.00    +0.000 C 
ATOM     17  C   UNL     1      34.253 -19.135 -21.740  0.00  0.00    +0.003 C 
ATOM     18  C   UNL     1      34.535 -22.832 -13.142  0.00  0.00    +0.000 C 
ATOM     19  C   UNL     1      35.909 -23.035 -13.238  0.00  0.00    +0.003 C 
ENDROOT
BRANCH  10  20
ATOM     20  C   UNL     1      31.790 -23.918 -15.827  0.00  0.00    +0.003 C 
BRANCH  20  21
ATOM     21  C   UNL     1      30.356 -23.523 -15.476  0.00  0.00    -0.073 C 
BRANCH  21  22
ATOM     22  N   UNL     1      29.978 -24.085 -14.184  0.00  0.00    +0.384 N 
ATOM     23  C   UNL     1      31.121 -24.751 -13.557  0.00  0.00    -0.101 C 
ATOM     24  C   UNL     1      28.866 -25.024 -14.337  0.00  0.00    -0.101 C 
ATOM     25  H   UNL     1      29.676 -23.321 -13.580  0.00  0.00    -0.080 HD
ENDBRANCH  21  22
ENDBRANCH  20  21
ENDBRANCH  10  20
TORSDOF 3
ENDMDL
MODEL 9
REMARK VINA RESULT:      -8.4     15.224     18.065
REMARK  Name = 36846
REMARK  3 active torsions:
REMARK  status: ('A' for Active; 'I' for Inactive)
REMARK    1  A    between atoms: C_10  and  C_20
REMARK    2  A    between atoms: C_20  and  C_21
REMARK    3  A    between atoms: C_21  and  N_22
REMARK                            x       y       z     vdW  Elec       q    Type
REMARK                         _______ _______ _______ _____ _____    ______ ____
ROOT
ATOM      1  O   UNL     1      32.247  -6.985 -24.932  0.00  0.00    -0.454 OA
ATOM      2  O   UNL     1      32.853  -6.539 -20.749  0.00  0.00    -0.471 OA
ATOM      3  C   UNL     1      32.169  -5.867 -22.989  0.00  0.00    +0.059 A 
ATOM      4  C   UNL     1      32.179  -7.140 -23.563  0.00  0.00    +0.145 A 
ATOM      5  C   UNL     1      32.128  -8.412 -22.894  0.00  0.00    +0.033 C 
ATOM      6  C   UNL     1      32.218  -4.916 -24.052  0.00  0.00    +0.037 A 
ATOM      7  C   UNL     1      32.116  -5.580 -21.528  0.00  0.00    +0.235 C 
ATOM      8  C   UNL     1      31.725  -8.581 -21.467  0.00  0.00    +0.037 C 
ATOM      9  C   UNL     1      32.267  -5.659 -25.219  0.00  0.00    +0.145 A 
ATOM     10  C   UNL     1      32.516  -9.493 -23.596  0.00  0.00    -0.025 C 
ATOM     11  C   UNL     1      32.091  -7.650 -20.474  0.00  0.00    +0.139 C 
ATOM     12  C   UNL     1      32.229  -3.512 -24.151  0.00  0.00    +0.003 C 
ATOM     13  C   UNL     1      30.934  -9.674 -21.069  0.00  0.00    +0.003 C 
ATOM     14  C   UNL     1      32.327  -5.109 -26.498  0.00  0.00    +0.037 C 
ATOM     15  C   UNL     1      31.746  -7.844 -19.132  0.00  0.00    +0.037 C 
ATOM     16  C   UNL     1      32.289  -2.927 -25.424  0.00  0.00    +0.000 C 
ATOM     17  C   UNL     1      32.337  -3.715 -26.575  0.00  0.00    +0.003 C 
ATOM     18  C   UNL     1      30.567  -9.856 -19.732  0.00  0.00    +0.000 C 
ATOM     19  C   UNL     1      30.981  -8.946 -18.763  0.00  0.00    +0.003 C 
ENDROOT
BRANCH  10  20
ATOM     20  C   UNL     1      32.570 -10.876 -23.029  0.00  0.00    +0.003 C 
BRANCH  20  21
ATOM     21  C   UNL     1      33.045 -11.880 -24.079  0.00  0.00    -0.073 C 
BRANCH  21  22
ATOM     22  N   UNL     1      32.865 -13.243 -23.594  0.00  0.00    +0.384 N 
ATOM     23  C   UNL     1      33.784 -13.524 -22.491  0.00  0.00    -0.101 C 
ATOM     24  C   UNL     1      33.063 -14.206 -24.678  0.00  0.00    -0.101 C 
ATOM     25  H   UNL     1      31.908 -13.335 -23.251  0.00  0.00    -0.080 HD
ENDBRANCH  21  22
ENDBRANCH  20  21
ENDBRANCH  10  20
TORSDOF 3
ENDMDL
