MODEL 1
REMARK VINA RESULT:     -11.7      0.000      0.000
REMARK  Name = 5327067
REMARK  10 active torsions:
REMARK  status: ('A' for Active; 'I' for Inactive)
REMARK    1  A    between atoms: C_2  and  C_3
REMARK    2  A    between atoms: C_2  and  C_19
REMARK    3  A    between atoms: C_4  and  O_9
REMARK    4  A    between atoms: O_9  and  C_10
REMARK    5  A    between atoms: C_10  and  C_11
REMARK    6  A    between atoms: C_11  and  O_12
REMARK    7  A    between atoms: C_11  and  C_14
REMARK    8  A    between atoms: C_14  and  O_15
REMARK    9  A    between atoms: N_17  and  C_23
REMARK   10  A    between atoms: C_20  and  N_29
REMARK                            x       y       z     vdW  Elec       q    Type
REMARK                         _______ _______ _______ _____ _____    ______ ____
ROOT
ATOM      1  O   UNL     1      33.100 -23.092 -19.068  0.00  0.00    -0.286 OA
ATOM      2  C   UNL     1      33.840 -22.277 -18.496  0.00  0.00    +0.200 C 
ENDROOT
BRANCH   2   3
ATOM      3  C   UNL     1      34.063 -22.421 -17.065  0.00  0.00    +0.042 C 
ATOM      4  C   UNL     1      35.554 -22.422 -15.173  0.00  0.00    +0.139 C 
ATOM      5  C   UNL     1      35.349 -22.283 -16.542  0.00  0.00    +0.040 C 
ATOM      6  C   UNL     1      32.990 -22.697 -16.217  0.00  0.00    +0.003 C 
ATOM      7  C   UNL     1      34.489 -22.697 -14.322  0.00  0.00    +0.037 C 
ATOM      8  C   UNL     1      33.203 -22.835 -14.845  0.00  0.00    +0.003 C 
BRANCH   4   9
ATOM      9  O   UNL     1      36.816 -22.286 -14.659  0.00  0.00    -0.473 OA
BRANCH   9  10
ATOM     10  C   UNL     1      37.838 -23.081 -15.252  0.00  0.00    +0.237 C 
BRANCH  10  11
ATOM     11  C   UNL     1      37.941 -24.418 -14.524  0.00  0.00    +0.183 C 
BRANCH  11  12
ATOM     12  O   UNL     1      37.192 -25.394 -15.252  0.00  0.00    -0.378 OA
ATOM     13  H   UNL     1      36.284 -25.423 -14.913  0.00  0.00    +0.211 HD
ENDBRANCH  11  12
BRANCH  11  14
ATOM     14  C   UNL     1      39.384 -24.896 -14.443  0.00  0.00    +0.170 C 
BRANCH  14  15
ATOM     15  O   UNL     1      39.794 -25.348 -15.730  0.00  0.00    -0.379 OA
ATOM     16  H   UNL     1      39.473 -24.731 -16.406  0.00  0.00    +0.211 HD
ENDBRANCH  14  15
ENDBRANCH  11  14
ENDBRANCH  10  11
ENDBRANCH   9  10
ENDBRANCH   4   9
ENDBRANCH   2   3
BRANCH   2  19
ATOM     17  N   UNL     1      34.785 -19.501 -20.547  0.00  0.00    -0.177 N 
ATOM     18  N   UNL     1      36.013 -19.771 -20.070  0.00  0.00    -0.171 NA
ATOM     19  C   UNL     1      34.470 -21.177 -19.254  0.00  0.00    +0.088 C 
ATOM     20  C   UNL     1      33.814 -20.334 -20.076  0.00  0.00    +0.122 C 
ATOM     21  C   UNL     1      35.801 -20.816 -19.266  0.00  0.00    +0.124 C 
BRANCH  17  23
ATOM     22  F   UNL     1      34.113 -15.323 -24.080  0.00  0.00    -0.204 F 
ATOM     23  C   UNL     1      34.615 -18.442 -21.443  0.00  0.00    +0.075 C 
ATOM     24  C   UNL     1      34.814 -17.140 -21.007  0.00  0.00    +0.019 C 
ATOM     25  C   UNL     1      34.249 -18.709 -22.755  0.00  0.00    +0.019 C 
ATOM     26  C   UNL     1      34.644 -16.082 -21.901  0.00  0.00    +0.031 C 
ATOM     27  C   UNL     1      34.079 -17.652 -23.649  0.00  0.00    +0.031 C 
ATOM     28  C   UNL     1      34.276 -16.339 -23.222  0.00  0.00    +0.140 C 
ENDBRANCH  17  23
BRANCH  20  29
ATOM     29  N   UNL     1      32.521 -20.214 -20.448  0.00  0.00    -0.344 N 
ATOM     30  H   UNL     1      31.875 -19.775 -19.850  0.00  0.00    +0.144 HD
ATOM     31  H   UNL     1      32.225 -20.565 -21.320  0.00  0.00    +0.144 HD
ENDBRANCH  20  29
ENDBRANCH   2  19
TORSDOF 10
ENDMDL
MODEL 2
REMARK VINA RESULT:     -11.3      2.785      5.121
REMARK  Name = 5327067
REMARK  10 active torsions:
REMARK  status: ('A' for Active; 'I' for Inactive)
REMARK    1  A    between atoms: C_2  and  C_3
REMARK    2  A    between atoms: C_2  and  C_19
REMARK    3  A    between atoms: C_4  and  O_9
REMARK    4  A    between atoms: O_9  and  C_10
REMARK    5  A    between atoms: C_10  and  C_11
REMARK    6  A    between atoms: C_11  and  O_12
REMARK    7  A    between atoms: C_11  and  C_14
REMARK    8  A    between atoms: C_14  and  O_15
REMARK    9  A    between atoms: N_17  and  C_23
REMARK   10  A    between atoms: C_20  and  N_29
REMARK                            x       y       z     vdW  Elec       q    Type
REMARK                         _______ _______ _______ _____ _____    ______ ____
ROOT
ATOM      1  O   UNL     1      33.244 -23.471 -19.448  0.00  0.00    -0.286 OA
ATOM      2  C   UNL     1      33.587 -22.501 -18.754  0.00  0.00    +0.200 C 
ENDROOT
BRANCH   2   3
ATOM      3  C   UNL     1      33.286 -22.520 -17.331  0.00  0.00    +0.042 C 
ATOM      4  C   UNL     1      31.680 -22.506 -15.536  0.00  0.00    +0.139 C 
ATOM      5  C   UNL     1      31.960 -22.487 -16.898  0.00  0.00    +0.040 C 
ATOM      6  C   UNL     1      34.323 -22.571 -16.399  0.00  0.00    +0.003 C 
ATOM      7  C   UNL     1      32.710 -22.557 -14.601  0.00  0.00    +0.037 C 
ATOM      8  C   UNL     1      34.035 -22.589 -15.035  0.00  0.00    +0.003 C 
BRANCH   4   9
ATOM      9  O   UNL     1      30.379 -22.475 -15.110  0.00  0.00    -0.473 OA
BRANCH   9  10
ATOM     10  C   UNL     1      29.380 -22.759 -16.084  0.00  0.00    +0.237 C 
BRANCH  10  11
ATOM     11  C   UNL     1      27.996 -22.515 -15.492  0.00  0.00    +0.183 C 
BRANCH  11  12
ATOM     12  O   UNL     1      28.042 -21.330 -14.694  0.00  0.00    -0.378 OA
ATOM     13  H   UNL     1      27.340 -20.723 -14.975  0.00  0.00    +0.211 HD
ENDBRANCH  11  12
BRANCH  11  14
ATOM     14  C   UNL     1      26.953 -22.308 -16.582  0.00  0.00    +0.170 C 
BRANCH  14  15
ATOM     15  O   UNL     1      27.244 -23.180 -17.671  0.00  0.00    -0.379 OA
ATOM     16  H   UNL     1      26.685 -23.970 -17.610  0.00  0.00    +0.211 HD
ENDBRANCH  14  15
ENDBRANCH  11  14
ENDBRANCH  10  11
ENDBRANCH   9  10
ENDBRANCH   4   9
ENDBRANCH   2   3
BRANCH   2  19
ATOM     17  N   UNL     1      34.688 -19.566 -20.482  0.00  0.00    -0.177 N 
ATOM     18  N   UNL     1      35.880 -19.898 -19.957  0.00  0.00    -0.171 NA
ATOM     19  C   UNL     1      34.274 -21.347 -19.369  0.00  0.00    +0.088 C 
ATOM     20  C   UNL     1      33.681 -20.422 -20.148  0.00  0.00    +0.122 C 
ATOM     21  C   UNL     1      35.608 -21.009 -19.267  0.00  0.00    +0.124 C 
BRANCH  17  23
ATOM     22  F   UNL     1      34.284 -15.075 -23.652  0.00  0.00    -0.204 F 
ATOM     23  C   UNL     1      34.585 -18.427 -21.285  0.00  0.00    +0.075 C 
ATOM     24  C   UNL     1      34.358 -18.570 -22.647  0.00  0.00    +0.019 C 
ATOM     25  C   UNL     1      34.713 -17.170 -20.709  0.00  0.00    +0.019 C 
ATOM     26  C   UNL     1      34.256 -17.434 -23.449  0.00  0.00    +0.031 C 
ATOM     27  C   UNL     1      34.611 -16.034 -21.512  0.00  0.00    +0.031 C 
ATOM     28  C   UNL     1      34.383 -16.165 -22.881  0.00  0.00    +0.140 C 
ENDBRANCH  17  23
BRANCH  20  29
ATOM     29  N   UNL     1      32.414 -20.247 -20.587  0.00  0.00    -0.344 N 
ATOM     30  H   UNL     1      31.657 -20.550 -20.037  0.00  0.00    +0.144 HD
ATOM     31  H   UNL     1      32.250 -19.817 -21.458  0.00  0.00    +0.144 HD
ENDBRANCH  20  29
ENDBRANCH   2  19
TORSDOF 10
ENDMDL
MODEL 3
REMARK VINA RESULT:     -11.3      2.279      3.875
REMARK  Name = 5327067
REMARK  10 active torsions:
REMARK  status: ('A' for Active; 'I' for Inactive)
REMARK    1  A    between atoms: C_2  and  C_3
REMARK    2  A    between atoms: C_2  and  C_19
REMARK    3  A    between atoms: C_4  and  O_9
REMARK    4  A    between atoms: O_9  and  C_10
REMARK    5  A    between atoms: C_10  and  C_11
REMARK    6  A    between atoms: C_11  and  O_12
REMARK    7  A    between atoms: C_11  and  C_14
REMARK    8  A    between atoms: C_14  and  O_15
REMARK    9  A    between atoms: N_17  and  C_23
REMARK   10  A    between atoms: C_20  and  N_29
REMARK                            x       y       z     vdW  Elec       q    Type
REMARK                         _______ _______ _______ _____ _____    ______ ____
ROOT
ATOM      1  O   UNL     1      36.525 -19.439 -20.279  0.00  0.00    -0.286 OA
ATOM      2  C   UNL     1      35.324 -19.424 -20.591  0.00  0.00    +0.200 C 
ENDROOT
BRANCH   2   3
ATOM      3  C   UNL     1      34.396 -20.253 -19.837  0.00  0.00    +0.042 C 
ATOM      4  C   UNL     1      33.988 -21.948 -18.175  0.00  0.00    +0.139 C 
ATOM      5  C   UNL     1      34.881 -21.159 -18.892  0.00  0.00    +0.040 C 
ATOM      6  C   UNL     1      33.024 -20.141 -20.057  0.00  0.00    +0.003 C 
ATOM      7  C   UNL     1      32.618 -21.842 -18.389  0.00  0.00    +0.037 C 
ATOM      8  C   UNL     1      32.134 -20.936 -19.333  0.00  0.00    +0.003 C 
BRANCH   4   9
ATOM      9  O   UNL     1      34.463 -22.837 -17.248  0.00  0.00    -0.473 OA
BRANCH   9  10
ATOM     10  C   UNL     1      34.523 -22.385 -15.899  0.00  0.00    +0.237 C 
BRANCH  10  11
ATOM     11  C   UNL     1      35.856 -22.787 -15.277  0.00  0.00    +0.183 C 
BRANCH  11  12
ATOM     12  O   UNL     1      36.031 -24.196 -15.443  0.00  0.00    -0.378 OA
ATOM     13  H   UNL     1      35.332 -24.543 -16.018  0.00  0.00    +0.211 HD
ENDBRANCH  11  12
BRANCH  11  14
ATOM     14  C   UNL     1      37.023 -22.084 -15.959  0.00  0.00    +0.170 C 
BRANCH  14  15
ATOM     15  O   UNL     1      38.212 -22.833 -15.725  0.00  0.00    -0.379 OA
ATOM     16  H   UNL     1      38.638 -23.035 -16.572  0.00  0.00    +0.211 HD
ENDBRANCH  14  15
ENDBRANCH  11  14
ENDBRANCH  10  11
ENDBRANCH   9  10
ENDBRANCH   4   9
ENDBRANCH   2   3
BRANCH   2  19
ATOM     17  N   UNL     1      34.205 -16.929 -22.901  0.00  0.00    -0.177 N 
ATOM     18  N   UNL     1      34.171 -17.965 -23.757  0.00  0.00    -0.171 NA
ATOM     19  C   UNL     1      34.854 -18.589 -21.715  0.00  0.00    +0.088 C 
ATOM     20  C   UNL     1      34.616 -17.264 -21.645  0.00  0.00    +0.122 C 
ATOM     21  C   UNL     1      34.578 -18.992 -23.005  0.00  0.00    +0.124 C 
BRANCH  17  23
ATOM     22  F   UNL     1      32.746 -11.914 -24.664  0.00  0.00    -0.204 F 
ATOM     23  C   UNL     1      33.835 -15.658 -23.348  0.00  0.00    +0.075 C 
ATOM     24  C   UNL     1      33.366 -15.499 -24.644  0.00  0.00    +0.019 C 
ATOM     25  C   UNL     1      33.943 -14.573 -22.488  0.00  0.00    +0.019 C 
ATOM     26  C   UNL     1      32.997 -14.230 -25.090  0.00  0.00    +0.031 C 
ATOM     27  C   UNL     1      33.574 -13.304 -22.934  0.00  0.00    +0.031 C 
ATOM     28  C   UNL     1      33.101 -13.132 -24.235  0.00  0.00    +0.140 C 
ENDBRANCH  17  23
BRANCH  20  29
ATOM     29  N   UNL     1      34.710 -16.352 -20.653  0.00  0.00    -0.344 N 
ATOM     30  H   UNL     1      33.968 -15.727 -20.488  0.00  0.00    +0.144 HD
ATOM     31  H   UNL     1      35.520 -16.313 -20.095  0.00  0.00    +0.144 HD
ENDBRANCH  20  29
ENDBRANCH   2  19
TORSDOF 10
ENDMDL
MODEL 4
REMARK VINA RESULT:     -11.1      2.409      3.949
REMARK  Name = 5327067
REMARK  10 active torsions:
REMARK  status: ('A' for Active; 'I' for Inactive)
REMARK    1  A    between atoms: C_2  and  C_3
REMARK    2  A    between atoms: C_2  and  C_19
REMARK    3  A    between atoms: C_4  and  O_9
REMARK    4  A    between atoms: O_9  and  C_10
REMARK    5  A    between atoms: C_10  and  C_11
REMARK    6  A    between atoms: C_11  and  O_12
REMARK    7  A    between atoms: C_11  and  C_14
REMARK    8  A    between atoms: C_14  and  O_15
REMARK    9  A    between atoms: N_17  and  C_23
REMARK   10  A    between atoms: C_20  and  N_29
REMARK                            x       y       z     vdW  Elec       q    Type
REMARK                         _______ _______ _______ _____ _____    ______ ____
ROOT
ATOM      1  O   UNL     1      33.380 -23.006 -19.416  0.00  0.00    -0.286 OA
ATOM      2  C   UNL     1      34.021 -22.151 -18.786  0.00  0.00    +0.200 C 
ENDROOT
BRANCH   2   3
ATOM      3  C   UNL     1      34.168 -22.308 -17.347  0.00  0.00    +0.042 C 
ATOM      4  C   UNL     1      33.259 -22.968 -15.216  0.00  0.00    +0.139 C 
ATOM      5  C   UNL     1      33.112 -22.820 -16.591  0.00  0.00    +0.040 C 
ATOM      6  C   UNL     1      35.362 -21.948 -16.723  0.00  0.00    +0.003 C 
ATOM      7  C   UNL     1      34.448 -22.610 -14.588  0.00  0.00    +0.037 C 
ATOM      8  C   UNL     1      35.502 -22.098 -15.344  0.00  0.00    +0.003 C 
BRANCH   4   9
ATOM      9  O   UNL     1      32.224 -23.470 -14.473  0.00  0.00    -0.473 OA
BRANCH   9  10
ATOM     10  C   UNL     1      31.283 -22.529 -13.967  0.00  0.00    +0.237 C 
BRANCH  10  11
ATOM     11  C   UNL     1      29.865 -23.033 -14.212  0.00  0.00    +0.183 C 
BRANCH  11  12
ATOM     12  O   UNL     1      29.581 -22.938 -15.610  0.00  0.00    -0.378 OA
ATOM     13  H   UNL     1      30.215 -22.335 -16.029  0.00  0.00    +0.211 HD
ENDBRANCH  11  12
BRANCH  11  14
ATOM     14  C   UNL     1      29.712 -24.490 -13.799  0.00  0.00    +0.170 C 
BRANCH  14  15
ATOM     15  O   UNL     1      30.227 -24.652 -12.480  0.00  0.00    -0.379 OA
ATOM     16  H   UNL     1      30.121 -23.823 -11.988  0.00  0.00    +0.211 HD
ENDBRANCH  14  15
ENDBRANCH  11  14
ENDBRANCH  10  11
ENDBRANCH   9  10
ENDBRANCH   4   9
ENDBRANCH   2   3
BRANCH   2  19
ATOM     17  N   UNL     1      34.865 -19.236 -20.684  0.00  0.00    -0.177 N 
ATOM     18  N   UNL     1      36.105 -19.497 -20.235  0.00  0.00    -0.171 NA
ATOM     19  C   UNL     1      34.611 -20.992 -19.486  0.00  0.00    +0.088 C 
ATOM     20  C   UNL     1      33.923 -20.122 -20.252  0.00  0.00    +0.122 C 
ATOM     21  C   UNL     1      35.932 -20.592 -19.490  0.00  0.00    +0.124 C 
BRANCH  17  23
ATOM     22  F   UNL     1      34.035 -14.884 -23.965  0.00  0.00    -0.204 F 
ATOM     23  C   UNL     1      34.655 -18.133 -21.516  0.00  0.00    +0.075 C 
ATOM     24  C   UNL     1      34.693 -16.854 -20.978  0.00  0.00    +0.019 C 
ATOM     25  C   UNL     1      34.410 -18.333 -22.868  0.00  0.00    +0.019 C 
ATOM     26  C   UNL     1      34.483 -15.753 -21.808  0.00  0.00    +0.031 C 
ATOM     27  C   UNL     1      34.200 -17.232 -23.698  0.00  0.00    +0.031 C 
ATOM     28  C   UNL     1      34.236 -15.942 -23.168  0.00  0.00    +0.140 C 
ENDBRANCH  17  23
BRANCH  20  29
ATOM     29  N   UNL     1      32.623 -20.018 -20.605  0.00  0.00    -0.344 N 
ATOM     30  H   UNL     1      32.216 -20.695 -21.191  0.00  0.00    +0.144 HD
ATOM     31  H   UNL     1      32.082 -19.263 -20.275  0.00  0.00    +0.144 HD
ENDBRANCH  20  29
ENDBRANCH   2  19
TORSDOF 10
ENDMDL
MODEL 5
REMARK VINA RESULT:     -11.1      4.372      6.966
REMARK  Name = 5327067
REMARK  10 active torsions:
REMARK  status: ('A' for Active; 'I' for Inactive)
REMARK    1  A    between atoms: C_2  and  C_3
REMARK    2  A    between atoms: C_2  and  C_19
REMARK    3  A    between atoms: C_4  and  O_9
REMARK    4  A    between atoms: O_9  and  C_10
REMARK    5  A    between atoms: C_10  and  C_11
REMARK    6  A    between atoms: C_11  and  O_12
REMARK    7  A    between atoms: C_11  and  C_14
REMARK    8  A    between atoms: C_14  and  O_15
REMARK    9  A    between atoms: N_17  and  C_23
REMARK   10  A    between atoms: C_20  and  N_29
REMARK                            x       y       z     vdW  Elec       q    Type
REMARK                         _______ _______ _______ _____ _____    ______ ____
ROOT
ATOM      1  O   UNL     1      34.331 -16.702 -24.047  0.00  0.00    -0.286 OA
ATOM      2  C   UNL     1      34.379 -16.540 -22.818  0.00  0.00    +0.200 C 
ENDROOT
BRANCH   2   3
ATOM      3  C   UNL     1      34.869 -17.631 -21.989  0.00  0.00    +0.042 C 
ATOM      4  C   UNL     1      34.445 -19.582 -20.641  0.00  0.00    +0.139 C 
ATOM      5  C   UNL     1      33.970 -18.541 -21.432  0.00  0.00    +0.040 C 
ATOM      6  C   UNL     1      36.237 -17.768 -21.753  0.00  0.00    +0.003 C 
ATOM      7  C   UNL     1      35.808 -19.724 -20.401  0.00  0.00    +0.037 C 
ATOM      8  C   UNL     1      36.706 -18.814 -20.958  0.00  0.00    +0.003 C 
BRANCH   4   9
ATOM      9  O   UNL     1      33.563 -20.475 -20.094  0.00  0.00    -0.473 OA
BRANCH   9  10
ATOM     10  C   UNL     1      34.014 -21.206 -18.959  0.00  0.00    +0.237 C 
BRANCH  10  11
ATOM     11  C   UNL     1      33.041 -22.339 -18.652  0.00  0.00    +0.183 C 
BRANCH  11  12
ATOM     12  O   UNL     1      33.411 -23.482 -19.425  0.00  0.00    -0.378 OA
ATOM     13  H   UNL     1      32.915 -23.484 -20.259  0.00  0.00    +0.211 HD
ENDBRANCH  11  12
BRANCH  11  14
ATOM     14  C   UNL     1      33.088 -22.730 -17.181  0.00  0.00    +0.170 C 
BRANCH  14  15
ATOM     15  O   UNL     1      34.445 -22.731 -16.747  0.00  0.00    -0.379 OA
ATOM     16  H   UNL     1      34.581 -22.012 -16.110  0.00  0.00    +0.211 HD
ENDBRANCH  14  15
ENDBRANCH  11  14
ENDBRANCH  10  11
ENDBRANCH   9  10
ENDBRANCH   4   9
ENDBRANCH   2   3
BRANCH   2  19
ATOM     17  N   UNL     1      33.075 -13.329 -21.923  0.00  0.00    -0.177 N 
ATOM     18  N   UNL     1      33.574 -13.641 -20.714  0.00  0.00    -0.171 NA
ATOM     19  C   UNL     1      33.934 -15.268 -22.213  0.00  0.00    +0.088 C 
ATOM     20  C   UNL     1      33.272 -14.293 -22.866  0.00  0.00    +0.122 C 
ATOM     21  C   UNL     1      34.105 -14.851 -20.909  0.00  0.00    +0.124 C 
BRANCH  17  23
ATOM     22  F   UNL     1      30.526  -8.493 -22.632  0.00  0.00    -0.204 F 
ATOM     23  C   UNL     1      32.429 -12.103 -22.103  0.00  0.00    +0.075 C 
ATOM     24  C   UNL     1      32.909 -11.210 -23.050  0.00  0.00    +0.019 C 
ATOM     25  C   UNL     1      31.316 -11.798 -21.330  0.00  0.00    +0.019 C 
ATOM     26  C   UNL     1      32.264  -9.987 -23.230  0.00  0.00    +0.031 C 
ATOM     27  C   UNL     1      30.672 -10.574 -21.510  0.00  0.00    +0.031 C 
ATOM     28  C   UNL     1      31.145  -9.668 -22.459  0.00  0.00    +0.140 C 
ENDBRANCH  17  23
BRANCH  20  29
ATOM     29  N   UNL     1      32.841 -14.152 -24.139  0.00  0.00    -0.344 N 
ATOM     30  H   UNL     1      31.918 -14.399 -24.376  0.00  0.00    +0.144 HD
ATOM     31  H   UNL     1      33.450 -13.802 -24.830  0.00  0.00    +0.144 HD
ENDBRANCH  20  29
ENDBRANCH   2  19
TORSDOF 10
ENDMDL
MODEL 6
REMARK VINA RESULT:     -10.9      1.476      2.267
REMARK  Name = 5327067
REMARK  10 active torsions:
REMARK  status: ('A' for Active; 'I' for Inactive)
REMARK    1  A    between atoms: C_2  and  C_3
REMARK    2  A    between atoms: C_2  and  C_19
REMARK    3  A    between atoms: C_4  and  O_9
REMARK    4  A    between atoms: O_9  and  C_10
REMARK    5  A    between atoms: C_10  and  C_11
REMARK    6  A    between atoms: C_11  and  O_12
REMARK    7  A    between atoms: C_11  and  C_14
REMARK    8  A    between atoms: C_14  and  O_15
REMARK    9  A    between atoms: N_17  and  C_23
REMARK   10  A    between atoms: C_20  and  N_29
REMARK                            x       y       z     vdW  Elec       q    Type
REMARK                         _______ _______ _______ _____ _____    ______ ____
ROOT
ATOM      1  O   UNL     1      33.929 -22.310 -19.354  0.00  0.00    -0.286 OA
ATOM      2  C   UNL     1      34.760 -21.482 -18.950  0.00  0.00    +0.200 C 
ENDROOT
BRANCH   2   3
ATOM      3  C   UNL     1      35.355 -21.674 -17.636  0.00  0.00    +0.042 C 
ATOM      4  C   UNL     1      35.258 -22.604 -15.416  0.00  0.00    +0.139 C 
ATOM      5  C   UNL     1      34.684 -22.424 -16.669  0.00  0.00    +0.040 C 
ATOM      6  C   UNL     1      36.596 -21.109 -17.343  0.00  0.00    +0.003 C 
ATOM      7  C   UNL     1      36.496 -22.043 -15.117  0.00  0.00    +0.037 C 
ATOM      8  C   UNL     1      37.167 -21.294 -16.083  0.00  0.00    +0.003 C 
BRANCH   4   9
ATOM      9  O   UNL     1      34.601 -23.340 -14.467  0.00  0.00    -0.473 OA
BRANCH   9  10
ATOM     10  C   UNL     1      34.823 -24.746 -14.480  0.00  0.00    +0.237 C 
BRANCH  10  11
ATOM     11  C   UNL     1      36.086 -25.078 -13.691  0.00  0.00    +0.183 C 
BRANCH  11  12
ATOM     12  O   UNL     1      35.736 -25.238 -12.315  0.00  0.00    -0.378 OA
ATOM     13  H   UNL     1      36.498 -25.586 -11.826  0.00  0.00    +0.211 HD
ENDBRANCH  11  12
BRANCH  11  14
ATOM     14  C   UNL     1      36.716 -26.379 -14.171  0.00  0.00    +0.170 C 
BRANCH  14  15
ATOM     15  O   UNL     1      36.819 -26.346 -15.591  0.00  0.00    -0.379 OA
ATOM     16  H   UNL     1      37.340 -27.105 -15.895  0.00  0.00    +0.211 HD
ENDBRANCH  14  15
ENDBRANCH  11  14
ENDBRANCH  10  11
ENDBRANCH   9  10
ENDBRANCH   4   9
ENDBRANCH   2   3
BRANCH   2  19
ATOM     17  N   UNL     1      35.040 -18.679 -21.159  0.00  0.00    -0.177 N 
ATOM     18  N   UNL     1      36.316 -18.676 -20.734  0.00  0.00    -0.171 NA
ATOM     19  C   UNL     1      35.123 -20.318 -19.784  0.00  0.00    +0.088 C 
ATOM     20  C   UNL     1      34.277 -19.664 -20.604  0.00  0.00    +0.122 C 
ATOM     21  C   UNL     1      36.353 -19.700 -19.879  0.00  0.00    +0.124 C 
BRANCH  17  23
ATOM     22  F   UNL     1      33.396 -14.901 -24.820  0.00  0.00    -0.204 F 
ATOM     23  C   UNL     1      34.623 -17.722 -22.087  0.00  0.00    +0.075 C 
ATOM     24  C   UNL     1      34.165 -18.130 -23.331  0.00  0.00    +0.019 C 
ATOM     25  C   UNL     1      34.674 -16.376 -21.750  0.00  0.00    +0.019 C 
ATOM     26  C   UNL     1      33.749 -17.174 -24.258  0.00  0.00    +0.031 C 
ATOM     27  C   UNL     1      34.258 -15.420 -22.676  0.00  0.00    +0.031 C 
ATOM     28  C   UNL     1      33.796 -15.819 -23.930  0.00  0.00    +0.140 C 
ENDBRANCH  17  23
BRANCH  20  29
ATOM     29  N   UNL     1      32.972 -19.822 -20.915  0.00  0.00    -0.344 N 
ATOM     30  H   UNL     1      32.585 -19.336 -21.678  0.00  0.00    +0.144 HD
ATOM     31  H   UNL     1      32.407 -20.423 -20.376  0.00  0.00    +0.144 HD
ENDBRANCH  20  29
ENDBRANCH   2  19
TORSDOF 10
ENDMDL
MODEL 7
REMARK VINA RESULT:     -10.6      4.586      9.398
REMARK  Name = 5327067
REMARK  10 active torsions:
REMARK  status: ('A' for Active; 'I' for Inactive)
REMARK    1  A    between atoms: C_2  and  C_3
REMARK    2  A    between atoms: C_2  and  C_19
REMARK    3  A    between atoms: C_4  and  O_9
REMARK    4  A    between atoms: O_9  and  C_10
REMARK    5  A    between atoms: C_10  and  C_11
REMARK    6  A    between atoms: C_11  and  O_12
REMARK    7  A    between atoms: C_11  and  C_14
REMARK    8  A    between atoms: C_14  and  O_15
REMARK    9  A    between atoms: N_17  and  C_23
REMARK   10  A    between atoms: C_20  and  N_29
REMARK                            x       y       z     vdW  Elec       q    Type
REMARK                         _______ _______ _______ _____ _____    ______ ____
ROOT
ATOM      1  O   UNL     1      36.335 -19.403 -20.982  0.00  0.00    -0.286 OA
ATOM      2  C   UNL     1      35.114 -19.284 -21.167  0.00  0.00    +0.200 C 
ENDROOT
BRANCH   2   3
ATOM      3  C   UNL     1      34.651 -18.423 -22.244  0.00  0.00    +0.042 C 
ATOM      4  C   UNL     1      34.442 -16.232 -23.223  0.00  0.00    +0.139 C 
ATOM      5  C   UNL     1      34.887 -17.049 -22.189  0.00  0.00    +0.040 C 
ATOM      6  C   UNL     1      33.972 -18.971 -23.333  0.00  0.00    +0.003 C 
ATOM      7  C   UNL     1      33.765 -16.772 -24.311  0.00  0.00    +0.037 C 
ATOM      8  C   UNL     1      33.529 -18.145 -24.366  0.00  0.00    +0.003 C 
BRANCH   4   9
ATOM      9  O   UNL     1      34.674 -14.883 -23.169  0.00  0.00    -0.473 OA
BRANCH   9  10
ATOM     10  C   UNL     1      33.555 -14.032 -23.396  0.00  0.00    +0.237 C 
BRANCH  10  11
ATOM     11  C   UNL     1      33.523 -12.928 -22.345  0.00  0.00    +0.183 C 
BRANCH  11  12
ATOM     12  O   UNL     1      32.614 -11.913 -22.775  0.00  0.00    -0.378 OA
ATOM     13  H   UNL     1      32.363 -11.361 -22.018  0.00  0.00    +0.211 HD
ENDBRANCH  11  12
BRANCH  11  14
ATOM     14  C   UNL     1      33.038 -13.455 -21.000  0.00  0.00    +0.170 C 
BRANCH  14  15
ATOM     15  O   UNL     1      34.087 -14.201 -20.391  0.00  0.00    -0.379 OA
ATOM     16  H   UNL     1      34.144 -15.076 -20.804  0.00  0.00    +0.211 HD
ENDBRANCH  14  15
ENDBRANCH  11  14
ENDBRANCH  10  11
ENDBRANCH   9  10
ENDBRANCH   4   9
ENDBRANCH   2   3
BRANCH   2  19
ATOM     17  N   UNL     1      33.293 -21.169 -18.729  0.00  0.00    -0.177 N 
ATOM     18  N   UNL     1      32.233 -20.798 -19.467  0.00  0.00    -0.171 NA
ATOM     19  C   UNL     1      34.153 -19.994 -20.298  0.00  0.00    +0.088 C 
ATOM     20  C   UNL     1      34.484 -20.701 -19.199  0.00  0.00    +0.122 C 
ATOM     21  C   UNL     1      32.783 -20.067 -20.440  0.00  0.00    +0.124 C 
BRANCH  17  23
ATOM     22  F   UNL     1      32.518 -24.310 -14.265  0.00  0.00    -0.204 F 
ATOM     23  C   UNL     1      33.097 -21.965 -17.597  0.00  0.00    +0.075 C 
ATOM     24  C   UNL     1      34.196 -22.441 -16.897  0.00  0.00    +0.019 C 
ATOM     25  C   UNL     1      31.804 -22.268 -17.191  0.00  0.00    +0.019 C 
ATOM     26  C   UNL     1      34.000 -23.236 -15.768  0.00  0.00    +0.031 C 
ATOM     27  C   UNL     1      31.608 -23.063 -16.062  0.00  0.00    +0.031 C 
ATOM     28  C   UNL     1      32.705 -23.547 -15.350  0.00  0.00    +0.140 C 
ENDBRANCH  17  23
BRANCH  20  29
ATOM     29  N   UNL     1      35.657 -20.975 -18.587  0.00  0.00    -0.344 N 
ATOM     30  H   UNL     1      36.316 -21.560 -19.025  0.00  0.00    +0.144 HD
ATOM     31  H   UNL     1      35.851 -20.591 -17.701  0.00  0.00    +0.144 HD
ENDBRANCH  20  29
ENDBRANCH   2  19
TORSDOF 10
ENDMDL
MODEL 8
REMARK VINA RESULT:     -10.6      1.659      2.099
REMARK  Name = 5327067
REMARK  10 active torsions:
REMARK  status: ('A' for Active; 'I' for Inactive)
REMARK    1  A    between atoms: C_2  and  C_3
REMARK    2  A    between atoms: C_2  and  C_19
REMARK    3  A    between atoms: C_4  and  O_9
REMARK    4  A    between atoms: O_9  and  C_10
REMARK    5  A    between atoms: C_10  and  C_11
REMARK    6  A    between atoms: C_11  and  O_12
REMARK    7  A    between atoms: C_11  and  C_14
REMARK    8  A    between atoms: C_14  and  O_15
REMARK    9  A    between atoms: N_17  and  C_23
REMARK   10  A    between atoms: C_20  and  N_29
REMARK                            x       y       z     vdW  Elec       q    Type
REMARK                         _______ _______ _______ _____ _____    ______ ____
ROOT
ATOM      1  O   UNL     1      36.220 -21.811 -18.179  0.00  0.00    -0.286 OA
ATOM      2  C   UNL     1      34.992 -21.633 -18.172  0.00  0.00    +0.200 C 
ENDROOT
BRANCH   2   3
ATOM      3  C   UNL     1      34.208 -22.226 -17.100  0.00  0.00    +0.042 C 
ATOM      4  C   UNL     1      34.081 -23.222 -14.910  0.00  0.00    +0.139 C 
ATOM      5  C   UNL     1      34.837 -22.657 -15.931  0.00  0.00    +0.040 C 
ATOM      6  C   UNL     1      32.826 -22.362 -17.239  0.00  0.00    +0.003 C 
ATOM      7  C   UNL     1      32.703 -23.361 -15.043  0.00  0.00    +0.037 C 
ATOM      8  C   UNL     1      32.074 -22.930 -16.211  0.00  0.00    +0.003 C 
BRANCH   4   9
ATOM      9  O   UNL     1      34.698 -23.646 -13.763  0.00  0.00    -0.473 OA
BRANCH   9  10
ATOM     10  C   UNL     1      36.116 -23.530 -13.720  0.00  0.00    +0.237 C 
BRANCH  10  11
ATOM     11  C   UNL     1      36.736 -24.886 -13.399  0.00  0.00    +0.183 C 
BRANCH  11  12
ATOM     12  O   UNL     1      35.976 -25.502 -12.358  0.00  0.00    -0.378 OA
ATOM     13  H   UNL     1      36.293 -25.188 -11.497  0.00  0.00    +0.211 HD
ENDBRANCH  11  12
BRANCH  11  14
ATOM     14  C   UNL     1      36.711 -25.809 -14.610  0.00  0.00    +0.170 C 
BRANCH  14  15
ATOM     15  O   UNL     1      35.402 -26.354 -14.747  0.00  0.00    -0.379 OA
ATOM     16  H   UNL     1      35.166 -26.835 -13.939  0.00  0.00    +0.211 HD
ENDBRANCH  14  15
ENDBRANCH  11  14
ENDBRANCH  10  11
ENDBRANCH   9  10
ENDBRANCH   4   9
ENDBRANCH   2   3
BRANCH   2  19
ATOM     17  N   UNL     1      33.985 -19.458 -20.831  0.00  0.00    -0.177 N 
ATOM     18  N   UNL     1      32.794 -20.055 -20.653  0.00  0.00    -0.171 NA
ATOM     19  C   UNL     1      34.344 -20.846 -19.241  0.00  0.00    +0.088 C 
ATOM     20  C   UNL     1      34.959 -19.911 -19.991  0.00  0.00    +0.122 C 
ATOM     21  C   UNL     1      33.032 -20.917 -19.661  0.00  0.00    +0.124 C 
BRANCH  17  23
ATOM     22  F   UNL     1      34.514 -15.570 -24.701  0.00  0.00    -0.204 F 
ATOM     23  C   UNL     1      34.120 -18.473 -21.812  0.00  0.00    +0.075 C 
ATOM     24  C   UNL     1      34.600 -17.219 -21.460  0.00  0.00    +0.019 C 
ATOM     25  C   UNL     1      33.770 -18.763 -23.124  0.00  0.00    +0.019 C 
ATOM     26  C   UNL     1      34.733 -16.235 -22.440  0.00  0.00    +0.031 C 
ATOM     27  C   UNL     1      33.904 -17.779 -24.103  0.00  0.00    +0.031 C 
ATOM     28  C   UNL     1      34.385 -16.515 -23.762  0.00  0.00    +0.140 C 
ENDBRANCH  17  23
BRANCH  20  29
ATOM     29  N   UNL     1      36.220 -19.425 -20.024  0.00  0.00    -0.344 N 
ATOM     30  H   UNL     1      36.836 -19.604 -19.279  0.00  0.00    +0.144 HD
ATOM     31  H   UNL     1      36.521 -18.890 -20.795  0.00  0.00    +0.144 HD
ENDBRANCH  20  29
ENDBRANCH   2  19
TORSDOF 10
ENDMDL
MODEL 9
REMARK VINA RESULT:     -10.4      7.701     10.760
REMARK  Name = 5327067
REMARK  10 active torsions:
REMARK  status: ('A' for Active; 'I' for Inactive)
REMARK    1  A    between atoms: C_2  and  C_3
REMARK    2  A    between atoms: C_2  and  C_19
REMARK    3  A    between atoms: C_4  and  O_9
REMARK    4  A    between atoms: O_9  and  C_10
REMARK    5  A    between atoms: C_10  and  C_11
REMARK    6  A    between atoms: C_11  and  O_12
REMARK    7  A    between atoms: C_11  and  C_14
REMARK    8  A    between atoms: C_14  and  O_15
REMARK    9  A    between atoms: N_17  and  C_23
REMARK   10  A    between atoms: C_20  and  N_29
REMARK                            x       y       z     vdW  Elec       q    Type
REMARK                         _______ _______ _______ _____ _____    ______ ____
ROOT
ATOM      1  O   UNL     1      33.120 -12.185 -24.411  0.00  0.00    -0.286 OA
ATOM      2  C   UNL     1      32.859 -12.229 -23.199  0.00  0.00    +0.200 C 
ENDROOT
BRANCH   2   3
ATOM      3  C   UNL     1      33.330 -13.368 -22.425  0.00  0.00    +0.042 C 
ATOM      4  C   UNL     1      34.414 -15.517 -22.321  0.00  0.00    +0.139 C 
ATOM      5  C   UNL     1      33.966 -14.432 -23.067  0.00  0.00    +0.040 C 
ATOM      6  C   UNL     1      33.146 -13.396 -21.043  0.00  0.00    +0.003 C 
ATOM      7  C   UNL     1      34.233 -15.551 -20.942  0.00  0.00    +0.037 C 
ATOM      8  C   UNL     1      33.597 -14.488 -20.301  0.00  0.00    +0.003 C 
BRANCH   4   9
ATOM      9  O   UNL     1      35.039 -16.561 -22.949  0.00  0.00    -0.473 OA
BRANCH   9  10
ATOM     10  C   UNL     1      34.610 -17.871 -22.593  0.00  0.00    +0.237 C 
BRANCH  10  11
ATOM     11  C   UNL     1      35.800 -18.690 -22.105  0.00  0.00    +0.183 C 
BRANCH  11  12
ATOM     12  O   UNL     1      36.971 -17.872 -22.159  0.00  0.00    -0.378 OA
ATOM     13  H   UNL     1      36.727 -16.947 -22.000  0.00  0.00    +0.211 HD
ENDBRANCH  11  12
BRANCH  11  14
ATOM     14  C   UNL     1      35.609 -19.144 -20.664  0.00  0.00    +0.170 C 
BRANCH  14  15
ATOM     15  O   UNL     1      36.682 -18.638 -19.874  0.00  0.00    -0.379 OA
ATOM     16  H   UNL     1      37.175 -19.378 -19.488  0.00  0.00    +0.211 HD
ENDBRANCH  14  15
ENDBRANCH  11  14
ENDBRANCH  10  11
ENDBRANCH   9  10
ENDBRANCH   4   9
ENDBRANCH   2   3
BRANCH   2  19
ATOM     17  N   UNL     1      31.364  -9.231 -21.940  0.00  0.00    -0.177 N 
ATOM     18  N   UNL     1      30.517 -10.092 -21.349  0.00  0.00    -0.171 NA
ATOM     19  C   UNL     1      32.075 -11.152 -22.563  0.00  0.00    +0.088 C 
ATOM     20  C   UNL     1      32.329  -9.835 -22.691  0.00  0.00    +0.122 C 
ATOM     21  C   UNL     1      30.971 -11.283 -21.746  0.00  0.00    +0.124 C 
BRANCH  17  23
ATOM     22  F   UNL     1      30.688  -3.814 -21.175  0.00  0.00    -0.204 F 
ATOM     23  C   UNL     1      31.193  -7.858 -21.747  0.00  0.00    +0.075 C 
ATOM     24  C   UNL     1      31.720  -7.257 -20.612  0.00  0.00    +0.019 C 
ATOM     25  C   UNL     1      30.497  -7.116 -22.692  0.00  0.00    +0.019 C 
ATOM     26  C   UNL     1      31.549  -5.886 -20.418  0.00  0.00    +0.031 C 
ATOM     27  C   UNL     1      30.326  -5.745 -22.498  0.00  0.00    +0.031 C 
ATOM     28  C   UNL     1      30.851  -5.130 -21.362  0.00  0.00    +0.140 C 
ENDBRANCH  17  23
BRANCH  20  29
ATOM     29  N   UNL     1      33.268  -9.128 -23.356  0.00  0.00    -0.344 N 
ATOM     30  H   UNL     1      34.047  -9.587 -23.745  0.00  0.00    +0.144 HD
ATOM     31  H   UNL     1      33.175  -8.152 -23.452  0.00  0.00    +0.144 HD
ENDBRANCH  20  29
ENDBRANCH   2  19
TORSDOF 10
ENDMDL
