MODEL 1
REMARK VINA RESULT:     -11.2      0.000      0.000
REMARK  Name = 68953
REMARK  1 active torsions:
REMARK  status: ('A' for Active; 'I' for Inactive)
REMARK    1  A    between atoms: C_4  and  C_13
REMARK                            x       y       z     vdW  Elec       q    Type
REMARK                         _______ _______ _______ _____ _____    ______ ____
ROOT
ATOM      1 BR   UNL     1      36.559 -21.728 -16.919  0.00  0.00    -0.049 Br
ATOM      2  O   UNL     1      37.205 -18.030 -21.278  0.00  0.00    -0.291 OA
ATOM      3  O   UNL     1      32.741 -19.323 -22.234  0.00  0.00    -0.291 OA
ATOM      4  C   UNL     1      34.997 -18.354 -22.305  0.00  0.00    +0.146 C 
ATOM      5  C   UNL     1      35.653 -19.545 -20.306  0.00  0.00    +0.039 C 
ATOM      6  C   UNL     1      34.344 -19.925 -20.587  0.00  0.00    +0.038 C 
ATOM      7  C   UNL     1      36.113 -18.566 -21.293  0.00  0.00    +0.184 C 
ATOM      8  C   UNL     1      33.863 -19.218 -21.776  0.00  0.00    +0.184 C 
ATOM      9  C   UNL     1      36.342 -20.059 -19.224  0.00  0.00    +0.010 C 
ATOM     10  C   UNL     1      33.667 -20.834 -19.799  0.00  0.00    +0.003 C 
ATOM     11  C   UNL     1      35.674 -20.984 -18.417  0.00  0.00    +0.035 C 
ATOM     12  C   UNL     1      34.349 -21.368 -18.700  0.00  0.00    +0.007 C 
ENDROOT
BRANCH   4  13
ATOM     13  C   UNL     1      34.606 -16.923 -22.410  0.00  0.00    -0.008 C 
ATOM     14  C   UNL     1      34.407 -16.339 -23.663  0.00  0.00    -0.003 C 
ATOM     15  C   UNL     1      34.434 -16.155 -21.255  0.00  0.00    -0.003 C 
ATOM     16  C   UNL     1      34.039 -14.997 -23.762  0.00  0.00    -0.000 C 
ATOM     17  C   UNL     1      34.066 -14.813 -21.353  0.00  0.00    -0.000 C 
ATOM     18  C   UNL     1      33.869 -14.234 -22.607  0.00  0.00    -0.000 C 
ENDBRANCH   4  13
TORSDOF 1
ENDMDL
MODEL 2
REMARK VINA RESULT:     -10.7      3.132      6.146
REMARK  Name = 68953
REMARK  1 active torsions:
REMARK  status: ('A' for Active; 'I' for Inactive)
REMARK    1  A    between atoms: C_4  and  C_13
REMARK                            x       y       z     vdW  Elec       q    Type
REMARK                         _______ _______ _______ _____ _____    ______ ____
ROOT
ATOM      1 BR   UNL     1      32.740 -14.101 -25.722  0.00  0.00    -0.049 Br
ATOM      2  O   UNL     1      34.121 -19.380 -23.899  0.00  0.00    -0.291 OA
ATOM      3  O   UNL     1      35.478 -17.019 -20.013  0.00  0.00    -0.291 OA
ATOM      4  C   UNL     1      35.055 -18.734 -21.721  0.00  0.00    +0.146 C 
ATOM      5  C   UNL     1      34.163 -17.092 -23.256  0.00  0.00    +0.039 C 
ATOM      6  C   UNL     1      34.562 -16.400 -22.116  0.00  0.00    +0.038 C 
ATOM      7  C   UNL     1      34.405 -18.526 -23.080  0.00  0.00    +0.184 C 
ATOM      8  C   UNL     1      35.090 -17.336 -21.121  0.00  0.00    +0.184 C 
ATOM      9  C   UNL     1      33.617 -16.443 -24.345  0.00  0.00    +0.010 C 
ATOM     10  C   UNL     1      34.432 -15.029 -22.017  0.00  0.00    +0.003 C 
ATOM     11  C   UNL     1      33.480 -15.054 -24.265  0.00  0.00    +0.035 C 
ATOM     12  C   UNL     1      33.883 -14.353 -23.111  0.00  0.00    +0.007 C 
ENDROOT
BRANCH   4  13
ATOM     13  C   UNL     1      34.285 -19.684 -20.875  0.00  0.00    -0.008 C 
ATOM     14  C   UNL     1      34.953 -20.640 -20.106  0.00  0.00    -0.003 C 
ATOM     15  C   UNL     1      32.889 -19.626 -20.845  0.00  0.00    -0.003 C 
ATOM     16  C   UNL     1      34.231 -21.531 -19.312  0.00  0.00    -0.000 C 
ATOM     17  C   UNL     1      32.167 -20.517 -20.051  0.00  0.00    -0.000 C 
ATOM     18  C   UNL     1      32.838 -21.470 -19.285  0.00  0.00    -0.000 C 
ENDBRANCH   4  13
TORSDOF 1
ENDMDL
MODEL 3
REMARK VINA RESULT:     -10.0      4.284      6.630
REMARK  Name = 68953
REMARK  1 active torsions:
REMARK  status: ('A' for Active; 'I' for Inactive)
REMARK    1  A    between atoms: C_4  and  C_13
REMARK                            x       y       z     vdW  Elec       q    Type
REMARK                         _______ _______ _______ _____ _____    ______ ____
ROOT
ATOM      1 BR   UNL     1      30.461 -10.397 -21.756  0.00  0.00    -0.049 Br
ATOM      2  O   UNL     1      33.784 -14.110 -24.631  0.00  0.00    -0.291 OA
ATOM      3  O   UNL     1      34.473 -15.909 -20.294  0.00  0.00    -0.291 OA
ATOM      4  C   UNL     1      34.576 -15.399 -22.695  0.00  0.00    +0.146 C 
ATOM      5  C   UNL     1      33.043 -13.546 -22.444  0.00  0.00    +0.039 C 
ATOM      6  C   UNL     1      33.245 -14.074 -21.172  0.00  0.00    +0.038 C 
ATOM      7  C   UNL     1      33.798 -14.320 -23.432  0.00  0.00    +0.184 C 
ATOM      8  C   UNL     1      34.146 -15.226 -21.246  0.00  0.00    +0.184 C 
ATOM      9  C   UNL     1      32.222 -12.456 -22.655  0.00  0.00    +0.010 C 
ATOM     10  C   UNL     1      32.636 -13.534 -20.057  0.00  0.00    +0.003 C 
ATOM     11  C   UNL     1      31.599 -11.893 -21.538  0.00  0.00    +0.035 C 
ATOM     12  C   UNL     1      31.803 -12.428 -20.251  0.00  0.00    +0.007 C 
ENDROOT
BRANCH   4  13
ATOM     13  C   UNL     1      34.265 -16.759 -23.211  0.00  0.00    -0.008 C 
ATOM     14  C   UNL     1      33.377 -16.920 -24.277  0.00  0.00    -0.003 C 
ATOM     15  C   UNL     1      34.860 -17.883 -22.631  0.00  0.00    -0.003 C 
ATOM     16  C   UNL     1      33.086 -18.196 -24.761  0.00  0.00    -0.000 C 
ATOM     17  C   UNL     1      34.569 -19.159 -23.114  0.00  0.00    -0.000 C 
ATOM     18  C   UNL     1      33.682 -19.316 -24.179  0.00  0.00    -0.000 C 
ENDBRANCH   4  13
TORSDOF 1
ENDMDL
MODEL 4
REMARK VINA RESULT:      -9.7      3.945      6.064
REMARK  Name = 68953
REMARK  1 active torsions:
REMARK  status: ('A' for Active; 'I' for Inactive)
REMARK    1  A    between atoms: C_4  and  C_13
REMARK                            x       y       z     vdW  Elec       q    Type
REMARK                         _______ _______ _______ _____ _____    ______ ____
ROOT
ATOM      1 BR   UNL     1      34.591 -18.939 -22.271  0.00  0.00    -0.049 Br
ATOM      2  O   UNL     1      34.408 -13.380 -20.802  0.00  0.00    -0.291 OA
ATOM      3  O   UNL     1      32.807 -12.889 -25.242  0.00  0.00    -0.291 OA
ATOM      4  C   UNL     1      33.641 -12.500 -22.964  0.00  0.00    +0.146 C 
ATOM      5  C   UNL     1      34.003 -14.865 -22.613  0.00  0.00    +0.039 C 
ATOM      6  C   UNL     1      33.534 -14.721 -23.915  0.00  0.00    +0.038 C 
ATOM      7  C   UNL     1      34.068 -13.557 -21.957  0.00  0.00    +0.184 C 
ATOM      8  C   UNL     1      33.262 -13.310 -24.196  0.00  0.00    +0.184 C 
ATOM      9  C   UNL     1      34.325 -16.103 -22.091  0.00  0.00    +0.010 C 
ATOM     10  C   UNL     1      33.367 -15.807 -24.751  0.00  0.00    +0.003 C 
ATOM     11  C   UNL     1      34.167 -17.214 -22.923  0.00  0.00    +0.035 C 
ATOM     12  C   UNL     1      33.692 -17.068 -24.241  0.00  0.00    +0.007 C 
ENDROOT
BRANCH   4  13
ATOM     13  C   UNL     1      32.505 -11.681 -22.464  0.00  0.00    -0.008 C 
ATOM     14  C   UNL     1      31.665 -12.180 -21.465  0.00  0.00    -0.003 C 
ATOM     15  C   UNL     1      32.273 -10.407 -22.989  0.00  0.00    -0.003 C 
ATOM     16  C   UNL     1      30.600 -11.411 -20.995  0.00  0.00    -0.000 C 
ATOM     17  C   UNL     1      31.208  -9.638 -22.519  0.00  0.00    -0.000 C 
ATOM     18  C   UNL     1      30.371 -10.140 -21.522  0.00  0.00    -0.000 C 
ENDBRANCH   4  13
TORSDOF 1
ENDMDL
MODEL 5
REMARK VINA RESULT:      -9.6      3.170      6.775
REMARK  Name = 68953
REMARK  1 active torsions:
REMARK  status: ('A' for Active; 'I' for Inactive)
REMARK    1  A    between atoms: C_4  and  C_13
REMARK                            x       y       z     vdW  Elec       q    Type
REMARK                         _______ _______ _______ _____ _____    ______ ____
ROOT
ATOM      1 BR   UNL     1      34.568 -17.067 -22.517  0.00  0.00    -0.049 Br
ATOM      2  O   UNL     1      31.975 -21.514 -19.949  0.00  0.00    -0.291 OA
ATOM      3  O   UNL     1      36.217 -22.005 -17.879  0.00  0.00    -0.291 OA
ATOM      4  C   UNL     1      33.907 -22.312 -18.658  0.00  0.00    +0.146 C 
ATOM      5  C   UNL     1      34.055 -20.374 -20.096  0.00  0.00    +0.039 C 
ATOM      6  C   UNL     1      35.299 -20.518 -19.489  0.00  0.00    +0.038 C 
ATOM      7  C   UNL     1      33.142 -21.414 -19.618  0.00  0.00    +0.184 C 
ATOM      8  C   UNL     1      35.280 -21.662 -18.575  0.00  0.00    +0.184 C 
ATOM      9  C   UNL     1      33.802 -19.360 -20.999  0.00  0.00    +0.010 C 
ATOM     10  C   UNL     1      36.343 -19.656 -19.760  0.00  0.00    +0.003 C 
ATOM     11  C   UNL     1      34.847 -18.479 -21.288  0.00  0.00    +0.035 C 
ATOM     12  C   UNL     1      36.106 -18.625 -20.673  0.00  0.00    +0.007 C 
ENDROOT
BRANCH   4  13
ATOM     13  C   UNL     1      33.248 -22.396 -17.328  0.00  0.00    -0.008 C 
ATOM     14  C   UNL     1      31.856 -22.341 -17.229  0.00  0.00    -0.003 C 
ATOM     15  C   UNL     1      34.019 -22.531 -16.170  0.00  0.00    -0.003 C 
ATOM     16  C   UNL     1      31.238 -22.420 -15.981  0.00  0.00    -0.000 C 
ATOM     17  C   UNL     1      33.400 -22.610 -14.921  0.00  0.00    -0.000 C 
ATOM     18  C   UNL     1      32.010 -22.554 -14.827  0.00  0.00    -0.000 C 
ENDBRANCH   4  13
TORSDOF 1
ENDMDL
MODEL 6
REMARK VINA RESULT:      -9.3      5.210      9.095
REMARK  Name = 68953
REMARK  1 active torsions:
REMARK  status: ('A' for Active; 'I' for Inactive)
REMARK    1  A    between atoms: C_4  and  C_13
REMARK                            x       y       z     vdW  Elec       q    Type
REMARK                         _______ _______ _______ _____ _____    ______ ____
ROOT
ATOM      1 BR   UNL     1      35.246 -20.339 -20.482  0.00  0.00    -0.049 Br
ATOM      2  O   UNL     1      37.238 -21.786 -15.283  0.00  0.00    -0.291 OA
ATOM      3  O   UNL     1      32.930 -23.728 -14.846  0.00  0.00    -0.291 OA
ATOM      4  C   UNL     1      35.200 -22.876 -14.449  0.00  0.00    +0.146 C 
ATOM      5  C   UNL     1      35.313 -21.926 -16.670  0.00  0.00    +0.039 C 
ATOM      6  C   UNL     1      34.050 -22.495 -16.541  0.00  0.00    +0.038 C 
ATOM      7  C   UNL     1      36.086 -22.142 -15.444  0.00  0.00    +0.184 C 
ATOM      8  C   UNL     1      33.914 -23.121 -15.224  0.00  0.00    +0.184 C 
ATOM      9  C   UNL     1      35.703 -21.279 -17.826  0.00  0.00    +0.010 C 
ATOM     10  C   UNL     1      33.122 -22.441 -17.563  0.00  0.00    +0.003 C 
ATOM     11  C   UNL     1      34.777 -21.211 -18.870  0.00  0.00    +0.035 C 
ATOM     12  C   UNL     1      33.498 -21.788 -18.740  0.00  0.00    +0.007 C 
ENDROOT
BRANCH   4  13
ATOM     13  C   UNL     1      35.820 -24.145 -13.982  0.00  0.00    -0.008 C 
ATOM     14  C   UNL     1      36.040 -25.191 -14.881  0.00  0.00    -0.003 C 
ATOM     15  C   UNL     1      36.187 -24.295 -12.642  0.00  0.00    -0.003 C 
ATOM     16  C   UNL     1      36.623 -26.381 -14.442  0.00  0.00    -0.000 C 
ATOM     17  C   UNL     1      36.769 -25.485 -12.204  0.00  0.00    -0.000 C 
ATOM     18  C   UNL     1      36.987 -26.528 -13.104  0.00  0.00    -0.000 C 
ENDBRANCH   4  13
TORSDOF 1
ENDMDL
MODEL 7
REMARK VINA RESULT:      -9.3      2.679      4.280
REMARK  Name = 68953
REMARK  1 active torsions:
REMARK  status: ('A' for Active; 'I' for Inactive)
REMARK    1  A    between atoms: C_4  and  C_13
REMARK                            x       y       z     vdW  Elec       q    Type
REMARK                         _______ _______ _______ _____ _____    ______ ____
ROOT
ATOM      1 BR   UNL     1      33.428 -23.265 -13.296  0.00  0.00    -0.049 Br
ATOM      2  O   UNL     1      36.398 -21.785 -17.996  0.00  0.00    -0.291 OA
ATOM      3  O   UNL     1      32.075 -21.689 -19.952  0.00  0.00    -0.291 OA
ATOM      4  C   UNL     1      34.498 -21.655 -19.549  0.00  0.00    +0.146 C 
ATOM      5  C   UNL     1      34.195 -22.226 -17.219  0.00  0.00    +0.039 C 
ATOM      6  C   UNL     1      32.927 -22.198 -17.793  0.00  0.00    +0.038 C 
ATOM      7  C   UNL     1      35.205 -21.877 -18.220  0.00  0.00    +0.184 C 
ATOM      8  C   UNL     1      33.026 -21.829 -19.207  0.00  0.00    +0.184 C 
ATOM      9  C   UNL     1      34.381 -22.537 -15.886  0.00  0.00    +0.010 C 
ATOM     10  C   UNL     1      31.792 -22.481 -17.060  0.00  0.00    +0.003 C 
ATOM     11  C   UNL     1      33.244 -22.830 -15.128  0.00  0.00    +0.035 C 
ATOM     12  C   UNL     1      31.961 -22.801 -15.709  0.00  0.00    +0.007 C 
ENDROOT
BRANCH   4  13
ATOM     13  C   UNL     1      34.785 -20.310 -20.114  0.00  0.00    -0.008 C 
ATOM     14  C   UNL     1      33.748 -19.528 -20.626  0.00  0.00    -0.003 C 
ATOM     15  C   UNL     1      36.095 -19.821 -20.134  0.00  0.00    -0.003 C 
ATOM     16  C   UNL     1      34.017 -18.265 -21.156  0.00  0.00    -0.000 C 
ATOM     17  C   UNL     1      36.364 -18.559 -20.664  0.00  0.00    -0.000 C 
ATOM     18  C   UNL     1      35.324 -17.781 -21.175  0.00  0.00    -0.000 C 
ENDBRANCH   4  13
TORSDOF 1
ENDMDL
MODEL 8
REMARK VINA RESULT:      -9.2      4.553      6.933
REMARK  Name = 68953
REMARK  1 active torsions:
REMARK  status: ('A' for Active; 'I' for Inactive)
REMARK    1  A    between atoms: C_4  and  C_13
REMARK                            x       y       z     vdW  Elec       q    Type
REMARK                         _______ _______ _______ _____ _____    ______ ____
ROOT
ATOM      1 BR   UNL     1      35.396 -17.315 -22.495  0.00  0.00    -0.049 Br
ATOM      2  O   UNL     1      32.714 -12.790 -24.825  0.00  0.00    -0.291 OA
ATOM      3  O   UNL     1      31.828 -11.749 -20.281  0.00  0.00    -0.291 OA
ATOM      4  C   UNL     1      31.886 -11.796 -22.736  0.00  0.00    +0.146 C 
ATOM      5  C   UNL     1      33.203 -13.824 -22.741  0.00  0.00    +0.039 C 
ATOM      6  C   UNL     1      32.943 -13.518 -21.409  0.00  0.00    +0.038 C 
ATOM      7  C   UNL     1      32.616 -12.803 -23.612  0.00  0.00    +0.184 C 
ATOM      8  C   UNL     1      32.168 -12.279 -21.321  0.00  0.00    +0.184 C 
ATOM      9  C   UNL     1      33.929 -14.942 -23.101  0.00  0.00    +0.010 C 
ATOM     10  C   UNL     1      33.397 -14.318 -20.379  0.00  0.00    +0.003 C 
ATOM     11  C   UNL     1      34.395 -15.766 -22.073  0.00  0.00    +0.035 C 
ATOM     12  C   UNL     1      34.132 -15.457 -20.724  0.00  0.00    +0.007 C 
ENDROOT
BRANCH   4  13
ATOM     13  C   UNL     1      32.372 -10.409 -22.960  0.00  0.00    -0.008 C 
ATOM     14  C   UNL     1      33.687 -10.183 -23.371  0.00  0.00    -0.003 C 
ATOM     15  C   UNL     1      31.513  -9.323 -22.761  0.00  0.00    -0.003 C 
ATOM     16  C   UNL     1      34.142  -8.881 -23.581  0.00  0.00    -0.000 C 
ATOM     17  C   UNL     1      31.968  -8.022 -22.972  0.00  0.00    -0.000 C 
ATOM     18  C   UNL     1      33.283  -7.800 -23.382  0.00  0.00    -0.000 C 
ENDBRANCH   4  13
TORSDOF 1
ENDMDL
MODEL 9
REMARK VINA RESULT:      -8.9      7.810      9.908
REMARK  Name = 68953
REMARK  1 active torsions:
REMARK  status: ('A' for Active; 'I' for Inactive)
REMARK    1  A    between atoms: C_4  and  C_13
REMARK                            x       y       z     vdW  Elec       q    Type
REMARK                         _______ _______ _______ _____ _____    ______ ____
ROOT
ATOM      1 BR   UNL     1      28.657 -22.808 -16.403  0.00  0.00    -0.049 Br
ATOM      2  O   UNL     1      34.401 -22.614 -16.654  0.00  0.00    -0.291 OA
ATOM      3  O   UNL     1      34.026 -23.538 -12.014  0.00  0.00    -0.291 OA
ATOM      4  C   UNL     1      34.841 -22.986 -14.265  0.00  0.00    +0.146 C 
ATOM      5  C   UNL     1      32.590 -22.921 -15.146  0.00  0.00    +0.039 C 
ATOM      6  C   UNL     1      32.480 -23.192 -13.785  0.00  0.00    +0.038 C 
ATOM      7  C   UNL     1      34.001 -22.811 -15.521  0.00  0.00    +0.184 C 
ATOM      8  C   UNL     1      33.812 -23.276 -13.182  0.00  0.00    +0.184 C 
ATOM      9  C   UNL     1      31.476 -22.802 -15.954  0.00  0.00    +0.010 C 
ATOM     10  C   UNL     1      31.253 -23.354 -13.174  0.00  0.00    +0.003 C 
ATOM     11  C   UNL     1      30.225 -22.959 -15.353  0.00  0.00    +0.035 C 
ATOM     12  C   UNL     1      30.113 -23.234 -13.976  0.00  0.00    +0.007 C 
ENDROOT
BRANCH   4  13
ATOM     13  C   UNL     1      35.829 -24.088 -14.405  0.00  0.00    -0.008 C 
ATOM     14  C   UNL     1      37.180 -23.860 -14.134  0.00  0.00    -0.003 C 
ATOM     15  C   UNL     1      35.410 -25.360 -14.809  0.00  0.00    -0.003 C 
ATOM     16  C   UNL     1      38.106 -24.895 -14.265  0.00  0.00    -0.000 C 
ATOM     17  C   UNL     1      36.337 -26.395 -14.940  0.00  0.00    -0.000 C 
ATOM     18  C   UNL     1      37.685 -26.162 -14.668  0.00  0.00    -0.000 C 
ENDBRANCH   4  13
TORSDOF 1
ENDMDL
