MODEL 1
REMARK VINA RESULT:     -11.6      0.000      0.000
REMARK  Name = 71479709
REMARK  6 active torsions:
REMARK  status: ('A' for Active; 'I' for Inactive)
REMARK    1  A    between atoms: N_1  and  C_25
REMARK    2  A    between atoms: C_5  and  C_9
REMARK    3  A    between atoms: C_14  and  O_15
REMARK    4  A    between atoms: O_15  and  C_16
REMARK    5  A    between atoms: C_25  and  C_28
REMARK    6  A    between atoms: C_33  and  C_34
REMARK                            x       y       z     vdW  Elec       q    Type
REMARK                         _______ _______ _______ _____ _____    ______ ____
ROOT
ATOM      1  N   UNL     1      31.326 -10.430 -22.192  0.00  0.00    -0.321 N 
ATOM      2  N   UNL     1      31.273 -10.299 -19.857  0.00  0.00    -0.233 NA
ATOM      3  N   UNL     1      31.484  -8.164 -18.758  0.00  0.00    -0.234 NA
ATOM      4  C   UNL     1      31.381  -9.658 -21.039  0.00  0.00    +0.113 C 
ATOM      5  C   UNL     1      31.540  -8.292 -21.161  0.00  0.00    +0.129 C 
ATOM      6  C   UNL     1      31.586  -7.590 -19.974  0.00  0.00    +0.110 C 
ATOM      7  C   UNL     1      31.332  -9.502 -18.773  0.00  0.00    +0.252 C 
ATOM      8  H   UNL     1      31.403  -9.973 -23.061  0.00  0.00    +0.148 HD
ATOM      9  N   UNL     1      31.745  -6.181 -20.019  0.00  0.00    -0.346 N 
ATOM     10  H   UNL     1      31.779  -5.663 -19.183  0.00  0.00    +0.143 HD
ATOM     11  H   UNL     1      31.821  -5.722 -20.886  0.00  0.00    +0.143 HD
ENDROOT
BRANCH   5  12
ATOM     12  C   UNL     1      31.651  -7.639 -22.450  0.00  0.00    -0.009 C 
ATOM     13  C   UNL     1      32.909  -7.348 -22.980  0.00  0.00    -0.000 C 
ATOM     14  C   UNL     1      30.500  -7.299 -23.161  0.00  0.00    -0.000 C 
ATOM     15  C   UNL     1      33.015  -6.717 -24.219  0.00  0.00    +0.037 C 
ATOM     16  C   UNL     1      30.606  -6.669 -24.401  0.00  0.00    +0.037 C 
ATOM     17  C   UNL     1      31.864  -6.378 -24.929  0.00  0.00    +0.145 C 
BRANCH  17  18
ATOM     18  O   UNL     1      31.967  -5.761 -26.139  0.00  0.00    -0.453 OA
BRANCH  18  19
ATOM     19  C   UNL     1      32.504  -4.485 -26.167  0.00  0.00    +0.145 C 
ATOM     20  C   UNL     1      33.706  -4.248 -26.836  0.00  0.00    +0.037 C 
ATOM     21  C   UNL     1      31.844  -3.436 -25.530  0.00  0.00    +0.037 C 
ATOM     22  C   UNL     1      34.246  -2.963 -26.866  0.00  0.00    +0.003 C 
ATOM     23  C   UNL     1      32.384  -2.150 -25.558  0.00  0.00    +0.003 C 
ATOM     24  C   UNL     1      33.585  -1.914 -26.227  0.00  0.00    +0.000 C 
ENDBRANCH  18  19
ENDBRANCH  17  18
ENDBRANCH   5  12
BRANCH   1  25
ATOM     25  C   UNL     1      31.164 -11.860 -22.192  0.00  0.00    +0.088 C 
BRANCH  25  28
ATOM     26  O   UNL     1      34.645 -16.773 -20.606  0.00  0.00    -0.270 OA
ATOM     27  N   UNL     1      34.215 -14.899 -21.915  0.00  0.00    -0.276 N 
ATOM     28  C   UNL     1      32.532 -12.534 -22.121  0.00  0.00    +0.023 C 
ATOM     29  C   UNL     1      32.698 -13.299 -20.801  0.00  0.00    +0.023 C 
ATOM     30  C   UNL     1      32.733 -13.488 -23.307  0.00  0.00    +0.023 C 
ATOM     31  C   UNL     1      34.040 -14.023 -20.754  0.00  0.00    +0.094 C 
ATOM     32  C   UNL     1      34.068 -14.229 -23.216  0.00  0.00    +0.094 C 
ATOM     33  C   UNL     1      34.530 -16.241 -21.711  0.00  0.00    +0.249 C 
BRANCH  33  34
ATOM     34  C   UNL     1      34.743 -17.086 -22.902  0.00  0.00    +0.058 C 
ATOM     35  C   UNL     1      34.386 -18.372 -22.851  0.00  0.00    +0.005 C 
ENDBRANCH  33  34
ENDBRANCH  25  28
ENDBRANCH   1  25
TORSDOF 6
ENDMDL
MODEL 2
REMARK VINA RESULT:     -11.6     11.346     17.278
REMARK  Name = 71479709
REMARK  6 active torsions:
REMARK  status: ('A' for Active; 'I' for Inactive)
REMARK    1  A    between atoms: N_1  and  C_25
REMARK    2  A    between atoms: C_5  and  C_9
REMARK    3  A    between atoms: C_14  and  O_15
REMARK    4  A    between atoms: O_15  and  C_16
REMARK    5  A    between atoms: C_25  and  C_28
REMARK    6  A    between atoms: C_33  and  C_34
REMARK                            x       y       z     vdW  Elec       q    Type
REMARK                         _______ _______ _______ _____ _____    ______ ____
ROOT
ATOM      1  N   UNL     1      36.416 -22.276 -15.407  0.00  0.00    -0.321 N 
ATOM      2  N   UNL     1      38.468 -23.385 -15.228  0.00  0.00    -0.233 NA
ATOM      3  N   UNL     1      38.673 -25.340 -13.832  0.00  0.00    -0.234 NA
ATOM      4  C   UNL     1      37.169 -23.312 -14.870  0.00  0.00    +0.113 C 
ATOM      5  C   UNL     1      36.558 -24.203 -14.011  0.00  0.00    +0.129 C 
ATOM      6  C   UNL     1      37.368 -25.206 -13.518  0.00  0.00    +0.110 C 
ATOM      7  C   UNL     1      39.151 -24.408 -14.680  0.00  0.00    +0.252 C 
ATOM      8  H   UNL     1      35.467 -22.213 -15.153  0.00  0.00    +0.148 HD
ATOM      9  N   UNL     1      36.809 -26.161 -12.631  0.00  0.00    -0.346 N 
ATOM     10  H   UNL     1      37.371 -26.884 -12.269  0.00  0.00    +0.143 HD
ATOM     11  H   UNL     1      35.860 -26.100 -12.377  0.00  0.00    +0.143 HD
ENDROOT
BRANCH   5  12
ATOM     12  C   UNL     1      35.158 -24.093 -13.651  0.00  0.00    -0.009 C 
ATOM     13  C   UNL     1      34.172 -24.500 -14.550  0.00  0.00    -0.000 C 
ATOM     14  C   UNL     1      34.796 -23.577 -12.407  0.00  0.00    -0.000 C 
ATOM     15  C   UNL     1      32.826 -24.392 -14.205  0.00  0.00    +0.037 C 
ATOM     16  C   UNL     1      33.449 -23.470 -12.061  0.00  0.00    +0.037 C 
ATOM     17  C   UNL     1      32.464 -23.876 -12.961  0.00  0.00    +0.145 C 
BRANCH  17  18
ATOM     18  O   UNL     1      31.149 -23.769 -12.624  0.00  0.00    -0.453 OA
BRANCH  18  19
ATOM     19  C   UNL     1      30.227 -23.666 -13.652  0.00  0.00    +0.145 C 
ATOM     20  C   UNL     1      29.441 -24.766 -13.998  0.00  0.00    +0.037 C 
ATOM     21  C   UNL     1      30.083 -22.462 -14.341  0.00  0.00    +0.037 C 
ATOM     22  C   UNL     1      28.512 -24.661 -15.033  0.00  0.00    +0.003 C 
ATOM     23  C   UNL     1      29.154 -22.358 -15.376  0.00  0.00    +0.003 C 
ATOM     24  C   UNL     1      28.368 -23.457 -15.722  0.00  0.00    +0.000 C 
ENDBRANCH  18  19
ENDBRANCH  17  18
ENDBRANCH   5  12
BRANCH   1  25
ATOM     25  C   UNL     1      36.942 -21.288 -16.311  0.00  0.00    +0.088 C 
BRANCH  25  28
ATOM     26  O   UNL     1      32.137 -20.416 -20.175  0.00  0.00    -0.270 OA
ATOM     27  N   UNL     1      34.404 -20.719 -19.755  0.00  0.00    -0.276 N 
ATOM     28  C   UNL     1      36.316 -21.467 -17.692  0.00  0.00    +0.023 C 
ATOM     29  C   UNL     1      34.824 -21.807 -17.577  0.00  0.00    +0.023 C 
ATOM     30  C   UNL     1      36.500 -20.204 -18.544  0.00  0.00    +0.023 C 
ATOM     31  C   UNL     1      34.182 -21.926 -18.956  0.00  0.00    +0.094 C 
ATOM     32  C   UNL     1      35.817 -20.335 -19.906  0.00  0.00    +0.094 C 
ATOM     33  C   UNL     1      33.310 -20.069 -20.320  0.00  0.00    +0.249 C 
BRANCH  33  34
ATOM     34  C   UNL     1      33.571 -18.881 -21.156  0.00  0.00    +0.058 C 
ATOM     35  C   UNL     1      33.940 -19.056 -22.427  0.00  0.00    +0.005 C 
ENDBRANCH  33  34
ENDBRANCH  25  28
ENDBRANCH   1  25
TORSDOF 6
ENDMDL
MODEL 3
REMARK VINA RESULT:     -10.7     11.282     14.936
REMARK  Name = 71479709
REMARK  6 active torsions:
REMARK  status: ('A' for Active; 'I' for Inactive)
REMARK    1  A    between atoms: N_1  and  C_25
REMARK    2  A    between atoms: C_5  and  C_9
REMARK    3  A    between atoms: C_14  and  O_15
REMARK    4  A    between atoms: O_15  and  C_16
REMARK    5  A    between atoms: C_25  and  C_28
REMARK    6  A    between atoms: C_33  and  C_34
REMARK                            x       y       z     vdW  Elec       q    Type
REMARK                         _______ _______ _______ _____ _____    ______ ____
ROOT
ATOM      1  N   UNL     1      33.268 -22.722 -14.632  0.00  0.00    -0.321 N 
ATOM      2  N   UNL     1      34.936 -23.259 -13.082  0.00  0.00    -0.233 NA
ATOM      3  N   UNL     1      37.259 -23.165 -13.718  0.00  0.00    -0.234 NA
ATOM      4  C   UNL     1      34.616 -22.870 -14.333  0.00  0.00    +0.113 C 
ATOM      5  C   UNL     1      35.548 -22.612 -15.319  0.00  0.00    +0.129 C 
ATOM      6  C   UNL     1      36.867 -22.778 -14.950  0.00  0.00    +0.110 C 
ATOM      7  C   UNL     1      36.256 -23.385 -12.846  0.00  0.00    +0.252 C 
ATOM      8  H   UNL     1      33.023 -22.438 -15.542  0.00  0.00    +0.148 HD
ATOM      9  N   UNL     1      37.881 -22.529 -15.909  0.00  0.00    -0.346 N 
ATOM     10  H   UNL     1      38.828 -22.642 -15.664  0.00  0.00    +0.143 HD
ATOM     11  H   UNL     1      37.638 -22.244 -16.819  0.00  0.00    +0.143 HD
ENDROOT
BRANCH   5  12
ATOM     12  C   UNL     1      35.165 -22.193 -16.652  0.00  0.00    -0.009 C 
ATOM     13  C   UNL     1      36.063 -21.475 -17.444  0.00  0.00    -0.000 C 
ATOM     14  C   UNL     1      33.898 -22.505 -17.145  0.00  0.00    -0.000 C 
ATOM     15  C   UNL     1      35.694 -21.071 -18.726  0.00  0.00    +0.037 C 
ATOM     16  C   UNL     1      33.529 -22.101 -18.428  0.00  0.00    +0.037 C 
ATOM     17  C   UNL     1      34.427 -21.383 -19.218  0.00  0.00    +0.145 C 
BRANCH  17  18
ATOM     18  O   UNL     1      34.066 -20.987 -20.469  0.00  0.00    -0.453 OA
BRANCH  18  19
ATOM     19  C   UNL     1      34.647 -19.835 -20.973  0.00  0.00    +0.145 C 
ATOM     20  C   UNL     1      35.886 -19.410 -20.493  0.00  0.00    +0.037 C 
ATOM     21  C   UNL     1      33.995 -19.101 -21.963  0.00  0.00    +0.037 C 
ATOM     22  C   UNL     1      36.472 -18.251 -21.002  0.00  0.00    +0.003 C 
ATOM     23  C   UNL     1      34.579 -17.941 -22.471  0.00  0.00    +0.003 C 
ATOM     24  C   UNL     1      35.818 -17.516 -21.990  0.00  0.00    +0.000 C 
ENDBRANCH  18  19
ENDBRANCH  17  18
ENDBRANCH   5  12
BRANCH   1  25
ATOM     25  C   UNL     1      32.207 -22.963 -13.689  0.00  0.00    +0.088 C 
BRANCH  25  28
ATOM     26  O   UNL     1      26.145 -22.285 -14.938  0.00  0.00    -0.270 OA
ATOM     27  N   UNL     1      28.293 -22.972 -15.506  0.00  0.00    -0.276 N 
ATOM     28  C   UNL     1      30.956 -23.432 -14.428  0.00  0.00    +0.023 C 
ATOM     29  C   UNL     1      29.720 -23.342 -13.523  0.00  0.00    +0.023 C 
ATOM     30  C   UNL     1      30.733 -22.607 -15.703  0.00  0.00    +0.023 C 
ATOM     31  C   UNL     1      28.460 -23.753 -14.279  0.00  0.00    +0.094 C 
ATOM     32  C   UNL     1      29.445 -23.013 -16.421  0.00  0.00    +0.094 C 
ATOM     33  C   UNL     1      27.092 -22.301 -15.725  0.00  0.00    +0.249 C 
BRANCH  33  34
ATOM     34  C   UNL     1      26.940 -21.558 -16.992  0.00  0.00    +0.058 C 
ATOM     35  C   UNL     1      25.745 -21.052 -17.302  0.00  0.00    +0.005 C 
ENDBRANCH  33  34
ENDBRANCH  25  28
ENDBRANCH   1  25
TORSDOF 6
ENDMDL
MODEL 4
REMARK VINA RESULT:     -10.7      9.540     16.684
REMARK  Name = 71479709
REMARK  6 active torsions:
REMARK  status: ('A' for Active; 'I' for Inactive)
REMARK    1  A    between atoms: N_1  and  C_25
REMARK    2  A    between atoms: C_5  and  C_9
REMARK    3  A    between atoms: C_14  and  O_15
REMARK    4  A    between atoms: O_15  and  C_16
REMARK    5  A    between atoms: C_25  and  C_28
REMARK    6  A    between atoms: C_33  and  C_34
REMARK                            x       y       z     vdW  Elec       q    Type
REMARK                         _______ _______ _______ _____ _____    ______ ____
ROOT
ATOM      1  N   UNL     1      33.293 -22.681 -17.377  0.00  0.00    -0.321 N 
ATOM      2  N   UNL     1      30.978 -22.356 -17.283  0.00  0.00    -0.233 NA
ATOM      3  N   UNL     1      29.823 -22.462 -15.170  0.00  0.00    -0.234 NA
ATOM      4  C   UNL     1      32.127 -22.610 -16.625  0.00  0.00    +0.113 C 
ATOM      5  C   UNL     1      32.205 -22.798 -15.260  0.00  0.00    +0.129 C 
ATOM      6  C   UNL     1      31.008 -22.713 -14.578  0.00  0.00    +0.110 C 
ATOM      7  C   UNL     1      29.880 -22.297 -16.506  0.00  0.00    +0.252 C 
ATOM      8  H   UNL     1      34.138 -22.865 -16.907  0.00  0.00    +0.148 HD
ATOM      9  N   UNL     1      31.009 -22.894 -13.171  0.00  0.00    -0.346 N 
ATOM     10  H   UNL     1      30.165 -22.835 -12.667  0.00  0.00    +0.143 HD
ATOM     11  H   UNL     1      31.853 -23.076 -12.699  0.00  0.00    +0.143 HD
ENDROOT
BRANCH   5  12
ATOM     12  C   UNL     1      33.460 -23.068 -14.587  0.00  0.00    -0.009 C 
ATOM     13  C   UNL     1      33.644 -24.272 -13.906  0.00  0.00    -0.000 C 
ATOM     14  C   UNL     1      34.485 -22.122 -14.618  0.00  0.00    -0.000 C 
ATOM     15  C   UNL     1      34.851 -24.529 -13.258  0.00  0.00    +0.037 C 
ATOM     16  C   UNL     1      35.693 -22.380 -13.970  0.00  0.00    +0.037 C 
ATOM     17  C   UNL     1      35.875 -23.584 -13.289  0.00  0.00    +0.145 C 
BRANCH  17  18
ATOM     18  O   UNL     1      37.053 -23.834 -12.654  0.00  0.00    -0.453 OA
BRANCH  18  19
ATOM     19  C   UNL     1      38.090 -24.361 -13.406  0.00  0.00    +0.145 C 
ATOM     20  C   UNL     1      38.384 -23.827 -14.661  0.00  0.00    +0.037 C 
ATOM     21  C   UNL     1      38.843 -25.424 -12.908  0.00  0.00    +0.037 C 
ATOM     22  C   UNL     1      39.430 -24.356 -15.417  0.00  0.00    +0.003 C 
ATOM     23  C   UNL     1      39.888 -25.954 -13.664  0.00  0.00    +0.003 C 
ATOM     24  C   UNL     1      40.181 -25.420 -14.919  0.00  0.00    +0.000 C 
ENDBRANCH  18  19
ENDBRANCH  17  18
ENDBRANCH   5  12
BRANCH   1  25
ATOM     25  C   UNL     1      33.337 -22.502 -18.805  0.00  0.00    +0.088 C 
BRANCH  25  28
ATOM     26  O   UNL     1      36.492 -18.615 -22.507  0.00  0.00    -0.270 OA
ATOM     27  N   UNL     1      34.785 -19.078 -20.997  0.00  0.00    -0.276 N 
ATOM     28  C   UNL     1      33.801 -21.085 -19.133  0.00  0.00    +0.023 C 
ATOM     29  C   UNL     1      35.251 -21.086 -19.634  0.00  0.00    +0.023 C 
ATOM     30  C   UNL     1      32.886 -20.440 -20.183  0.00  0.00    +0.023 C 
ATOM     31  C   UNL     1      35.697 -19.678 -20.020  0.00  0.00    +0.094 C 
ATOM     32  C   UNL     1      33.375 -19.046 -20.580  0.00  0.00    +0.094 C 
ATOM     33  C   UNL     1      35.304 -18.572 -22.186  0.00  0.00    +0.249 C 
BRANCH  33  34
ATOM     34  C   UNL     1      34.365 -17.935 -23.130  0.00  0.00    +0.058 C 
ATOM     35  C   UNL     1      34.392 -16.607 -23.269  0.00  0.00    +0.005 C 
ENDBRANCH  33  34
ENDBRANCH  25  28
ENDBRANCH   1  25
TORSDOF 6
ENDMDL
MODEL 5
REMARK VINA RESULT:     -10.2      2.360      9.169
REMARK  Name = 71479709
REMARK  6 active torsions:
REMARK  status: ('A' for Active; 'I' for Inactive)
REMARK    1  A    between atoms: N_1  and  C_25
REMARK    2  A    between atoms: C_5  and  C_9
REMARK    3  A    between atoms: C_14  and  O_15
REMARK    4  A    between atoms: O_15  and  C_16
REMARK    5  A    between atoms: C_25  and  C_28
REMARK    6  A    between atoms: C_33  and  C_34
REMARK                            x       y       z     vdW  Elec       q    Type
REMARK                         _______ _______ _______ _____ _____    ______ ____
ROOT
ATOM      1  N   UNL     1      31.329  -6.795 -23.486  0.00  0.00    -0.321 N 
ATOM      2  N   UNL     1      31.384  -5.338 -21.656  0.00  0.00    -0.233 NA
ATOM      3  N   UNL     1      31.853  -6.181 -19.448  0.00  0.00    -0.234 NA
ATOM      4  C   UNL     1      31.506  -6.598 -22.122  0.00  0.00    +0.113 C 
ATOM      5  C   UNL     1      31.797  -7.687 -21.325  0.00  0.00    +0.129 C 
ATOM      6  C   UNL     1      31.960  -7.415 -19.982  0.00  0.00    +0.110 C 
ATOM      7  C   UNL     1      31.567  -5.204 -20.329  0.00  0.00    +0.252 C 
ATOM      8  H   UNL     1      31.416  -7.711 -23.837  0.00  0.00    +0.148 HD
ATOM      9  N   UNL     1      32.263  -8.484 -19.101  0.00  0.00    -0.346 N 
ATOM     10  H   UNL     1      32.385  -8.310 -18.140  0.00  0.00    +0.143 HD
ATOM     11  H   UNL     1      32.352  -9.400 -19.451  0.00  0.00    +0.143 HD
ENDROOT
BRANCH   5  12
ATOM     12  C   UNL     1      31.922  -9.027 -21.864  0.00  0.00    -0.009 C 
ATOM     13  C   UNL     1      32.936  -9.321 -22.776  0.00  0.00    -0.000 C 
ATOM     14  C   UNL     1      31.028 -10.023 -21.472  0.00  0.00    -0.000 C 
ATOM     15  C   UNL     1      33.055 -10.609 -23.295  0.00  0.00    +0.037 C 
ATOM     16  C   UNL     1      31.147 -11.311 -21.991  0.00  0.00    +0.037 C 
ATOM     17  C   UNL     1      32.161 -11.604 -22.903  0.00  0.00    +0.145 C 
BRANCH  17  18
ATOM     18  O   UNL     1      32.276 -12.862 -23.411  0.00  0.00    -0.453 OA
BRANCH  18  19
ATOM     19  C   UNL     1      32.999 -13.789 -22.679  0.00  0.00    +0.145 C 
ATOM     20  C   UNL     1      33.730 -14.780 -23.335  0.00  0.00    +0.037 C 
ATOM     21  C   UNL     1      32.997 -13.732 -21.286  0.00  0.00    +0.037 C 
ATOM     22  C   UNL     1      34.458 -15.713 -22.597  0.00  0.00    +0.003 C 
ATOM     23  C   UNL     1      33.724 -14.665 -20.548  0.00  0.00    +0.003 C 
ATOM     24  C   UNL     1      34.455 -15.656 -21.203  0.00  0.00    +0.000 C 
ENDBRANCH  18  19
ENDBRANCH  17  18
ENDBRANCH   5  12
BRANCH   1  25
ATOM     25  C   UNL     1      31.023  -5.739 -24.415  0.00  0.00    +0.088 C 
BRANCH  25  28
ATOM     26  O   UNL     1      35.191  -2.536 -27.753  0.00  0.00    -0.270 OA
ATOM     27  N   UNL     1      34.389  -4.510 -26.819  0.00  0.00    -0.276 N 
ATOM     28  C   UNL     1      32.075  -5.705 -25.521  0.00  0.00    +0.023 C 
ATOM     29  C   UNL     1      31.968  -4.410 -26.338  0.00  0.00    +0.023 C 
ATOM     30  C   UNL     1      33.488  -5.839 -24.936  0.00  0.00    +0.023 C 
ATOM     31  C   UNL     1      33.057  -4.346 -27.405  0.00  0.00    +0.094 C 
ATOM     32  C   UNL     1      34.561  -5.734 -26.021  0.00  0.00    +0.094 C 
ATOM     33  C   UNL     1      35.367  -3.552 -27.079  0.00  0.00    +0.249 C 
BRANCH  33  34
ATOM     34  C   UNL     1      36.712  -3.770 -26.510  0.00  0.00    +0.058 C 
ATOM     35  C   UNL     1      37.701  -2.945 -26.860  0.00  0.00    +0.005 C 
ENDBRANCH  33  34
ENDBRANCH  25  28
ENDBRANCH   1  25
TORSDOF 6
ENDMDL
MODEL 6
REMARK VINA RESULT:     -10.0      9.640     15.644
REMARK  Name = 71479709
REMARK  6 active torsions:
REMARK  status: ('A' for Active; 'I' for Inactive)
REMARK    1  A    between atoms: N_1  and  C_25
REMARK    2  A    between atoms: C_5  and  C_9
REMARK    3  A    between atoms: C_14  and  O_15
REMARK    4  A    between atoms: O_15  and  C_16
REMARK    5  A    between atoms: C_25  and  C_28
REMARK    6  A    between atoms: C_33  and  C_34
REMARK                            x       y       z     vdW  Elec       q    Type
REMARK                         _______ _______ _______ _____ _____    ______ ____
ROOT
ATOM      1  N   UNL     1      33.437 -22.817 -17.470  0.00  0.00    -0.321 N 
ATOM      2  N   UNL     1      35.530 -22.774 -16.427  0.00  0.00    -0.233 NA
ATOM      3  N   UNL     1      35.694 -22.946 -14.028  0.00  0.00    -0.234 NA
ATOM      4  C   UNL     1      34.190 -22.860 -16.303  0.00  0.00    +0.113 C 
ATOM      5  C   UNL     1      33.536 -22.989 -15.094  0.00  0.00    +0.129 C 
ATOM      6  C   UNL     1      34.348 -23.026 -13.979  0.00  0.00    +0.110 C 
ATOM      7  C   UNL     1      36.211 -22.823 -15.266  0.00  0.00    +0.252 C 
ATOM      8  H   UNL     1      32.458 -22.879 -17.392  0.00  0.00    +0.148 HD
ATOM      9  N   UNL     1      33.748 -23.160 -12.701  0.00  0.00    -0.346 N 
ATOM     10  H   UNL     1      34.311 -23.189 -11.894  0.00  0.00    +0.143 HD
ATOM     11  H   UNL     1      32.769 -23.224 -12.622  0.00  0.00    +0.143 HD
ENDROOT
BRANCH   5  12
ATOM     12  C   UNL     1      32.093 -23.080 -15.003  0.00  0.00    -0.009 C 
ATOM     13  C   UNL     1      31.450 -24.287 -15.283  0.00  0.00    -0.000 C 
ATOM     14  C   UNL     1      31.344 -21.962 -14.636  0.00  0.00    -0.000 C 
ATOM     15  C   UNL     1      30.061 -24.373 -15.197  0.00  0.00    +0.037 C 
ATOM     16  C   UNL     1      29.956 -22.048 -14.549  0.00  0.00    +0.037 C 
ATOM     17  C   UNL     1      29.314 -23.255 -14.831  0.00  0.00    +0.145 C 
BRANCH  17  18
ATOM     18  O   UNL     1      27.958 -23.339 -14.748  0.00  0.00    -0.453 OA
BRANCH  18  19
ATOM     19  C   UNL     1      27.211 -22.657 -15.694  0.00  0.00    +0.145 C 
ATOM     20  C   UNL     1      27.346 -22.969 -17.047  0.00  0.00    +0.037 C 
ATOM     21  C   UNL     1      26.322 -21.660 -15.294  0.00  0.00    +0.037 C 
ATOM     22  C   UNL     1      26.592 -22.283 -17.999  0.00  0.00    +0.003 C 
ATOM     23  C   UNL     1      25.569 -20.973 -16.246  0.00  0.00    +0.003 C 
ATOM     24  C   UNL     1      25.704 -21.285 -17.600  0.00  0.00    +0.000 C 
ENDBRANCH  18  19
ENDBRANCH  17  18
ENDBRANCH   5  12
BRANCH   1  25
ATOM     25  C   UNL     1      34.005 -22.684 -18.786  0.00  0.00    +0.088 C 
BRANCH  25  28
ATOM     26  O   UNL     1      36.371 -18.284 -22.502  0.00  0.00    -0.270 OA
ATOM     27  N   UNL     1      34.778 -19.058 -20.994  0.00  0.00    -0.276 N 
ATOM     28  C   UNL     1      34.189 -21.206 -19.122  0.00  0.00    +0.023 C 
ATOM     29  C   UNL     1      35.615 -20.931 -19.617  0.00  0.00    +0.023 C 
ATOM     30  C   UNL     1      33.172 -20.755 -20.178  0.00  0.00    +0.023 C 
ATOM     31  C   UNL     1      35.784 -19.467 -20.011  0.00  0.00    +0.094 C 
ATOM     32  C   UNL     1      33.386 -19.295 -20.582  0.00  0.00    +0.094 C 
ATOM     33  C   UNL     1      35.195 -18.468 -22.185  0.00  0.00    +0.249 C 
BRANCH  33  34
ATOM     34  C   UNL     1      34.155 -18.028 -23.136  0.00  0.00    +0.058 C 
ATOM     35  C   UNL     1      34.256 -16.817 -23.687  0.00  0.00    +0.005 C 
ENDBRANCH  33  34
ENDBRANCH  25  28
ENDBRANCH   1  25
TORSDOF 6
ENDMDL
MODEL 7
REMARK VINA RESULT:     -10.0     11.160     15.596
REMARK  Name = 71479709
REMARK  6 active torsions:
REMARK  status: ('A' for Active; 'I' for Inactive)
REMARK    1  A    between atoms: N_1  and  C_25
REMARK    2  A    between atoms: C_5  and  C_9
REMARK    3  A    between atoms: C_14  and  O_15
REMARK    4  A    between atoms: O_15  and  C_16
REMARK    5  A    between atoms: C_25  and  C_28
REMARK    6  A    between atoms: C_33  and  C_34
REMARK                            x       y       z     vdW  Elec       q    Type
REMARK                         _______ _______ _______ _____ _____    ______ ____
ROOT
ATOM      1  N   UNL     1      33.906 -23.324 -14.007  0.00  0.00    -0.321 N 
ATOM      2  N   UNL     1      31.749 -23.492 -13.118  0.00  0.00    -0.233 NA
ATOM      3  N   UNL     1      29.834 -22.898 -14.457  0.00  0.00    -0.234 NA
ATOM      4  C   UNL     1      32.534 -23.176 -14.168  0.00  0.00    +0.113 C 
ATOM      5  C   UNL     1      32.051 -22.721 -15.378  0.00  0.00    +0.129 C 
ATOM      6  C   UNL     1      30.679 -22.600 -15.465  0.00  0.00    +0.110 C 
ATOM      7  C   UNL     1      30.428 -23.332 -13.328  0.00  0.00    +0.252 C 
ATOM      8  H   UNL     1      34.488 -23.096 -14.768  0.00  0.00    +0.148 HD
ATOM      9  N   UNL     1      30.109 -22.140 -16.679  0.00  0.00    -0.346 N 
ATOM     10  H   UNL     1      29.132 -22.048 -16.761  0.00  0.00    +0.143 HD
ATOM     11  H   UNL     1      30.690 -21.914 -17.441  0.00  0.00    +0.143 HD
ENDROOT
BRANCH   5  12
ATOM     12  C   UNL     1      32.927 -22.393 -16.485  0.00  0.00    -0.009 C 
ATOM     13  C   UNL     1      34.284 -22.160 -16.257  0.00  0.00    -0.000 C 
ATOM     14  C   UNL     1      32.414 -22.307 -17.780  0.00  0.00    -0.000 C 
ATOM     15  C   UNL     1      35.126 -21.842 -17.322  0.00  0.00    +0.037 C 
ATOM     16  C   UNL     1      33.257 -21.990 -18.845  0.00  0.00    +0.037 C 
ATOM     17  C   UNL     1      34.613 -21.757 -18.615  0.00  0.00    +0.145 C 
BRANCH  17  18
ATOM     18  O   UNL     1      35.435 -21.445 -19.655  0.00  0.00    -0.453 OA
BRANCH  18  19
ATOM     19  C   UNL     1      35.283 -20.202 -20.246  0.00  0.00    +0.145 C 
ATOM     20  C   UNL     1      36.403 -19.414 -20.511  0.00  0.00    +0.037 C 
ATOM     21  C   UNL     1      34.011 -19.739 -20.579  0.00  0.00    +0.037 C 
ATOM     22  C   UNL     1      36.250 -18.163 -21.108  0.00  0.00    +0.003 C 
ATOM     23  C   UNL     1      33.857 -18.487 -21.174  0.00  0.00    +0.003 C 
ATOM     24  C   UNL     1      34.977 -17.699 -21.439  0.00  0.00    +0.000 C 
ENDBRANCH  18  19
ENDBRANCH  17  18
ENDBRANCH   5  12
BRANCH   1  25
ATOM     25  C   UNL     1      34.525 -23.788 -12.794  0.00  0.00    +0.088 C 
BRANCH  25  28
ATOM     26  O   UNL     1      39.654 -25.664 -15.786  0.00  0.00    -0.270 OA
ATOM     27  N   UNL     1      38.145 -25.792 -14.021  0.00  0.00    -0.276 N 
ATOM     28  C   UNL     1      35.529 -24.892 -13.118  0.00  0.00    +0.023 C 
ATOM     29  C   UNL     1      35.937 -24.845 -14.597  0.00  0.00    +0.023 C 
ATOM     30  C   UNL     1      36.774 -24.777 -12.228  0.00  0.00    +0.023 C 
ATOM     31  C   UNL     1      36.986 -25.908 -14.908  0.00  0.00    +0.094 C 
ATOM     32  C   UNL     1      37.824 -25.830 -12.585  0.00  0.00    +0.094 C 
ATOM     33  C   UNL     1      39.418 -25.693 -14.577  0.00  0.00    +0.249 C 
BRANCH  33  34
ATOM     34  C   UNL     1      40.569 -25.621 -13.655  0.00  0.00    +0.058 C 
ATOM     35  C   UNL     1      41.242 -26.740 -13.376  0.00  0.00    +0.005 C 
ENDBRANCH  33  34
ENDBRANCH  25  28
ENDBRANCH   1  25
TORSDOF 6
ENDMDL
MODEL 8
REMARK VINA RESULT:      -9.9      2.442      9.376
REMARK  Name = 71479709
REMARK  6 active torsions:
REMARK  status: ('A' for Active; 'I' for Inactive)
REMARK    1  A    between atoms: N_1  and  C_25
REMARK    2  A    between atoms: C_5  and  C_9
REMARK    3  A    between atoms: C_14  and  O_15
REMARK    4  A    between atoms: O_15  and  C_16
REMARK    5  A    between atoms: C_25  and  C_28
REMARK    6  A    between atoms: C_33  and  C_34
REMARK                            x       y       z     vdW  Elec       q    Type
REMARK                         _______ _______ _______ _____ _____    ______ ____
ROOT
ATOM      1  N   UNL     1      31.047  -6.534 -23.442  0.00  0.00    -0.321 N 
ATOM      2  N   UNL     1      31.249  -5.077 -21.623  0.00  0.00    -0.233 NA
ATOM      3  N   UNL     1      31.907  -5.918 -19.462  0.00  0.00    -0.234 NA
ATOM      4  C   UNL     1      31.338  -6.336 -22.098  0.00  0.00    +0.113 C 
ATOM      5  C   UNL     1      31.701  -7.423 -21.328  0.00  0.00    +0.129 C 
ATOM      6  C   UNL     1      31.975  -7.151 -20.004  0.00  0.00    +0.110 C 
ATOM      7  C   UNL     1      31.543  -4.941 -20.315  0.00  0.00    +0.252 C 
ATOM      8  H   UNL     1      31.110  -7.450 -23.799  0.00  0.00    +0.148 HD
ATOM      9  N   UNL     1      32.357  -8.218 -19.152  0.00  0.00    -0.346 N 
ATOM     10  H   UNL     1      32.558  -8.043 -18.204  0.00  0.00    +0.143 HD
ATOM     11  H   UNL     1      32.422  -9.133 -19.508  0.00  0.00    +0.143 HD
ENDROOT
BRANCH   5  12
ATOM     12  C   UNL     1      31.787  -8.763 -21.876  0.00  0.00    -0.009 C 
ATOM     13  C   UNL     1      30.850  -9.729 -21.510  0.00  0.00    -0.000 C 
ATOM     14  C   UNL     1      32.810  -9.087 -22.768  0.00  0.00    -0.000 C 
ATOM     15  C   UNL     1      30.935 -11.018 -22.035  0.00  0.00    +0.037 C 
ATOM     16  C   UNL     1      32.894 -10.375 -23.294  0.00  0.00    +0.037 C 
ATOM     17  C   UNL     1      31.957 -11.341 -22.926  0.00  0.00    +0.145 C 
BRANCH  17  18
ATOM     18  O   UNL     1      32.041 -12.600 -23.438  0.00  0.00    -0.453 OA
BRANCH  18  19
ATOM     19  C   UNL     1      32.797 -13.529 -22.744  0.00  0.00    +0.145 C 
ATOM     20  C   UNL     1      33.543 -14.482 -23.438  0.00  0.00    +0.037 C 
ATOM     21  C   UNL     1      32.815 -13.512 -21.350  0.00  0.00    +0.037 C 
ATOM     22  C   UNL     1      34.306 -15.416 -22.738  0.00  0.00    +0.003 C 
ATOM     23  C   UNL     1      33.576 -14.447 -20.649  0.00  0.00    +0.003 C 
ATOM     24  C   UNL     1      34.322 -15.400 -21.344  0.00  0.00    +0.000 C 
ENDBRANCH  18  19
ENDBRANCH  17  18
ENDBRANCH   5  12
BRANCH   1  25
ATOM     25  C   UNL     1      30.658  -5.481 -24.341  0.00  0.00    +0.088 C 
BRANCH  25  28
ATOM     26  O   UNL     1      33.590  -5.083 -29.820  0.00  0.00    -0.270 OA
ATOM     27  N   UNL     1      33.136  -4.309 -27.674  0.00  0.00    -0.276 N 
ATOM     28  C   UNL     1      31.867  -5.026 -25.156  0.00  0.00    +0.023 C 
ATOM     29  C   UNL     1      32.253  -6.083 -26.199  0.00  0.00    +0.023 C 
ATOM     30  C   UNL     1      31.586  -3.685 -25.849  0.00  0.00    +0.023 C 
ATOM     31  C   UNL     1      33.423  -5.604 -27.054  0.00  0.00    +0.094 C 
ATOM     32  C   UNL     1      32.757  -3.247 -26.729  0.00  0.00    +0.094 C 
ATOM     33  C   UNL     1      33.271  -4.173 -29.054  0.00  0.00    +0.249 C 
BRANCH  33  34
ATOM     34  C   UNL     1      33.017  -2.843 -29.642  0.00  0.00    +0.058 C 
ATOM     35  C   UNL     1      34.048  -2.017 -29.837  0.00  0.00    +0.005 C 
ENDBRANCH  33  34
ENDBRANCH  25  28
ENDBRANCH   1  25
TORSDOF 6
ENDMDL
MODEL 9
REMARK VINA RESULT:      -9.9     11.685     15.598
REMARK  Name = 71479709
REMARK  6 active torsions:
REMARK  status: ('A' for Active; 'I' for Inactive)
REMARK    1  A    between atoms: N_1  and  C_25
REMARK    2  A    between atoms: C_5  and  C_9
REMARK    3  A    between atoms: C_14  and  O_15
REMARK    4  A    between atoms: O_15  and  C_16
REMARK    5  A    between atoms: C_25  and  C_28
REMARK    6  A    between atoms: C_33  and  C_34
REMARK                            x       y       z     vdW  Elec       q    Type
REMARK                         _______ _______ _______ _____ _____    ______ ____
ROOT
ATOM      1  N   UNL     1      34.049 -23.522 -13.745  0.00  0.00    -0.321 N 
ATOM      2  N   UNL     1      35.987 -24.153 -12.597  0.00  0.00    -0.233 NA
ATOM      3  N   UNL     1      38.147 -23.915 -13.640  0.00  0.00    -0.234 NA
ATOM      4  C   UNL     1      35.432 -23.652 -13.719  0.00  0.00    +0.113 C 
ATOM      5  C   UNL     1      36.157 -23.265 -14.828  0.00  0.00    +0.129 C 
ATOM      6  C   UNL     1      37.524 -23.422 -14.731  0.00  0.00    +0.110 C 
ATOM      7  C   UNL     1      37.330 -24.256 -12.625  0.00  0.00    +0.252 C 
ATOM      8  H   UNL     1      33.633 -23.156 -14.559  0.00  0.00    +0.148 HD
ATOM      9  N   UNL     1      38.336 -23.044 -15.830  0.00  0.00    -0.346 N 
ATOM     10  H   UNL     1      39.314 -23.147 -15.779  0.00  0.00    +0.143 HD
ATOM     11  H   UNL     1      37.921 -22.677 -16.644  0.00  0.00    +0.143 HD
ENDROOT
BRANCH   5  12
ATOM     12  C   UNL     1      35.524 -22.728 -16.017  0.00  0.00    -0.009 C 
ATOM     13  C   UNL     1      34.249 -23.160 -16.384  0.00  0.00    -0.000 C 
ATOM     14  C   UNL     1      36.189 -21.781 -16.795  0.00  0.00    -0.000 C 
ATOM     15  C   UNL     1      33.641 -22.645 -17.528  0.00  0.00    +0.037 C 
ATOM     16  C   UNL     1      35.581 -21.266 -17.939  0.00  0.00    +0.037 C 
ATOM     17  C   UNL     1      34.307 -21.699 -18.306  0.00  0.00    +0.145 C 
BRANCH  17  18
ATOM     18  O   UNL     1      33.714 -21.197 -19.424  0.00  0.00    -0.453 OA
BRANCH  18  19
ATOM     19  C   UNL     1      34.383 -20.203 -20.118  0.00  0.00    +0.145 C 
ATOM     20  C   UNL     1      33.678 -19.345 -20.963  0.00  0.00    +0.037 C 
ATOM     21  C   UNL     1      35.762 -20.058 -19.971  0.00  0.00    +0.037 C 
ATOM     22  C   UNL     1      34.353 -18.344 -21.660  0.00  0.00    +0.003 C 
ATOM     23  C   UNL     1      36.437 -19.057 -20.669  0.00  0.00    +0.003 C 
ATOM     24  C   UNL     1      35.733 -18.200 -21.514  0.00  0.00    +0.000 C 
ENDBRANCH  18  19
ENDBRANCH  17  18
ENDBRANCH   5  12
BRANCH   1  25
ATOM     25  C   UNL     1      33.189 -23.891 -12.652  0.00  0.00    +0.088 C 
BRANCH  25  28
ATOM     26  O   UNL     1      28.958 -21.858 -16.743  0.00  0.00    -0.270 OA
ATOM     27  N   UNL     1      29.561 -23.016 -14.817  0.00  0.00    -0.276 N 
ATOM     28  C   UNL     1      31.754 -23.471 -12.960  0.00  0.00    +0.023 C 
ATOM     29  C   UNL     1      31.728 -22.261 -13.903  0.00  0.00    +0.023 C 
ATOM     30  C   UNL     1      30.965 -24.634 -13.579  0.00  0.00    +0.023 C 
ATOM     31  C   UNL     1      30.295 -21.877 -14.261  0.00  0.00    +0.094 C 
ATOM     32  C   UNL     1      29.546 -24.213 -13.963  0.00  0.00    +0.094 C 
ATOM     33  C   UNL     1      28.926 -22.876 -16.050  0.00  0.00    +0.249 C 
BRANCH  33  34
ATOM     34  C   UNL     1      28.158 -24.028 -16.562  0.00  0.00    +0.058 C 
ATOM     35  C   UNL     1      27.074 -23.799 -17.308  0.00  0.00    +0.005 C 
ENDBRANCH  33  34
ENDBRANCH  25  28
ENDBRANCH   1  25
TORSDOF 6
ENDMDL
