MODEL 1
REMARK VINA RESULT:     -10.9      0.000      0.000
REMARK  Name = 46926350
REMARK  7 active torsions:
REMARK  status: ('A' for Active; 'I' for Inactive)
REMARK    1  A    between atoms: C_5  and  C_28
REMARK    2  A    between atoms: C_12  and  N_16
REMARK    3  A    between atoms: C_14  and  C_26
REMARK    4  A    between atoms: N_16  and  C_18
REMARK    5  A    between atoms: C_18  and  C_21
REMARK    6  A    between atoms: C_28  and  C_29
REMARK    7  A    between atoms: C_29  and  O_30
REMARK                            x       y       z     vdW  Elec       q    Type
REMARK                         _______ _______ _______ _____ _____    ______ ____
ROOT
ATOM      1  N   UNL     1      36.118 -24.178 -13.954  0.00  0.00    -0.285 N 
ATOM      2  N   UNL     1      33.827 -24.106 -14.214  0.00  0.00    -0.374 NA
ATOM      3  N   UNL     1      32.893 -22.858 -16.049  0.00  0.00    -0.152 N 
ATOM      4  N   UNL     1      31.677 -22.544 -16.580  0.00  0.00    -0.174 NA
ATOM      5  C   UNL     1      36.117 -24.275 -12.487  0.00  0.00    +0.078 C 
ATOM      6  C   UNL     1      36.785 -25.582 -12.037  0.00  0.00    +0.020 C 
ATOM      7  C   UNL     1      38.141 -25.814 -12.698  0.00  0.00    +0.003 C 
ATOM      8  C   UNL     1      37.392 -24.400 -14.643  0.00  0.00    +0.093 C 
ATOM      9  C   UNL     1      38.013 -25.725 -14.215  0.00  0.00    +0.022 C 
ATOM     10  C   UNL     1      35.022 -23.755 -14.630  0.00  0.00    +0.187 C 
ATOM     11  C   UNL     1      35.240 -22.892 -15.841  0.00  0.00    +0.079 C 
ATOM     12  C   UNL     1      34.158 -22.471 -16.514  0.00  0.00    +0.127 C 
ATOM     13  C   UNL     1      32.753 -23.661 -14.918  0.00  0.00    +0.191 C 
ATOM     14  C   UNL     1      31.402 -23.852 -14.740  0.00  0.00    +0.112 C 
ATOM     15  C   UNL     1      30.796 -23.146 -15.784  0.00  0.00    +0.100 C 
ENDROOT
BRANCH  12  16
ATOM     16  N   UNL     1      34.209 -21.684 -17.629  0.00  0.00    -0.316 N 
ATOM     17  H   UNL     1      33.399 -21.188 -17.889  0.00  0.00    +0.148 HD
BRANCH  16  18
ATOM     18  C   UNL     1      35.386 -21.542 -18.445  0.00  0.00    +0.117 C 
BRANCH  18  21
ATOM     19  O   UNL     1      36.999 -18.064 -21.356  0.00  0.00    -0.163 OA
ATOM     20  N   UNL     1      36.027 -18.784 -20.959  0.00  0.00    -0.127 N 
ATOM     21  C   UNL     1      35.159 -20.522 -19.525  0.00  0.00    +0.018 C 
ATOM     22  C   UNL     1      36.214 -19.728 -19.968  0.00  0.00    +0.119 C 
ATOM     23  C   UNL     1      33.899 -20.362 -20.090  0.00  0.00    +0.001 C 
ATOM     24  C   UNL     1      33.701 -19.415 -21.089  0.00  0.00    +0.022 C 
ATOM     25  C   UNL     1      34.771 -18.634 -21.513  0.00  0.00    +0.121 C 
ENDBRANCH  18  21
ENDBRANCH  16  18
ENDBRANCH  12  16
BRANCH  14  26
ATOM     26  C   UNL     1      30.737 -24.631 -13.680  0.00  0.00    +0.015 C 
ATOM     27  C   UNL     1      29.291 -25.003 -14.028  0.00  0.00    +0.001 C 
ENDBRANCH  14  26
BRANCH   5  28
ATOM     28  C   UNL     1      36.767 -23.037 -11.870  0.00  0.00    +0.052 C 
BRANCH  28  29
ATOM     29  C   UNL     1      36.015 -22.569 -10.639  0.00  0.00    +0.139 C 
BRANCH  29  30
ATOM     30  O   UNL     1      36.125 -23.569  -9.635  0.00  0.00    -0.382 OA
ATOM     31  H   UNL     1      35.290 -23.628  -9.144  0.00  0.00    +0.210 HD
ENDBRANCH  29  30
ENDBRANCH  28  29
ENDBRANCH   5  28
TORSDOF 7
ENDMDL
MODEL 2
REMARK VINA RESULT:     -10.6      2.992      7.434
REMARK  Name = 46926350
REMARK  7 active torsions:
REMARK  status: ('A' for Active; 'I' for Inactive)
REMARK    1  A    between atoms: C_5  and  C_28
REMARK    2  A    between atoms: C_12  and  N_16
REMARK    3  A    between atoms: C_14  and  C_26
REMARK    4  A    between atoms: N_16  and  C_18
REMARK    5  A    between atoms: C_18  and  C_21
REMARK    6  A    between atoms: C_28  and  C_29
REMARK    7  A    between atoms: C_29  and  O_30
REMARK                            x       y       z     vdW  Elec       q    Type
REMARK                         _______ _______ _______ _____ _____    ______ ____
ROOT
ATOM      1  N   UNL     1      30.721 -23.513 -15.102  0.00  0.00    -0.285 N 
ATOM      2  N   UNL     1      32.238 -22.810 -16.691  0.00  0.00    -0.374 NA
ATOM      3  N   UNL     1      34.468 -22.216 -16.004  0.00  0.00    -0.152 N 
ATOM      4  N   UNL     1      35.639 -21.774 -16.545  0.00  0.00    -0.174 NA
ATOM      5  C   UNL     1      29.523 -22.980 -15.767  0.00  0.00    +0.078 C 
ATOM      6  C   UNL     1      28.549 -24.117 -16.104  0.00  0.00    +0.020 C 
ATOM      7  C   UNL     1      28.274 -25.035 -14.916  0.00  0.00    +0.003 C 
ATOM      8  C   UNL     1      30.517 -24.407 -13.959  0.00  0.00    +0.093 C 
ATOM      9  C   UNL     1      29.584 -25.553 -14.332  0.00  0.00    +0.022 C 
ATOM     10  C   UNL     1      31.961 -23.079 -15.436  0.00  0.00    +0.187 C 
ATOM     11  C   UNL     1      32.969 -22.927 -14.331  0.00  0.00    +0.079 C 
ATOM     12  C   UNL     1      34.198 -22.497 -14.658  0.00  0.00    +0.127 C 
ATOM     13  C   UNL     1      33.492 -22.376 -16.987  0.00  0.00    +0.191 C 
ATOM     14  C   UNL     1      34.078 -22.021 -18.181  0.00  0.00    +0.112 C 
ATOM     15  C   UNL     1      35.388 -21.661 -17.848  0.00  0.00    +0.100 C 
ENDROOT
BRANCH  12  16
ATOM     16  N   UNL     1      35.209 -22.314 -13.758  0.00  0.00    -0.316 N 
ATOM     17  H   UNL     1      35.714 -21.470 -13.788  0.00  0.00    +0.148 HD
BRANCH  16  18
ATOM     18  C   UNL     1      35.573 -23.294 -12.768  0.00  0.00    +0.117 C 
BRANCH  18  21
ATOM     19  O   UNL     1      36.460 -26.946 -15.778  0.00  0.00    -0.163 OA
ATOM     20  N   UNL     1      36.889 -26.144 -14.886  0.00  0.00    -0.127 N 
ATOM     21  C   UNL     1      36.506 -24.316 -13.357  0.00  0.00    +0.018 C 
ATOM     22  C   UNL     1      36.049 -25.197 -14.333  0.00  0.00    +0.119 C 
ATOM     23  C   UNL     1      37.829 -24.389 -12.934  0.00  0.00    +0.001 C 
ATOM     24  C   UNL     1      38.682 -25.338 -13.486  0.00  0.00    +0.022 C 
ATOM     25  C   UNL     1      38.200 -26.208 -14.459  0.00  0.00    +0.121 C 
ENDBRANCH  18  21
ENDBRANCH  16  18
ENDBRANCH  12  16
BRANCH  14  26
ATOM     26  C   UNL     1      33.460 -22.019 -19.518  0.00  0.00    +0.015 C 
ATOM     27  C   UNL     1      32.633 -20.758 -19.794  0.00  0.00    +0.001 C 
ENDBRANCH  14  26
BRANCH   5  28
ATOM     28  C   UNL     1      28.882 -21.886 -14.913  0.00  0.00    +0.052 C 
BRANCH  28  29
ATOM     29  C   UNL     1      27.404 -21.735 -15.222  0.00  0.00    +0.139 C 
BRANCH  29  30
ATOM     30  O   UNL     1      27.269 -21.234 -16.544  0.00  0.00    -0.382 OA
ATOM     31  H   UNL     1      27.818 -21.760 -17.147  0.00  0.00    +0.210 HD
ENDBRANCH  29  30
ENDBRANCH  28  29
ENDBRANCH   5  28
TORSDOF 7
ENDMDL
MODEL 3
REMARK VINA RESULT:     -10.6      3.185      6.059
REMARK  Name = 46926350
REMARK  7 active torsions:
REMARK  status: ('A' for Active; 'I' for Inactive)
REMARK    1  A    between atoms: C_5  and  C_28
REMARK    2  A    between atoms: C_12  and  N_16
REMARK    3  A    between atoms: C_14  and  C_26
REMARK    4  A    between atoms: N_16  and  C_18
REMARK    5  A    between atoms: C_18  and  C_21
REMARK    6  A    between atoms: C_28  and  C_29
REMARK    7  A    between atoms: C_29  and  O_30
REMARK                            x       y       z     vdW  Elec       q    Type
REMARK                         _______ _______ _______ _____ _____    ______ ____
ROOT
ATOM      1  N   UNL     1      36.317 -24.156 -14.008  0.00  0.00    -0.285 N 
ATOM      2  N   UNL     1      35.176 -23.236 -15.790  0.00  0.00    -0.374 NA
ATOM      3  N   UNL     1      32.800 -22.892 -15.610  0.00  0.00    -0.152 N 
ATOM      4  N   UNL     1      31.761 -22.410 -16.350  0.00  0.00    -0.174 NA
ATOM      5  C   UNL     1      37.340 -24.849 -14.805  0.00  0.00    +0.078 C 
ATOM      6  C   UNL     1      38.739 -24.325 -14.452  0.00  0.00    +0.020 C 
ATOM      7  C   UNL     1      39.000 -24.297 -12.948  0.00  0.00    +0.003 C 
ATOM      8  C   UNL     1      36.521 -24.092 -12.559  0.00  0.00    +0.093 C 
ATOM      9  C   UNL     1      37.898 -23.525 -12.233  0.00  0.00    +0.022 C 
ATOM     10  C   UNL     1      35.162 -23.726 -14.571  0.00  0.00    +0.187 C 
ATOM     11  C   UNL     1      33.904 -23.835 -13.754  0.00  0.00    +0.079 C 
ATOM     12  C   UNL     1      32.758 -23.410 -14.308  0.00  0.00    +0.127 C 
ATOM     13  C   UNL     1      33.997 -22.815 -16.320  0.00  0.00    +0.191 C 
ATOM     14  C   UNL     1      33.692 -22.266 -17.544  0.00  0.00    +0.112 C 
ATOM     15  C   UNL     1      32.312 -22.040 -17.505  0.00  0.00    +0.100 C 
ENDROOT
BRANCH  12  16
ATOM     16  N   UNL     1      31.545 -23.450 -13.682  0.00  0.00    -0.316 N 
ATOM     17  H   UNL     1      31.369 -22.801 -12.963  0.00  0.00    +0.148 HD
BRANCH  16  18
ATOM     18  C   UNL     1      30.511 -24.393 -14.019  0.00  0.00    +0.117 C 
BRANCH  18  21
ATOM     19  O   UNL     1      27.051 -24.399 -17.366  0.00  0.00    -0.163 OA
ATOM     20  N   UNL     1      27.675 -23.772 -16.449  0.00  0.00    -0.127 N 
ATOM     21  C   UNL     1      29.394 -23.709 -14.756  0.00  0.00    +0.018 C 
ATOM     22  C   UNL     1      28.704 -24.383 -15.759  0.00  0.00    +0.119 C 
ATOM     23  C   UNL     1      29.040 -22.401 -14.443  0.00  0.00    +0.001 C 
ATOM     24  C   UNL     1      28.005 -21.778 -15.131  0.00  0.00    +0.022 C 
ATOM     25  C   UNL     1      27.332 -22.473 -16.131  0.00  0.00    +0.121 C 
ENDBRANCH  18  21
ENDBRANCH  16  18
ENDBRANCH  12  16
BRANCH  14  26
ATOM     26  C   UNL     1      34.615 -21.978 -18.655  0.00  0.00    +0.015 C 
ATOM     27  C   UNL     1      34.129 -20.838 -19.559  0.00  0.00    +0.001 C 
ENDBRANCH  14  26
BRANCH   5  28
ATOM     28  C   UNL     1      37.216 -26.363 -14.632  0.00  0.00    +0.052 C 
BRANCH  28  29
ATOM     29  C   UNL     1      35.997 -26.907 -15.352  0.00  0.00    +0.139 C 
BRANCH  29  30
ATOM     30  O   UNL     1      36.376 -27.264 -16.674  0.00  0.00    -0.382 OA
ATOM     31  H   UNL     1      36.760 -28.156 -16.671  0.00  0.00    +0.210 HD
ENDBRANCH  29  30
ENDBRANCH  28  29
ENDBRANCH   5  28
TORSDOF 7
ENDMDL
MODEL 4
REMARK VINA RESULT:     -10.1      2.912      6.501
REMARK  Name = 46926350
REMARK  7 active torsions:
REMARK  status: ('A' for Active; 'I' for Inactive)
REMARK    1  A    between atoms: C_5  and  C_28
REMARK    2  A    between atoms: C_12  and  N_16
REMARK    3  A    between atoms: C_14  and  C_26
REMARK    4  A    between atoms: N_16  and  C_18
REMARK    5  A    between atoms: C_18  and  C_21
REMARK    6  A    between atoms: C_28  and  C_29
REMARK    7  A    between atoms: C_29  and  O_30
REMARK                            x       y       z     vdW  Elec       q    Type
REMARK                         _______ _______ _______ _____ _____    ______ ____
ROOT
ATOM      1  N   UNL     1      34.939 -23.293 -14.869  0.00  0.00    -0.285 N 
ATOM      2  N   UNL     1      34.972 -22.206 -16.904  0.00  0.00    -0.374 NA
ATOM      3  N   UNL     1      32.911 -21.916 -18.114  0.00  0.00    -0.152 N 
ATOM      4  N   UNL     1      32.458 -21.374 -19.280  0.00  0.00    -0.174 NA
ATOM      5  C   UNL     1      36.281 -23.883 -14.973  0.00  0.00    +0.078 C 
ATOM      6  C   UNL     1      37.176 -23.380 -13.833  0.00  0.00    +0.020 C 
ATOM      7  C   UNL     1      36.519 -23.507 -12.461  0.00  0.00    +0.003 C 
ATOM      8  C   UNL     1      34.263 -23.379 -13.572  0.00  0.00    +0.093 C 
ATOM      9  C   UNL     1      35.153 -22.830 -12.463  0.00  0.00    +0.022 C 
ATOM     10  C   UNL     1      34.293 -22.822 -15.964  0.00  0.00    +0.187 C 
ATOM     11  C   UNL     1      32.807 -23.034 -16.042  0.00  0.00    +0.079 C 
ATOM     12  C   UNL     1      32.163 -22.569 -17.124  0.00  0.00    +0.127 C 
ATOM     13  C   UNL     1      34.289 -21.748 -17.986  0.00  0.00    +0.191 C 
ATOM     14  C   UNL     1      34.707 -21.077 -19.113  0.00  0.00    +0.112 C 
ATOM     15  C   UNL     1      33.545 -20.877 -19.866  0.00  0.00    +0.100 C 
ENDROOT
BRANCH  12  16
ATOM     16  N   UNL     1      30.817 -22.692 -17.326  0.00  0.00    -0.316 N 
ATOM     17  H   UNL     1      30.507 -23.122 -18.155  0.00  0.00    +0.148 HD
BRANCH  16  18
ATOM     18  C   UNL     1      29.831 -22.225 -16.387  0.00  0.00    +0.117 C 
BRANCH  18  21
ATOM     19  O   UNL     1      30.388 -22.985 -11.666  0.00  0.00    -0.163 OA
ATOM     20  N   UNL     1      30.077 -23.446 -12.811  0.00  0.00    -0.127 N 
ATOM     21  C   UNL     1      29.779 -23.127 -15.185  0.00  0.00    +0.018 C 
ATOM     22  C   UNL     1      30.117 -22.635 -13.928  0.00  0.00    +0.119 C 
ATOM     23  C   UNL     1      29.393 -24.456 -15.318  0.00  0.00    +0.001 C 
ATOM     24  C   UNL     1      29.348 -25.281 -14.200  0.00  0.00    +0.022 C 
ATOM     25  C   UNL     1      29.693 -24.765 -12.955  0.00  0.00    +0.121 C 
ENDBRANCH  18  21
ENDBRANCH  16  18
ENDBRANCH  12  16
BRANCH  14  26
ATOM     26  C   UNL     1      36.079 -20.661 -19.453  0.00  0.00    +0.015 C 
ATOM     27  C   UNL     1      36.124 -19.389 -20.308  0.00  0.00    +0.001 C 
ENDBRANCH  14  26
BRANCH   5  28
ATOM     28  C   UNL     1      36.190 -25.409 -15.022  0.00  0.00    +0.052 C 
BRANCH  28  29
ATOM     29  C   UNL     1      37.555 -26.052 -14.864  0.00  0.00    +0.139 C 
BRANCH  29  30
ATOM     30  O   UNL     1      37.412 -27.221 -14.068  0.00  0.00    -0.382 OA
ATOM     31  H   UNL     1      38.044 -27.894 -14.367  0.00  0.00    +0.210 HD
ENDBRANCH  29  30
ENDBRANCH  28  29
ENDBRANCH   5  28
TORSDOF 7
ENDMDL
MODEL 5
REMARK VINA RESULT:      -9.5      2.789      7.398
REMARK  Name = 46926350
REMARK  7 active torsions:
REMARK  status: ('A' for Active; 'I' for Inactive)
REMARK    1  A    between atoms: C_5  and  C_28
REMARK    2  A    between atoms: C_12  and  N_16
REMARK    3  A    between atoms: C_14  and  C_26
REMARK    4  A    between atoms: N_16  and  C_18
REMARK    5  A    between atoms: C_18  and  C_21
REMARK    6  A    between atoms: C_28  and  C_29
REMARK    7  A    between atoms: C_29  and  O_30
REMARK                            x       y       z     vdW  Elec       q    Type
REMARK                         _______ _______ _______ _____ _____    ______ ____
ROOT
ATOM      1  N   UNL     1      30.875 -23.446 -15.577  0.00  0.00    -0.285 N 
ATOM      2  N   UNL     1      31.979 -22.351 -17.281  0.00  0.00    -0.374 NA
ATOM      3  N   UNL     1      34.386 -22.287 -17.270  0.00  0.00    -0.152 N 
ATOM      4  N   UNL     1      35.416 -21.793 -18.015  0.00  0.00    -0.174 NA
ATOM      5  C   UNL     1      29.684 -22.585 -15.569  0.00  0.00    +0.078 C 
ATOM      6  C   UNL     1      28.428 -23.406 -15.888  0.00  0.00    +0.020 C 
ATOM      7  C   UNL     1      28.315 -24.672 -15.043  0.00  0.00    +0.003 C 
ATOM      8  C   UNL     1      30.820 -24.680 -14.789  0.00  0.00    +0.093 C 
ATOM      9  C   UNL     1      29.590 -25.501 -15.157  0.00  0.00    +0.022 C 
ATOM     10  C   UNL     1      32.028 -23.044 -16.167  0.00  0.00    +0.187 C 
ATOM     11  C   UNL     1      33.321 -23.423 -15.501  0.00  0.00    +0.079 C 
ATOM     12  C   UNL     1      34.465 -23.027 -16.082  0.00  0.00    +0.127 C 
ATOM     13  C   UNL     1      33.156 -21.966 -17.842  0.00  0.00    +0.191 C 
ATOM     14  C   UNL     1      33.431 -21.247 -18.983  0.00  0.00    +0.112 C 
ATOM     15  C   UNL     1      34.827 -21.173 -19.035  0.00  0.00    +0.100 C 
ENDROOT
BRANCH  12  16
ATOM     16  N   UNL     1      35.708 -23.300 -15.588  0.00  0.00    -0.316 N 
ATOM     17  H   UNL     1      36.453 -22.712 -15.846  0.00  0.00    +0.148 HD
BRANCH  16  18
ATOM     18  C   UNL     1      35.984 -24.406 -14.708  0.00  0.00    +0.117 C 
BRANCH  18  21
ATOM     19  O   UNL     1      34.913 -24.890 -10.040  0.00  0.00    -0.163 OA
ATOM     20  N   UNL     1      35.503 -24.232 -10.956  0.00  0.00    -0.127 N 
ATOM     21  C   UNL     1      36.074 -23.936 -13.283  0.00  0.00    +0.018 C 
ATOM     22  C   UNL     1      35.434 -24.647 -12.272  0.00  0.00    +0.119 C 
ATOM     23  C   UNL     1      36.796 -22.791 -12.963  0.00  0.00    +0.001 C 
ATOM     24  C   UNL     1      36.872 -22.366 -11.642  0.00  0.00    +0.022 C 
ATOM     25  C   UNL     1      36.222 -23.093 -10.650  0.00  0.00    +0.121 C 
ENDBRANCH  18  21
ENDBRANCH  16  18
ENDBRANCH  12  16
BRANCH  14  26
ATOM     26  C   UNL     1      32.467 -20.678 -19.941  0.00  0.00    +0.015 C 
ATOM     27  C   UNL     1      33.096 -19.642 -20.880  0.00  0.00    +0.001 C 
ENDBRANCH  14  26
BRANCH   5  28
ATOM     28  C   UNL     1      29.577 -21.835 -14.240  0.00  0.00    +0.052 C 
BRANCH  28  29
ATOM     29  C   UNL     1      30.811 -22.045 -13.383  0.00  0.00    +0.139 C 
BRANCH  29  30
ATOM     30  O   UNL     1      30.451 -22.837 -12.260  0.00  0.00    -0.382 OA
ATOM     31  H   UNL     1      29.483 -22.889 -12.198  0.00  0.00    +0.210 HD
ENDBRANCH  29  30
ENDBRANCH  28  29
ENDBRANCH   5  28
TORSDOF 7
ENDMDL
MODEL 6
REMARK VINA RESULT:      -8.6      2.506      6.860
REMARK  Name = 46926350
REMARK  7 active torsions:
REMARK  status: ('A' for Active; 'I' for Inactive)
REMARK    1  A    between atoms: C_5  and  C_28
REMARK    2  A    between atoms: C_12  and  N_16
REMARK    3  A    between atoms: C_14  and  C_26
REMARK    4  A    between atoms: N_16  and  C_18
REMARK    5  A    between atoms: C_18  and  C_21
REMARK    6  A    between atoms: C_28  and  C_29
REMARK    7  A    between atoms: C_29  and  O_30
REMARK                            x       y       z     vdW  Elec       q    Type
REMARK                         _______ _______ _______ _____ _____    ______ ____
ROOT
ATOM      1  N   UNL     1      34.338 -22.109 -17.661  0.00  0.00    -0.285 N 
ATOM      2  N   UNL     1      32.625 -22.354 -16.135  0.00  0.00    -0.374 NA
ATOM      3  N   UNL     1      32.990 -23.695 -14.168  0.00  0.00    -0.152 N 
ATOM      4  N   UNL     1      32.322 -24.106 -13.052  0.00  0.00    -0.174 NA
ATOM      5  C   UNL     1      33.484 -21.990 -18.852  0.00  0.00    +0.078 C 
ATOM      6  C   UNL     1      33.701 -20.631 -19.532  0.00  0.00    +0.020 C 
ATOM      7  C   UNL     1      35.175 -20.309 -19.759  0.00  0.00    +0.003 C 
ATOM      8  C   UNL     1      35.762 -21.804 -17.819  0.00  0.00    +0.093 C 
ATOM      9  C   UNL     1      35.952 -20.430 -18.453  0.00  0.00    +0.022 C 
ATOM     10  C   UNL     1      33.857 -22.622 -16.502  0.00  0.00    +0.187 C 
ATOM     11  C   UNL     1      34.780 -23.484 -15.686  0.00  0.00    +0.079 C 
ATOM     12  C   UNL     1      34.308 -23.994 -14.537  0.00  0.00    +0.127 C 
ATOM     13  C   UNL     1      32.180 -22.888 -14.966  0.00  0.00    +0.191 C 
ATOM     14  C   UNL     1      30.967 -22.794 -14.324  0.00  0.00    +0.112 C 
ATOM     15  C   UNL     1      31.113 -23.559 -13.162  0.00  0.00    +0.100 C 
ENDROOT
BRANCH  12  16
ATOM     16  N   UNL     1      35.035 -24.792 -13.700  0.00  0.00    -0.316 N 
ATOM     17  H   UNL     1      34.822 -25.753 -13.669  0.00  0.00    +0.148 HD
BRANCH  16  18
ATOM     18  C   UNL     1      36.094 -24.299 -12.859  0.00  0.00    +0.117 C 
BRANCH  18  21
ATOM     19  O   UNL     1      40.441 -26.303 -13.376  0.00  0.00    -0.163 OA
ATOM     20  N   UNL     1      39.585 -25.447 -13.772  0.00  0.00    -0.127 N 
ATOM     21  C   UNL     1      37.417 -24.404 -13.563  0.00  0.00    +0.018 C 
ATOM     22  C   UNL     1      38.362 -25.335 -13.139  0.00  0.00    +0.119 C 
ATOM     23  C   UNL     1      37.710 -23.575 -14.641  0.00  0.00    +0.001 C 
ATOM     24  C   UNL     1      38.938 -23.681 -15.285  0.00  0.00    +0.022 C 
ATOM     25  C   UNL     1      39.865 -24.619 -14.841  0.00  0.00    +0.121 C 
ENDBRANCH  18  21
ENDBRANCH  16  18
ENDBRANCH  12  16
BRANCH  14  26
ATOM     26  C   UNL     1      29.773 -22.051 -14.763  0.00  0.00    +0.015 C 
ATOM     27  C   UNL     1      28.988 -22.775 -15.863  0.00  0.00    +0.001 C 
ENDBRANCH  14  26
BRANCH   5  28
ATOM     28  C   UNL     1      33.722 -23.168 -19.798  0.00  0.00    +0.052 C 
BRANCH  28  29
ATOM     29  C   UNL     1      33.307 -24.482 -19.163  0.00  0.00    +0.139 C 
BRANCH  29  30
ATOM     30  O   UNL     1      33.256 -25.476 -20.178  0.00  0.00    -0.382 OA
ATOM     31  H   UNL     1      32.406 -25.419 -20.643  0.00  0.00    +0.210 HD
ENDBRANCH  29  30
ENDBRANCH  28  29
ENDBRANCH   5  28
TORSDOF 7
ENDMDL
MODEL 7
REMARK VINA RESULT:      -8.6      2.531      7.063
REMARK  Name = 46926350
REMARK  7 active torsions:
REMARK  status: ('A' for Active; 'I' for Inactive)
REMARK    1  A    between atoms: C_5  and  C_28
REMARK    2  A    between atoms: C_12  and  N_16
REMARK    3  A    between atoms: C_14  and  C_26
REMARK    4  A    between atoms: N_16  and  C_18
REMARK    5  A    between atoms: C_18  and  C_21
REMARK    6  A    between atoms: C_28  and  C_29
REMARK    7  A    between atoms: C_29  and  O_30
REMARK                            x       y       z     vdW  Elec       q    Type
REMARK                         _______ _______ _______ _____ _____    ______ ____
ROOT
ATOM      1  N   UNL     1      34.051 -22.114 -17.727  0.00  0.00    -0.285 N 
ATOM      2  N   UNL     1      32.053 -22.266 -16.582  0.00  0.00    -0.374 NA
ATOM      3  N   UNL     1      31.977 -23.498 -14.515  0.00  0.00    -0.152 N 
ATOM      4  N   UNL     1      31.084 -23.844 -13.544  0.00  0.00    -0.174 NA
ATOM      5  C   UNL     1      33.467 -22.057 -19.075  0.00  0.00    +0.078 C 
ATOM      6  C   UNL     1      33.843 -20.739 -19.765  0.00  0.00    +0.020 C 
ATOM      7  C   UNL     1      35.337 -20.437 -19.695  0.00  0.00    +0.003 C 
ATOM      8  C   UNL     1      35.481 -21.825 -17.599  0.00  0.00    +0.093 C 
ATOM      9  C   UNL     1      35.822 -20.490 -18.251  0.00  0.00    +0.022 C 
ATOM     10  C   UNL     1      33.330 -22.560 -16.669  0.00  0.00    +0.187 C 
ATOM     11  C   UNL     1      34.047 -23.380 -15.633  0.00  0.00    +0.079 C 
ATOM     12  C   UNL     1      33.338 -23.824 -14.583  0.00  0.00    +0.127 C 
ATOM     13  C   UNL     1      31.365 -22.732 -15.506  0.00  0.00    +0.191 C 
ATOM     14  C   UNL     1      30.046 -22.597 -15.139  0.00  0.00    +0.112 C 
ATOM     15  C   UNL     1      29.933 -23.298 -13.933  0.00  0.00    +0.100 C 
ENDROOT
BRANCH  12  16
ATOM     16  N   UNL     1      33.860 -24.578 -13.571  0.00  0.00    -0.316 N 
ATOM     17  H   UNL     1      33.646 -25.538 -13.545  0.00  0.00    +0.148 HD
BRANCH  16  18
ATOM     18  C   UNL     1      34.707 -24.039 -12.539  0.00  0.00    +0.117 C 
BRANCH  18  21
ATOM     19  O   UNL     1      38.027 -26.908 -14.520  0.00  0.00    -0.163 OA
ATOM     20  N   UNL     1      37.759 -25.890 -13.803  0.00  0.00    -0.127 N 
ATOM     21  C   UNL     1      36.141 -24.416 -12.784  0.00  0.00    +0.018 C 
ATOM     22  C   UNL     1      36.447 -25.526 -13.566  0.00  0.00    +0.119 C 
ATOM     23  C   UNL     1      37.172 -23.662 -12.234  0.00  0.00    +0.001 C 
ATOM     24  C   UNL     1      38.495 -24.020 -12.468  0.00  0.00    +0.022 C 
ATOM     25  C   UNL     1      38.774 -25.134 -13.252  0.00  0.00    +0.121 C 
ENDBRANCH  18  21
ENDBRANCH  16  18
ENDBRANCH  12  16
BRANCH  14  26
ATOM     26  C   UNL     1      28.983 -21.874 -15.857  0.00  0.00    +0.015 C 
ATOM     27  C   UNL     1      27.904 -22.803 -16.426  0.00  0.00    +0.001 C 
ENDBRANCH  14  26
BRANCH   5  28
ATOM     28  C   UNL     1      33.877 -23.286 -19.886  0.00  0.00    +0.052 C 
BRANCH  28  29
ATOM     29  C   UNL     1      33.486 -24.572 -19.183  0.00  0.00    +0.139 C 
BRANCH  29  30
ATOM     30  O   UNL     1      33.189 -25.552 -20.168  0.00  0.00    -0.382 OA
ATOM     31  H   UNL     1      34.017 -25.912 -20.526  0.00  0.00    +0.210 HD
ENDBRANCH  29  30
ENDBRANCH  28  29
ENDBRANCH   5  28
TORSDOF 7
ENDMDL
MODEL 8
REMARK VINA RESULT:      -8.5      2.815      8.653
REMARK  Name = 46926350
REMARK  7 active torsions:
REMARK  status: ('A' for Active; 'I' for Inactive)
REMARK    1  A    between atoms: C_5  and  C_28
REMARK    2  A    between atoms: C_12  and  N_16
REMARK    3  A    between atoms: C_14  and  C_26
REMARK    4  A    between atoms: N_16  and  C_18
REMARK    5  A    between atoms: C_18  and  C_21
REMARK    6  A    between atoms: C_28  and  C_29
REMARK    7  A    between atoms: C_29  and  O_30
REMARK                            x       y       z     vdW  Elec       q    Type
REMARK                         _______ _______ _______ _____ _____    ______ ____
ROOT
ATOM      1  N   UNL     1      34.476 -19.495 -20.740  0.00  0.00    -0.285 N 
ATOM      2  N   UNL     1      35.341 -20.597 -18.907  0.00  0.00    -0.374 NA
ATOM      3  N   UNL     1      33.884 -21.972 -17.570  0.00  0.00    -0.152 N 
ATOM      4  N   UNL     1      33.933 -22.767 -16.463  0.00  0.00    -0.174 NA
ATOM      5  C   UNL     1      35.371 -18.330 -20.671  0.00  0.00    +0.078 C 
ATOM      6  C   UNL     1      36.209 -18.223 -21.953  0.00  0.00    +0.020 C 
ATOM      7  C   UNL     1      35.367 -18.318 -23.223  0.00  0.00    +0.003 C 
ATOM      8  C   UNL     1      33.650 -19.641 -21.941  0.00  0.00    +0.093 C 
ATOM      9  C   UNL     1      34.510 -19.578 -23.198  0.00  0.00    +0.022 C 
ATOM     10  C   UNL     1      34.313 -20.317 -19.675  0.00  0.00    +0.187 C 
ATOM     11  C   UNL     1      32.939 -20.875 -19.428  0.00  0.00    +0.079 C 
ATOM     12  C   UNL     1      32.772 -21.690 -18.375  0.00  0.00    +0.127 C 
ATOM     13  C   UNL     1      35.136 -21.425 -17.848  0.00  0.00    +0.191 C 
ATOM     14  C   UNL     1      35.994 -21.898 -16.881  0.00  0.00    +0.112 C 
ATOM     15  C   UNL     1      35.202 -22.711 -16.063  0.00  0.00    +0.100 C 
ENDROOT
BRANCH  12  16
ATOM     16  N   UNL     1      31.582 -22.266 -18.034  0.00  0.00    -0.316 N 
ATOM     17  H   UNL     1      31.320 -23.100 -18.486  0.00  0.00    +0.148 HD
BRANCH  16  18
ATOM     18  C   UNL     1      30.690 -21.714 -17.048  0.00  0.00    +0.117 C 
BRANCH  18  21
ATOM     19  O   UNL     1      31.351 -25.026 -13.616  0.00  0.00    -0.163 OA
ATOM     20  N   UNL     1      30.558 -24.441 -14.425  0.00  0.00    -0.127 N 
ATOM     21  C   UNL     1      30.165 -22.797 -16.148  0.00  0.00    +0.018 C 
ATOM     22  C   UNL     1      31.020 -23.443 -15.260  0.00  0.00    +0.119 C 
ATOM     23  C   UNL     1      28.823 -23.163 -16.193  0.00  0.00    +0.001 C 
ATOM     24  C   UNL     1      28.349 -24.166 -15.356  0.00  0.00    +0.022 C 
ATOM     25  C   UNL     1      29.225 -24.797 -14.478  0.00  0.00    +0.121 C 
ENDBRANCH  18  21
ENDBRANCH  16  18
ENDBRANCH  12  16
BRANCH  14  26
ATOM     26  C   UNL     1      37.431 -21.610 -16.736  0.00  0.00    +0.015 C 
ATOM     27  C   UNL     1      38.128 -22.533 -15.729  0.00  0.00    +0.001 C 
ENDBRANCH  14  26
BRANCH   5  28
ATOM     28  C   UNL     1      34.570 -17.060 -20.382  0.00  0.00    +0.052 C 
BRANCH  28  29
ATOM     29  C   UNL     1      34.625 -16.090 -21.547  0.00  0.00    +0.139 C 
BRANCH  29  30
ATOM     30  O   UNL     1      34.248 -14.802 -21.081  0.00  0.00    -0.382 OA
ATOM     31  H   UNL     1      34.761 -14.125 -21.551  0.00  0.00    +0.210 HD
ENDBRANCH  29  30
ENDBRANCH  28  29
ENDBRANCH   5  28
TORSDOF 7
ENDMDL
MODEL 9
REMARK VINA RESULT:      -8.2     10.089     15.981
REMARK  Name = 46926350
REMARK  7 active torsions:
REMARK  status: ('A' for Active; 'I' for Inactive)
REMARK    1  A    between atoms: C_5  and  C_28
REMARK    2  A    between atoms: C_12  and  N_16
REMARK    3  A    between atoms: C_14  and  C_26
REMARK    4  A    between atoms: N_16  and  C_18
REMARK    5  A    between atoms: C_18  and  C_21
REMARK    6  A    between atoms: C_28  and  C_29
REMARK    7  A    between atoms: C_29  and  O_30
REMARK                            x       y       z     vdW  Elec       q    Type
REMARK                         _______ _______ _______ _____ _____    ______ ____
ROOT
ATOM      1  N   UNL     1      32.973  -7.261 -23.721  0.00  0.00    -0.285 N 
ATOM      2  N   UNL     1      32.088  -8.528 -22.008  0.00  0.00    -0.374 NA
ATOM      3  N   UNL     1      32.423 -10.912 -22.018  0.00  0.00    -0.152 N 
ATOM      4  N   UNL     1      32.112 -12.008 -21.269  0.00  0.00    -0.174 NA
ATOM      5  C   UNL     1      31.926  -6.228 -23.723  0.00  0.00    +0.078 C 
ATOM      6  C   UNL     1      32.531  -4.853 -23.410  0.00  0.00    +0.020 C 
ATOM      7  C   UNL     1      33.754  -4.534 -24.266  0.00  0.00    +0.003 C 
ATOM      8  C   UNL     1      34.174  -7.004 -24.520  0.00  0.00    +0.093 C 
ATOM      9  C   UNL     1      34.783  -5.654 -24.158  0.00  0.00    +0.022 C 
ATOM     10  C   UNL     1      32.771  -8.463 -23.128  0.00  0.00    +0.187 C 
ATOM     11  C   UNL     1      33.353  -9.677 -23.797  0.00  0.00    +0.079 C 
ATOM     12  C   UNL     1      33.156 -10.869 -23.212  0.00  0.00    +0.127 C 
ATOM     13  C   UNL     1      31.908  -9.751 -21.444  0.00  0.00    +0.191 C 
ATOM     14  C   UNL     1      31.254 -10.139 -20.297  0.00  0.00    +0.112 C 
ATOM     15  C   UNL     1      31.412 -11.529 -20.244  0.00  0.00    +0.100 C 
ENDROOT
BRANCH  12  16
ATOM     16  N   UNL     1      33.627 -12.051 -23.709  0.00  0.00    -0.316 N 
ATOM     17  H   UNL     1      34.599 -12.157 -23.822  0.00  0.00    +0.148 HD
BRANCH  16  18
ATOM     18  C   UNL     1      32.773 -13.150 -24.078  0.00  0.00    +0.117 C 
BRANCH  18  21
ATOM     19  O   UNL     1      34.609 -16.027 -20.682  0.00  0.00    -0.163 OA
ATOM     20  N   UNL     1      34.292 -15.852 -21.903  0.00  0.00    -0.127 N 
ATOM     21  C   UNL     1      33.382 -14.456 -23.649  0.00  0.00    +0.018 C 
ATOM     22  C   UNL     1      33.732 -14.660 -22.318  0.00  0.00    +0.119 C 
ATOM     23  C   UNL     1      33.599 -15.470 -24.576  0.00  0.00    +0.001 C 
ATOM     24  C   UNL     1      34.162 -16.674 -24.169  0.00  0.00    +0.022 C 
ATOM     25  C   UNL     1      34.504 -16.852 -22.832  0.00  0.00    +0.121 C 
ENDBRANCH  18  21
ENDBRANCH  16  18
ENDBRANCH  12  16
BRANCH  14  26
ATOM     26  C   UNL     1      30.541  -9.281 -19.334  0.00  0.00    +0.015 C 
ATOM     27  C   UNL     1      31.250  -7.945 -19.085  0.00  0.00    +0.001 C 
ENDBRANCH  14  26
BRANCH   5  28
ATOM     28  C   UNL     1      31.158  -6.249 -25.045  0.00  0.00    +0.052 C 
BRANCH  28  29
ATOM     29  C   UNL     1      29.914  -7.111 -24.952  0.00  0.00    +0.139 C 
BRANCH  29  30
ATOM     30  O   UNL     1      29.639  -7.360 -23.580  0.00  0.00    -0.382 OA
ATOM     31  H   UNL     1      28.896  -7.980 -23.506  0.00  0.00    +0.210 HD
ENDBRANCH  29  30
ENDBRANCH  28  29
ENDBRANCH   5  28
TORSDOF 7
ENDMDL
