MODEL 1
REMARK VINA RESULT:     -13.1      0.000      0.000
REMARK  Name = 154000
REMARK  7 active torsions:
REMARK  status: ('A' for Active; 'I' for Inactive)
REMARK    1  A    between atoms: O_1  and  C_5
REMARK    2  A    between atoms: O_1  and  C_17
REMARK    3  A    between atoms: C_2  and  C_8
REMARK    4  A    between atoms: C_8  and  C_13
REMARK    5  A    between atoms: C_17  and  C_18
REMARK    6  A    between atoms: C_18  and  C_21
REMARK    7  A    between atoms: C_23  and  C_25
REMARK                            x       y       z     vdW  Elec       q    Type
REMARK                         _______ _______ _______ _____ _____    ______ ____
ROOT
ATOM      1  O   UNL     1      33.755 -13.968 -23.037  0.00  0.00    -0.475 OA
ENDROOT
BRANCH   1   5
ATOM      2  C   UNL     1      31.604 -10.655 -21.821  0.00  0.00    -0.021 C 
ATOM      3  C   UNL     1      32.334 -10.598 -23.000  0.00  0.00    -0.001 C 
ATOM      4  C   UNL     1      31.584 -11.802 -21.044  0.00  0.00    -0.001 C 
ATOM      5  C   UNL     1      33.047 -12.877 -22.638  0.00  0.00    +0.139 C 
ATOM      6  C   UNL     1      33.060 -11.716 -23.411  0.00  0.00    +0.037 C 
ATOM      7  C   UNL     1      32.310 -12.920 -21.454  0.00  0.00    +0.037 C 
BRANCH   2   8
ATOM      8  C   UNL     1      30.821  -9.445 -21.377  0.00  0.00    +0.047 C 
BRANCH   8  13
ATOM      9  O   UNL     1      30.743  -6.018 -21.672  0.00  0.00    -0.346 OA
ATOM     10  O   UNL     1      32.244  -7.939 -19.171  0.00  0.00    -0.272 OA
ATOM     11  O   UNL     1      30.592  -7.329 -23.551  0.00  0.00    -0.247 OA
ATOM     12  N   UNL     1      31.237  -6.210 -20.365  0.00  0.00    -0.144 N 
ATOM     13  C   UNL     1      31.627  -8.167 -21.508  0.00  0.00    +0.184 C 
ATOM     14  C   UNL     1      31.760  -7.469 -20.189  0.00  0.00    +0.264 C 
ATOM     15  C   UNL     1      30.931  -7.165 -22.391  0.00  0.00    +0.348 C 
ATOM     16  H   UNL     1      31.210  -5.523 -19.661  0.00  0.00    +0.196 HD
ENDBRANCH   8  13
ENDBRANCH   2   8
ENDBRANCH   1   5
BRANCH   1  17
ATOM     17  C   UNL     1      34.120 -14.911 -22.029  0.00  0.00    +0.213 C 
BRANCH  17  18
ATOM     18  C   UNL     1      35.000 -16.000 -22.636  0.00  0.00    +0.105 C 
BRANCH  18  21
ATOM     19  O   UNL     1      33.697 -19.395 -22.326  0.00  0.00    -0.449 OA
ATOM     20  N   UNL     1      34.742 -17.863 -21.031  0.00  0.00    -0.373 NA
ATOM     21  C   UNL     1      34.540 -17.385 -22.282  0.00  0.00    +0.134 C 
ATOM     22  C   UNL     1      33.917 -18.282 -23.080  0.00  0.00    +0.216 C 
ATOM     23  C   UNL     1      34.218 -19.066 -21.112  0.00  0.00    +0.277 C 
ATOM     24  C   UNL     1      33.458 -18.318 -24.473  0.00  0.00    +0.055 C 
BRANCH  23  25
ATOM     25  C   UNL     1      34.118 -20.086 -20.106  0.00  0.00    +0.066 C 
ATOM     26  C   UNL     1      32.865 -20.563 -19.709  0.00  0.00    +0.006 C 
ATOM     27  C   UNL     1      35.273 -20.607 -19.517  0.00  0.00    +0.006 C 
ATOM     28  C   UNL     1      32.769 -21.552 -18.730  0.00  0.00    +0.000 C 
ATOM     29  C   UNL     1      35.177 -21.597 -18.539  0.00  0.00    +0.000 C 
ATOM     30  C   UNL     1      33.925 -22.070 -18.145  0.00  0.00    +0.000 C 
ENDBRANCH  23  25
ENDBRANCH  18  21
ENDBRANCH  17  18
ENDBRANCH   1  17
TORSDOF 7
ENDMDL
MODEL 2
REMARK VINA RESULT:     -13.0      4.885     12.730
REMARK  Name = 154000
REMARK  7 active torsions:
REMARK  status: ('A' for Active; 'I' for Inactive)
REMARK    1  A    between atoms: O_1  and  C_5
REMARK    2  A    between atoms: O_1  and  C_17
REMARK    3  A    between atoms: C_2  and  C_8
REMARK    4  A    between atoms: C_8  and  C_13
REMARK    5  A    between atoms: C_17  and  C_18
REMARK    6  A    between atoms: C_18  and  C_21
REMARK    7  A    between atoms: C_23  and  C_25
REMARK                            x       y       z     vdW  Elec       q    Type
REMARK                         _______ _______ _______ _____ _____    ______ ____
ROOT
ATOM      1  O   UNL     1      34.421 -20.854 -19.130  0.00  0.00    -0.475 OA
ENDROOT
BRANCH   1   5
ATOM      2  C   UNL     1      35.527 -22.815 -15.663  0.00  0.00    -0.021 C 
ATOM      3  C   UNL     1      34.230 -22.951 -16.138  0.00  0.00    -0.001 C 
ATOM      4  C   UNL     1      36.458 -22.033 -16.330  0.00  0.00    -0.001 C 
ATOM      5  C   UNL     1      34.784 -21.500 -17.988  0.00  0.00    +0.139 C 
ATOM      6  C   UNL     1      33.857 -22.289 -17.308  0.00  0.00    +0.037 C 
ATOM      7  C   UNL     1      36.084 -21.372 -17.499  0.00  0.00    +0.037 C 
BRANCH   2   8
ATOM      8  C   UNL     1      35.929 -23.529 -14.398  0.00  0.00    +0.047 C 
BRANCH   8  13
ATOM      9  O   UNL     1      38.041 -25.868 -13.015  0.00  0.00    -0.346 OA
ATOM     10  O   UNL     1      35.718 -26.305 -15.586  0.00  0.00    -0.272 OA
ATOM     11  O   UNL     1      38.618 -23.645 -12.978  0.00  0.00    -0.247 OA
ATOM     12  N   UNL     1      37.171 -26.654 -13.798  0.00  0.00    -0.144 N 
ATOM     13  C   UNL     1      37.056 -24.516 -14.637  0.00  0.00    +0.184 C 
ATOM     14  C   UNL     1      36.538 -25.916 -14.769  0.00  0.00    +0.264 C 
ATOM     15  C   UNL     1      37.995 -24.576 -13.460  0.00  0.00    +0.348 C 
ATOM     16  H   UNL     1      37.033 -27.619 -13.664  0.00  0.00    +0.196 HD
ENDBRANCH   8  13
ENDBRANCH   2   8
ENDBRANCH   1   5
BRANCH   1  17
ATOM     17  C   UNL     1      35.370 -20.836 -20.196  0.00  0.00    +0.213 C 
BRANCH  17  18
ATOM     18  C   UNL     1      36.096 -19.495 -20.218  0.00  0.00    +0.105 C 
BRANCH  18  21
ATOM     19  O   UNL     1      34.380 -17.447 -22.704  0.00  0.00    -0.449 OA
ATOM     20  N   UNL     1      35.256 -17.207 -20.632  0.00  0.00    -0.373 NA
ATOM     21  C   UNL     1      35.412 -18.475 -21.082  0.00  0.00    +0.134 C 
ATOM     22  C   UNL     1      34.896 -18.648 -22.321  0.00  0.00    +0.216 C 
ATOM     23  C   UNL     1      34.635 -16.636 -21.641  0.00  0.00    +0.277 C 
ATOM     24  C   UNL     1      34.780 -19.759 -23.272  0.00  0.00    +0.055 C 
BRANCH  23  25
ATOM     25  C   UNL     1      34.183 -15.280 -21.783  0.00  0.00    +0.066 C 
ATOM     26  C   UNL     1      34.142 -14.680 -23.046  0.00  0.00    +0.006 C 
ATOM     27  C   UNL     1      33.783 -14.551 -20.660  0.00  0.00    +0.006 C 
ATOM     28  C   UNL     1      33.706 -13.363 -23.182  0.00  0.00    +0.000 C 
ATOM     29  C   UNL     1      33.345 -13.234 -20.797  0.00  0.00    +0.000 C 
ATOM     30  C   UNL     1      33.307 -12.639 -22.058  0.00  0.00    +0.000 C 
ENDBRANCH  23  25
ENDBRANCH  18  21
ENDBRANCH  17  18
ENDBRANCH   1  17
TORSDOF 7
ENDMDL
MODEL 3
REMARK VINA RESULT:     -12.9      4.629     12.293
REMARK  Name = 154000
REMARK  7 active torsions:
REMARK  status: ('A' for Active; 'I' for Inactive)
REMARK    1  A    between atoms: O_1  and  C_5
REMARK    2  A    between atoms: O_1  and  C_17
REMARK    3  A    between atoms: C_2  and  C_8
REMARK    4  A    between atoms: C_8  and  C_13
REMARK    5  A    between atoms: C_17  and  C_18
REMARK    6  A    between atoms: C_18  and  C_21
REMARK    7  A    between atoms: C_23  and  C_25
REMARK                            x       y       z     vdW  Elec       q    Type
REMARK                         _______ _______ _______ _____ _____    ______ ____
ROOT
ATOM      1  O   UNL     1      34.898 -20.989 -20.142  0.00  0.00    -0.475 OA
ENDROOT
BRANCH   1   5
ATOM      2  C   UNL     1      35.016 -22.358 -16.243  0.00  0.00    -0.021 C 
ATOM      3  C   UNL     1      36.137 -21.746 -16.784  0.00  0.00    -0.001 C 
ATOM      4  C   UNL     1      33.857 -22.519 -16.987  0.00  0.00    -0.001 C 
ATOM      5  C   UNL     1      34.938 -21.439 -18.858  0.00  0.00    +0.139 C 
ATOM      6  C   UNL     1      36.098 -21.283 -18.099  0.00  0.00    +0.037 C 
ATOM      7  C   UNL     1      33.818 -22.057 -18.302  0.00  0.00    +0.037 C 
BRANCH   2   8
ATOM      8  C   UNL     1      35.059 -22.859 -14.822  0.00  0.00    +0.047 C 
BRANCH   8  13
ATOM      9  O   UNL     1      36.874 -24.642 -12.504  0.00  0.00    -0.346 OA
ATOM     10  O   UNL     1      35.403 -25.799 -15.454  0.00  0.00    -0.272 OA
ATOM     11  O   UNL     1      37.244 -22.389 -12.757  0.00  0.00    -0.247 OA
ATOM     12  N   UNL     1      36.320 -25.654 -13.317  0.00  0.00    -0.144 N 
ATOM     13  C   UNL     1      36.281 -23.719 -14.560  0.00  0.00    +0.184 C 
ATOM     14  C   UNL     1      35.929 -25.176 -14.545  0.00  0.00    +0.264 C 
ATOM     15  C   UNL     1      36.855 -23.461 -13.192  0.00  0.00    +0.348 C 
ATOM     16  H   UNL     1      36.225 -26.592 -13.036  0.00  0.00    +0.196 HD
ENDBRANCH   8  13
ENDBRANCH   2   8
ENDBRANCH   1   5
BRANCH   1  17
ATOM     17  C   UNL     1      34.320 -19.702 -20.361  0.00  0.00    +0.213 C 
BRANCH  17  18
ATOM     18  C   UNL     1      35.361 -18.765 -20.966  0.00  0.00    +0.105 C 
BRANCH  18  21
ATOM     19  O   UNL     1      33.910 -16.988 -23.805  0.00  0.00    -0.449 OA
ATOM     20  N   UNL     1      34.650 -16.520 -21.720  0.00  0.00    -0.373 NA
ATOM     21  C   UNL     1      34.783 -17.839 -21.998  0.00  0.00    +0.134 C 
ATOM     22  C   UNL     1      34.347 -18.148 -23.240  0.00  0.00    +0.216 C 
ATOM     23  C   UNL     1      34.125 -16.060 -22.833  0.00  0.00    +0.277 C 
ATOM     24  C   UNL     1      34.249 -19.366 -24.054  0.00  0.00    +0.055 C 
BRANCH  23  25
ATOM     25  C   UNL     1      33.743 -14.717 -23.174  0.00  0.00    +0.066 C 
ATOM     26  C   UNL     1      33.244 -14.429 -24.448  0.00  0.00    +0.006 C 
ATOM     27  C   UNL     1      33.869 -13.691 -22.235  0.00  0.00    +0.006 C 
ATOM     28  C   UNL     1      32.875 -13.126 -24.779  0.00  0.00    +0.000 C 
ATOM     29  C   UNL     1      33.500 -12.387 -22.565  0.00  0.00    +0.000 C 
ATOM     30  C   UNL     1      33.003 -12.104 -23.837  0.00  0.00    +0.000 C 
ENDBRANCH  23  25
ENDBRANCH  18  21
ENDBRANCH  17  18
ENDBRANCH   1  17
TORSDOF 7
ENDMDL
MODEL 4
REMARK VINA RESULT:     -12.8      3.391     11.213
REMARK  Name = 154000
REMARK  7 active torsions:
REMARK  status: ('A' for Active; 'I' for Inactive)
REMARK    1  A    between atoms: O_1  and  C_5
REMARK    2  A    between atoms: O_1  and  C_17
REMARK    3  A    between atoms: C_2  and  C_8
REMARK    4  A    between atoms: C_8  and  C_13
REMARK    5  A    between atoms: C_17  and  C_18
REMARK    6  A    between atoms: C_18  and  C_21
REMARK    7  A    between atoms: C_23  and  C_25
REMARK                            x       y       z     vdW  Elec       q    Type
REMARK                         _______ _______ _______ _____ _____    ______ ____
ROOT
ATOM      1  O   UNL     1      35.189 -18.910 -21.226  0.00  0.00    -0.475 OA
ENDROOT
BRANCH   1   5
ATOM      2  C   UNL     1      33.630 -21.840 -18.762  0.00  0.00    -0.021 C 
ATOM      3  C   UNL     1      32.769 -21.045 -19.504  0.00  0.00    -0.001 C 
ATOM      4  C   UNL     1      35.004 -21.670 -18.832  0.00  0.00    -0.001 C 
ATOM      5  C   UNL     1      34.675 -19.874 -20.415  0.00  0.00    +0.139 C 
ATOM      6  C   UNL     1      33.294 -20.056 -20.335  0.00  0.00    +0.037 C 
ATOM      7  C   UNL     1      35.530 -20.681 -19.663  0.00  0.00    +0.037 C 
BRANCH   2   8
ATOM      8  C   UNL     1      33.061 -22.909 -17.862  0.00  0.00    +0.047 C 
BRANCH   8  13
ATOM      9  O   UNL     1      31.856 -23.543 -14.702  0.00  0.00    -0.346 OA
ATOM     10  O   UNL     1      35.183 -23.314 -15.742  0.00  0.00    -0.272 OA
ATOM     11  O   UNL     1      30.585 -22.339 -16.189  0.00  0.00    -0.247 OA
ATOM     12  N   UNL     1      33.232 -23.831 -14.578  0.00  0.00    -0.144 N 
ATOM     13  C   UNL     1      33.011 -22.463 -16.414  0.00  0.00    +0.184 C 
ATOM     14  C   UNL     1      33.976 -23.238 -15.570  0.00  0.00    +0.264 C 
ATOM     15  C   UNL     1      31.666 -22.746 -15.796  0.00  0.00    +0.348 C 
ATOM     16  H   UNL     1      33.613 -24.391 -13.865  0.00  0.00    +0.196 HD
ENDBRANCH   8  13
ENDBRANCH   2   8
ENDBRANCH   1   5
BRANCH   1  17
ATOM     17  C   UNL     1      34.302 -17.872 -21.643  0.00  0.00    +0.213 C 
BRANCH  17  18
ATOM     18  C   UNL     1      35.019 -16.526 -21.583  0.00  0.00    +0.105 C 
BRANCH  18  21
ATOM     19  O   UNL     1      33.147 -14.138 -23.611  0.00  0.00    -0.449 OA
ATOM     20  N   UNL     1      33.832 -14.361 -21.467  0.00  0.00    -0.373 NA
ATOM     21  C   UNL     1      34.230 -15.416 -22.217  0.00  0.00    +0.134 C 
ATOM     22  C   UNL     1      33.833 -15.310 -23.505  0.00  0.00    +0.216 C 
ATOM     23  C   UNL     1      33.191 -13.628 -22.350  0.00  0.00    +0.277 C 
ATOM     24  C   UNL     1      33.969 -16.116 -24.723  0.00  0.00    +0.055 C 
BRANCH  23  25
ATOM     25  C   UNL     1      32.526 -12.366 -22.177  0.00  0.00    +0.066 C 
ATOM     26  C   UNL     1      31.688 -12.156 -21.077  0.00  0.00    +0.006 C 
ATOM     27  C   UNL     1      32.711 -11.341 -23.108  0.00  0.00    +0.006 C 
ATOM     28  C   UNL     1      31.041 -10.932 -20.912  0.00  0.00    +0.000 C 
ATOM     29  C   UNL     1      32.065 -10.116 -22.942  0.00  0.00    +0.000 C 
ATOM     30  C   UNL     1      31.230  -9.911 -21.844  0.00  0.00    +0.000 C 
ENDBRANCH  23  25
ENDBRANCH  18  21
ENDBRANCH  17  18
ENDBRANCH   1  17
TORSDOF 7
ENDMDL
MODEL 5
REMARK VINA RESULT:     -12.6      4.873      8.463
REMARK  Name = 154000
REMARK  7 active torsions:
REMARK  status: ('A' for Active; 'I' for Inactive)
REMARK    1  A    between atoms: O_1  and  C_5
REMARK    2  A    between atoms: O_1  and  C_17
REMARK    3  A    between atoms: C_2  and  C_8
REMARK    4  A    between atoms: C_8  and  C_13
REMARK    5  A    between atoms: C_17  and  C_18
REMARK    6  A    between atoms: C_18  and  C_21
REMARK    7  A    between atoms: C_23  and  C_25
REMARK                            x       y       z     vdW  Elec       q    Type
REMARK                         _______ _______ _______ _____ _____    ______ ____
ROOT
ATOM      1  O   UNL     1      34.662 -21.551 -18.888  0.00  0.00    -0.475 OA
ENDROOT
BRANCH   1   5
ATOM      2  C   UNL     1      35.211 -18.419 -21.529  0.00  0.00    -0.021 C 
ATOM      3  C   UNL     1      36.288 -18.880 -20.787  0.00  0.00    -0.001 C 
ATOM      4  C   UNL     1      33.953 -18.989 -21.401  0.00  0.00    -0.001 C 
ATOM      5  C   UNL     1      34.843 -20.519 -19.757  0.00  0.00    +0.139 C 
ATOM      6  C   UNL     1      36.103 -19.937 -19.896  0.00  0.00    +0.037 C 
ATOM      7  C   UNL     1      33.769 -20.045 -20.509  0.00  0.00    +0.037 C 
BRANCH   2   8
ATOM      8  C   UNL     1      35.411 -17.275 -22.492  0.00  0.00    +0.047 C 
BRANCH   8  13
ATOM      9  O   UNL     1      34.100 -14.099 -22.310  0.00  0.00    -0.346 OA
ATOM     10  O   UNL     1      34.097 -16.287 -25.033  0.00  0.00    -0.272 OA
ATOM     11  O   UNL     1      34.283 -15.370 -20.406  0.00  0.00    -0.247 OA
ATOM     12  N   UNL     1      34.047 -14.383 -23.691  0.00  0.00    -0.144 N 
ATOM     13  C   UNL     1      34.172 -16.409 -22.609  0.00  0.00    +0.184 C 
ATOM     14  C   UNL     1      34.103 -15.732 -23.945  0.00  0.00    +0.264 C 
ATOM     15  C   UNL     1      34.196 -15.274 -21.619  0.00  0.00    +0.348 C 
ATOM     16  H   UNL     1      33.978 -13.694 -24.391  0.00  0.00    +0.196 HD
ENDBRANCH   8  13
ENDBRANCH   2   8
ENDBRANCH   1   5
BRANCH   1  17
ATOM     17  C   UNL     1      33.449 -22.295 -19.007  0.00  0.00    +0.213 C 
BRANCH  17  18
ATOM     18  C   UNL     1      32.587 -22.076 -17.767  0.00  0.00    +0.105 C 
BRANCH  18  21
ATOM     19  O   UNL     1      33.349 -23.736 -14.607  0.00  0.00    -0.449 OA
ATOM     20  N   UNL     1      34.424 -23.151 -16.510  0.00  0.00    -0.373 NA
ATOM     21  C   UNL     1      33.122 -22.779 -16.553  0.00  0.00    +0.134 C 
ATOM     22  C   UNL     1      32.454 -23.117 -15.427  0.00  0.00    +0.216 C 
ATOM     23  C   UNL     1      34.505 -23.717 -15.326  0.00  0.00    +0.277 C 
ATOM     24  C   UNL     1      31.081 -22.974 -14.929  0.00  0.00    +0.055 C 
BRANCH  23  25
ATOM     25  C   UNL     1      35.637 -24.321 -14.680  0.00  0.00    +0.066 C 
ATOM     26  C   UNL     1      36.541 -23.533 -13.961  0.00  0.00    +0.006 C 
ATOM     27  C   UNL     1      35.843 -25.700 -14.769  0.00  0.00    +0.006 C 
ATOM     28  C   UNL     1      37.641 -24.120 -13.336  0.00  0.00    +0.000 C 
ATOM     29  C   UNL     1      36.943 -26.288 -14.143  0.00  0.00    +0.000 C 
ATOM     30  C   UNL     1      37.842 -25.498 -13.427  0.00  0.00    +0.000 C 
ENDBRANCH  23  25
ENDBRANCH  18  21
ENDBRANCH  17  18
ENDBRANCH   1  17
TORSDOF 7
ENDMDL
MODEL 6
REMARK VINA RESULT:     -12.5      4.513     11.272
REMARK  Name = 154000
REMARK  7 active torsions:
REMARK  status: ('A' for Active; 'I' for Inactive)
REMARK    1  A    between atoms: O_1  and  C_5
REMARK    2  A    between atoms: O_1  and  C_17
REMARK    3  A    between atoms: C_2  and  C_8
REMARK    4  A    between atoms: C_8  and  C_13
REMARK    5  A    between atoms: C_17  and  C_18
REMARK    6  A    between atoms: C_18  and  C_21
REMARK    7  A    between atoms: C_23  and  C_25
REMARK                            x       y       z     vdW  Elec       q    Type
REMARK                         _______ _______ _______ _____ _____    ______ ____
ROOT
ATOM      1  O   UNL     1      35.925 -20.730 -19.116  0.00  0.00    -0.475 OA
ENDROOT
BRANCH   1   5
ATOM      2  C   UNL     1      33.368 -22.798 -16.612  0.00  0.00    -0.021 C 
ATOM      3  C   UNL     1      32.934 -22.432 -17.878  0.00  0.00    -0.001 C 
ATOM      4  C   UNL     1      34.644 -22.482 -16.171  0.00  0.00    -0.001 C 
ATOM      5  C   UNL     1      35.083 -21.411 -18.292  0.00  0.00    +0.139 C 
ATOM      6  C   UNL     1      33.796 -21.735 -18.723  0.00  0.00    +0.037 C 
ATOM      7  C   UNL     1      35.506 -21.784 -17.017  0.00  0.00    +0.037 C 
BRANCH   2   8
ATOM      8  C   UNL     1      32.434 -23.551 -15.698  0.00  0.00    +0.047 C 
BRANCH   8  13
ATOM      9  O   UNL     1      29.302 -22.988 -14.388  0.00  0.00    -0.346 OA
ATOM     10  O   UNL     1      32.345 -23.226 -12.690  0.00  0.00    -0.272 OA
ATOM     11  O   UNL     1      29.766 -22.361 -16.549  0.00  0.00    -0.247 OA
ATOM     12  N   UNL     1      30.082 -23.246 -13.241  0.00  0.00    -0.144 N 
ATOM     13  C   UNL     1      31.545 -22.617 -14.900  0.00  0.00    +0.184 C 
ATOM     14  C   UNL     1      31.424 -23.064 -13.475  0.00  0.00    +0.264 C 
ATOM     15  C   UNL     1      30.130 -22.628 -15.415  0.00  0.00    +0.348 C 
ATOM     16  H   UNL     1      29.707 -23.524 -12.374  0.00  0.00    +0.196 HD
ENDBRANCH   8  13
ENDBRANCH   2   8
ENDBRANCH   1   5
BRANCH   1  17
ATOM     17  C   UNL     1      35.355 -20.141 -20.285  0.00  0.00    +0.213 C 
BRANCH  17  18
ATOM     18  C   UNL     1      36.155 -18.903 -20.680  0.00  0.00    +0.105 C 
BRANCH  18  21
ATOM     19  O   UNL     1      34.119 -16.908 -22.959  0.00  0.00    -0.449 OA
ATOM     20  N   UNL     1      35.151 -16.661 -20.962  0.00  0.00    -0.373 NA
ATOM     21  C   UNL     1      35.342 -17.907 -21.457  0.00  0.00    +0.134 C 
ATOM     22  C   UNL     1      34.735 -18.084 -22.653  0.00  0.00    +0.216 C 
ATOM     23  C   UNL     1      34.415 -16.107 -21.899  0.00  0.00    +0.277 C 
ATOM     24  C   UNL     1      34.603 -19.179 -23.620  0.00  0.00    +0.055 C 
BRANCH  23  25
ATOM     25  C   UNL     1      33.875 -14.777 -21.968  0.00  0.00    +0.066 C 
ATOM     26  C   UNL     1      33.806 -14.107 -23.192  0.00  0.00    +0.006 C 
ATOM     27  C   UNL     1      33.417 -14.145 -20.808  0.00  0.00    +0.006 C 
ATOM     28  C   UNL     1      33.283 -12.816 -23.257  0.00  0.00    +0.000 C 
ATOM     29  C   UNL     1      32.894 -12.854 -20.873  0.00  0.00    +0.000 C 
ATOM     30  C   UNL     1      32.827 -12.189 -22.097  0.00  0.00    +0.000 C 
ENDBRANCH  23  25
ENDBRANCH  18  21
ENDBRANCH  17  18
ENDBRANCH   1  17
TORSDOF 7
ENDMDL
MODEL 7
REMARK VINA RESULT:     -12.5      2.236     10.836
REMARK  Name = 154000
REMARK  7 active torsions:
REMARK  status: ('A' for Active; 'I' for Inactive)
REMARK    1  A    between atoms: O_1  and  C_5
REMARK    2  A    between atoms: O_1  and  C_17
REMARK    3  A    between atoms: C_2  and  C_8
REMARK    4  A    between atoms: C_8  and  C_13
REMARK    5  A    between atoms: C_17  and  C_18
REMARK    6  A    between atoms: C_18  and  C_21
REMARK    7  A    between atoms: C_23  and  C_25
REMARK                            x       y       z     vdW  Elec       q    Type
REMARK                         _______ _______ _______ _____ _____    ______ ____
ROOT
ATOM      1  O   UNL     1      34.244 -15.163 -23.765  0.00  0.00    -0.475 OA
ENDROOT
BRANCH   1   5
ATOM      2  C   UNL     1      34.527 -18.847 -21.911  0.00  0.00    -0.021 C 
ATOM      3  C   UNL     1      34.058 -18.775 -23.215  0.00  0.00    -0.001 C 
ATOM      4  C   UNL     1      34.902 -17.706 -21.218  0.00  0.00    -0.001 C 
ATOM      5  C   UNL     1      34.337 -16.376 -23.155  0.00  0.00    +0.139 C 
ATOM      6  C   UNL     1      33.963 -17.532 -23.840  0.00  0.00    +0.037 C 
ATOM      7  C   UNL     1      34.806 -16.463 -21.844  0.00  0.00    +0.037 C 
BRANCH   2   8
ATOM      8  C   UNL     1      34.629 -20.191 -21.234  0.00  0.00    +0.047 C 
BRANCH   8  13
ATOM      9  O   UNL     1      32.424 -21.717 -19.078  0.00  0.00    -0.346 OA
ATOM     10  O   UNL     1      35.848 -21.178 -18.646  0.00  0.00    -0.272 OA
ATOM     11  O   UNL     1      31.661 -20.142 -20.566  0.00  0.00    -0.247 OA
ATOM     12  N   UNL     1      33.680 -22.021 -18.511  0.00  0.00    -0.144 N 
ATOM     13  C   UNL     1      33.994 -20.182 -19.857  0.00  0.00    +0.184 C 
ATOM     14  C   UNL     1      34.663 -21.163 -18.941  0.00  0.00    +0.264 C 
ATOM     15  C   UNL     1      32.560 -20.639 -19.907  0.00  0.00    +0.348 C 
ATOM     16  H   UNL     1      33.833 -22.761 -17.881  0.00  0.00    +0.196 HD
ENDBRANCH   8  13
ENDBRANCH   2   8
ENDBRANCH   1   5
BRANCH   1  17
ATOM     17  C   UNL     1      33.938 -14.042 -22.936  0.00  0.00    +0.213 C 
BRANCH  17  18
ATOM     18  C   UNL     1      32.751 -13.279 -23.519  0.00  0.00    +0.105 C 
BRANCH  18  21
ATOM     19  O   UNL     1      31.557 -10.982 -20.946  0.00  0.00    -0.449 OA
ATOM     20  N   UNL     1      32.196 -10.904 -23.115  0.00  0.00    -0.373 NA
ATOM     21  C   UNL     1      32.280 -12.166 -22.628  0.00  0.00    +0.134 C 
ATOM     22  C   UNL     1      31.903 -12.242 -21.331  0.00  0.00    +0.216 C 
ATOM     23  C   UNL     1      31.759 -10.239 -22.069  0.00  0.00    +0.277 C 
ATOM     24  C   UNL     1      31.792 -13.303 -20.324  0.00  0.00    +0.055 C 
BRANCH  23  25
ATOM     25  C   UNL     1      31.465  -8.839 -21.937  0.00  0.00    +0.066 C 
ATOM     26  C   UNL     1      31.699  -8.181 -20.726  0.00  0.00    +0.006 C 
ATOM     27  C   UNL     1      30.940  -8.127 -23.019  0.00  0.00    +0.006 C 
ATOM     28  C   UNL     1      31.410  -6.823 -20.598  0.00  0.00    +0.000 C 
ATOM     29  C   UNL     1      30.652  -6.768 -22.891  0.00  0.00    +0.000 C 
ATOM     30  C   UNL     1      30.887  -6.115 -21.681  0.00  0.00    +0.000 C 
ENDBRANCH  23  25
ENDBRANCH  18  21
ENDBRANCH  17  18
ENDBRANCH   1  17
TORSDOF 7
ENDMDL
MODEL 8
REMARK VINA RESULT:     -12.5      3.674      6.910
REMARK  Name = 154000
REMARK  7 active torsions:
REMARK  status: ('A' for Active; 'I' for Inactive)
REMARK    1  A    between atoms: O_1  and  C_5
REMARK    2  A    between atoms: O_1  and  C_17
REMARK    3  A    between atoms: C_2  and  C_8
REMARK    4  A    between atoms: C_8  and  C_13
REMARK    5  A    between atoms: C_17  and  C_18
REMARK    6  A    between atoms: C_18  and  C_21
REMARK    7  A    between atoms: C_23  and  C_25
REMARK                            x       y       z     vdW  Elec       q    Type
REMARK                         _______ _______ _______ _____ _____    ______ ____
ROOT
ATOM      1  O   UNL     1      34.386 -20.368 -21.240  0.00  0.00    -0.475 OA
ENDROOT
BRANCH   1   5
ATOM      2  C   UNL     1      34.573 -16.523 -22.745  0.00  0.00    -0.021 C 
ATOM      3  C   UNL     1      34.967 -16.762 -21.437  0.00  0.00    -0.001 C 
ATOM      4  C   UNL     1      34.117 -17.550 -23.557  0.00  0.00    -0.001 C 
ATOM      5  C   UNL     1      34.448 -19.102 -21.734  0.00  0.00    +0.139 C 
ATOM      6  C   UNL     1      34.904 -18.059 -20.928  0.00  0.00    +0.037 C 
ATOM      7  C   UNL     1      34.054 -18.848 -23.048  0.00  0.00    +0.037 C 
BRANCH   2   8
ATOM      8  C   UNL     1      34.640 -15.120 -23.294  0.00  0.00    +0.047 C 
BRANCH   8  13
ATOM      9  O   UNL     1      32.794 -12.231 -23.590  0.00  0.00    -0.346 OA
ATOM     10  O   UNL     1      33.043 -14.880 -25.853  0.00  0.00    -0.272 OA
ATOM     11  O   UNL     1      33.297 -13.056 -21.506  0.00  0.00    -0.247 OA
ATOM     12  N   UNL     1      32.722 -12.785 -24.885  0.00  0.00    -0.144 N 
ATOM     13  C   UNL     1      33.262 -14.511 -23.464  0.00  0.00    +0.184 C 
ATOM     14  C   UNL     1      33.005 -14.130 -24.890  0.00  0.00    +0.264 C 
ATOM     15  C   UNL     1      33.134 -13.216 -22.705  0.00  0.00    +0.348 C 
ATOM     16  H   UNL     1      32.495 -12.268 -25.692  0.00  0.00    +0.196 HD
ENDBRANCH   8  13
ENDBRANCH   2   8
ENDBRANCH   1   5
BRANCH   1  17
ATOM     17  C   UNL     1      34.116 -20.508 -19.845  0.00  0.00    +0.213 C 
BRANCH  17  18
ATOM     18  C   UNL     1      34.991 -21.611 -19.258  0.00  0.00    +0.105 C 
BRANCH  18  21
ATOM     19  O   UNL     1      34.601 -22.372 -15.710  0.00  0.00    -0.449 OA
ATOM     20  N   UNL     1      33.340 -22.385 -17.588  0.00  0.00    -0.373 NA
ATOM     21  C   UNL     1      34.605 -21.978 -17.854  0.00  0.00    +0.134 C 
ATOM     22  C   UNL     1      35.382 -21.960 -16.747  0.00  0.00    +0.216 C 
ATOM     23  C   UNL     1      33.394 -22.607 -16.294  0.00  0.00    +0.277 C 
ATOM     24  C   UNL     1      36.776 -21.623 -16.440  0.00  0.00    +0.055 C 
BRANCH  23  25
ATOM     25  C   UNL     1      32.362 -23.062 -15.404  0.00  0.00    +0.066 C 
ATOM     26  C   UNL     1      32.693 -23.773 -14.247  0.00  0.00    +0.006 C 
ATOM     27  C   UNL     1      31.020 -22.797 -15.691  0.00  0.00    +0.006 C 
ATOM     28  C   UNL     1      31.690 -24.216 -13.385  0.00  0.00    +0.000 C 
ATOM     29  C   UNL     1      30.017 -23.239 -14.828  0.00  0.00    +0.000 C 
ATOM     30  C   UNL     1      30.351 -23.948 -13.675  0.00  0.00    +0.000 C 
ENDBRANCH  23  25
ENDBRANCH  18  21
ENDBRANCH  17  18
ENDBRANCH   1  17
TORSDOF 7
ENDMDL
MODEL 9
REMARK VINA RESULT:     -12.5      5.628      9.800
REMARK  Name = 154000
REMARK  7 active torsions:
REMARK  status: ('A' for Active; 'I' for Inactive)
REMARK    1  A    between atoms: O_1  and  C_5
REMARK    2  A    between atoms: O_1  and  C_17
REMARK    3  A    between atoms: C_2  and  C_8
REMARK    4  A    between atoms: C_8  and  C_13
REMARK    5  A    between atoms: C_17  and  C_18
REMARK    6  A    between atoms: C_18  and  C_21
REMARK    7  A    between atoms: C_23  and  C_25
REMARK                            x       y       z     vdW  Elec       q    Type
REMARK                         _______ _______ _______ _____ _____    ______ ____
ROOT
ATOM      1  O   UNL     1      32.680 -22.623 -18.069  0.00  0.00    -0.475 OA
ENDROOT
BRANCH   1   5
ATOM      2  C   UNL     1      34.481 -19.831 -20.528  0.00  0.00    -0.021 C 
ATOM      3  C   UNL     1      33.096 -19.878 -20.450  0.00  0.00    -0.001 C 
ATOM      4  C   UNL     1      35.271 -20.704 -19.796  0.00  0.00    -0.001 C 
ATOM      5  C   UNL     1      33.272 -21.704 -18.879  0.00  0.00    +0.139 C 
ATOM      6  C   UNL     1      32.488 -20.820 -19.621  0.00  0.00    +0.037 C 
ATOM      7  C   UNL     1      34.663 -21.646 -18.966  0.00  0.00    +0.037 C 
BRANCH   2   8
ATOM      8  C   UNL     1      35.137 -18.813 -21.426  0.00  0.00    +0.047 C 
BRANCH   8  13
ATOM      9  O   UNL     1      34.643 -15.621 -22.612  0.00  0.00    -0.346 OA
ATOM     10  O   UNL     1      34.008 -18.651 -24.229  0.00  0.00    -0.272 OA
ATOM     11  O   UNL     1      34.583 -16.021 -20.352  0.00  0.00    -0.247 OA
ATOM     12  N   UNL     1      34.471 -16.415 -23.765  0.00  0.00    -0.144 N 
ATOM     13  C   UNL     1      34.142 -17.801 -21.959  0.00  0.00    +0.184 C 
ATOM     14  C   UNL     1      34.189 -17.724 -23.456  0.00  0.00    +0.264 C 
ATOM     15  C   UNL     1      34.478 -16.405 -21.505  0.00  0.00    +0.348 C 
ATOM     16  H   UNL     1      34.545 -16.072 -24.685  0.00  0.00    +0.196 HD
ENDBRANCH   8  13
ENDBRANCH   2   8
ENDBRANCH   1   5
BRANCH   1  17
ATOM     17  C   UNL     1      31.922 -22.125 -16.966  0.00  0.00    +0.213 C 
BRANCH  17  18
ATOM     18  C   UNL     1      31.378 -23.291 -16.146  0.00  0.00    +0.105 C 
BRANCH  18  21
ATOM     19  O   UNL     1      32.634 -23.832 -12.762  0.00  0.00    -0.449 OA
ATOM     20  N   UNL     1      33.464 -23.407 -14.823  0.00  0.00    -0.373 NA
ATOM     21  C   UNL     1      32.111 -23.483 -14.849  0.00  0.00    +0.134 C 
ATOM     22  C   UNL     1      31.588 -23.738 -13.628  0.00  0.00    +0.216 C 
ATOM     23  C   UNL     1      33.722 -23.622 -13.552  0.00  0.00    +0.277 C 
ATOM     24  C   UNL     1      30.242 -23.919 -13.073  0.00  0.00    +0.055 C 
BRANCH  23  25
ATOM     25  C   UNL     1      34.989 -23.670 -12.875  0.00  0.00    +0.066 C 
ATOM     26  C   UNL     1      35.070 -23.370 -11.512  0.00  0.00    +0.006 C 
ATOM     27  C   UNL     1      36.147 -24.015 -13.576  0.00  0.00    +0.006 C 
ATOM     28  C   UNL     1      36.300 -23.415 -10.856  0.00  0.00    +0.000 C 
ATOM     29  C   UNL     1      37.378 -24.061 -12.920  0.00  0.00    +0.000 C 
ATOM     30  C   UNL     1      37.454 -23.761 -11.560  0.00  0.00    +0.000 C 
ENDBRANCH  23  25
ENDBRANCH  18  21
ENDBRANCH  17  18
ENDBRANCH   1  17
TORSDOF 7
ENDMDL
