MODEL 1
REMARK VINA RESULT:     -12.4      0.000      0.000
REMARK  Name = 448942
REMARK  8 active torsions:
REMARK  status: ('A' for Active; 'I' for Inactive)
REMARK    1  A    between atoms: C_2  and  C_20
REMARK    2  A    between atoms: C_3  and  C_6
REMARK    3  A    between atoms: C_7  and  C_13
REMARK    4  A    between atoms: N_19  and  C_22
REMARK    5  A    between atoms: C_22  and  C_23
REMARK    6  A    between atoms: C_22  and  C_29
REMARK    7  A    between atoms: C_29  and  C_31
REMARK    8  A    between atoms: C_31  and  O_32
REMARK                            x       y       z     vdW  Elec       q    Type
REMARK                         _______ _______ _______ _____ _____    ______ ____
ROOT
ATOM      1  S   UNL     1      32.362 -23.367 -15.961  0.00  0.00    -0.082 S 
ATOM      2  C   UNL     1      34.051 -23.328 -16.069  0.00  0.00    +0.083 C 
ATOM      3  C   UNL     1      33.471 -21.967 -17.808  0.00  0.00    +0.007 C 
ATOM      4  C   UNL     1      34.535 -22.564 -17.072  0.00  0.00    +0.012 C 
ATOM      5  C   UNL     1      32.237 -22.320 -17.311  0.00  0.00    +0.036 C 
ENDROOT
BRANCH   3   6
ATOM      6  C   UNL     1      33.586 -21.092 -18.944  0.00  0.00    +0.001 C 
ATOM      7  C   UNL     1      33.807 -19.395 -21.144  0.00  0.00    +0.000 C 
ATOM      8  C   UNL     1      34.844 -20.759 -19.441  0.00  0.00    +0.000 C 
ATOM      9  C   UNL     1      32.437 -20.578 -19.544  0.00  0.00    +0.000 C 
ATOM     10  C   UNL     1      34.956 -19.909 -20.542  0.00  0.00    +0.000 C 
ATOM     11  C   UNL     1      32.549 -19.729 -20.645  0.00  0.00    +0.000 C 
BRANCH   7  13
ATOM     12  N   UNL     1      34.144 -16.807 -24.488  0.00  0.00    -0.242 NA
ATOM     13  C   UNL     1      33.922 -18.513 -22.285  0.00  0.00    +0.003 C 
ATOM     14  C   UNL     1      34.558 -17.284 -22.154  0.00  0.00    +0.021 C 
ATOM     15  C   UNL     1      33.397 -18.890 -23.516  0.00  0.00    +0.021 C 
ATOM     16  C   UNL     1      34.643 -16.474 -23.276  0.00  0.00    +0.099 C 
ATOM     17  C   UNL     1      33.532 -18.009 -24.576  0.00  0.00    +0.099 C 
ENDBRANCH   7  13
ENDBRANCH   3   6
BRANCH   2  20
ATOM     18  O   UNL     1      34.877 -25.337 -15.123  0.00  0.00    -0.270 OA
ATOM     19  N   UNL     1      35.454 -23.365 -14.095  0.00  0.00    -0.298 N 
ATOM     20  C   UNL     1      34.819 -24.106 -15.088  0.00  0.00    +0.252 C 
ATOM     21  H   UNL     1      35.377 -22.384 -14.110  0.00  0.00    +0.150 HD
BRANCH  19  22
ATOM     22  C   UNL     1      36.222 -23.992 -13.041  0.00  0.00    +0.105 C 
BRANCH  22  23
ATOM     23  C   UNL     1      37.590 -24.392 -13.559  0.00  0.00    -0.004 C 
ATOM     24  C   UNL     1      38.106 -23.741 -14.664  0.00  0.00    -0.003 C 
ATOM     25  C   UNL     1      38.286 -25.398 -12.915  0.00  0.00    -0.003 C 
ATOM     26  C   UNL     1      39.364 -24.108 -15.141  0.00  0.00    -0.000 C 
ATOM     27  C   UNL     1      39.543 -25.766 -13.393  0.00  0.00    -0.000 C 
ATOM     28  C   UNL     1      40.082 -25.122 -14.507  0.00  0.00    -0.000 C 
ENDBRANCH  22  23
BRANCH  22  29
ATOM     29  C   UNL     1      36.275 -23.077 -11.805  0.00  0.00    +0.133 C 
BRANCH  29  31
ATOM     30  O   UNL     1      35.995 -23.519  -9.423  0.00  0.00    -0.250 OA
ATOM     31  C   UNL     1      35.630 -23.687 -10.579  0.00  0.00    +0.316 C 
BRANCH  31  32
ATOM     32  O   UNL     1      34.582 -24.486 -10.913  0.00  0.00    -0.480 OA
ATOM     33  H   UNL     1      33.705 -24.176 -10.809  0.00  0.00    +0.295 HD
ENDBRANCH  31  32
ENDBRANCH  29  31
ENDBRANCH  22  29
ENDBRANCH  19  22
ENDBRANCH   2  20
TORSDOF 8
ENDMDL
MODEL 2
REMARK VINA RESULT:     -11.7      3.021      4.871
REMARK  Name = 448942
REMARK  8 active torsions:
REMARK  status: ('A' for Active; 'I' for Inactive)
REMARK    1  A    between atoms: C_2  and  C_20
REMARK    2  A    between atoms: C_3  and  C_6
REMARK    3  A    between atoms: C_7  and  C_13
REMARK    4  A    between atoms: N_19  and  C_22
REMARK    5  A    between atoms: C_22  and  C_23
REMARK    6  A    between atoms: C_22  and  C_29
REMARK    7  A    between atoms: C_29  and  C_31
REMARK    8  A    between atoms: C_31  and  O_32
REMARK                            x       y       z     vdW  Elec       q    Type
REMARK                         _______ _______ _______ _____ _____    ______ ____
ROOT
ATOM      1  S   UNL     1      36.329 -20.823 -19.621  0.00  0.00    -0.082 S 
ATOM      2  C   UNL     1      34.645 -20.904 -19.460  0.00  0.00    +0.083 C 
ATOM      3  C   UNL     1      34.871 -19.029 -20.743  0.00  0.00    +0.007 C 
ATOM      4  C   UNL     1      33.970 -19.916 -20.086  0.00  0.00    +0.012 C 
ATOM      5  C   UNL     1      36.184 -19.405 -20.570  0.00  0.00    +0.036 C 
ENDROOT
BRANCH   3   6
ATOM      6  C   UNL     1      34.533 -17.861 -21.511  0.00  0.00    +0.001 C 
ATOM      7  C   UNL     1      33.876 -15.598 -23.001  0.00  0.00    +0.000 C 
ATOM      8  C   UNL     1      34.564 -16.602 -20.914  0.00  0.00    +0.000 C 
ATOM      9  C   UNL     1      34.173 -17.991 -22.852  0.00  0.00    +0.000 C 
ATOM     10  C   UNL     1      34.235 -15.469 -21.658  0.00  0.00    +0.000 C 
ATOM     11  C   UNL     1      33.844 -16.858 -23.597  0.00  0.00    +0.000 C 
BRANCH   7  13
ATOM     12  N   UNL     1      32.869 -12.154 -25.263  0.00  0.00    -0.242 NA
ATOM     13  C   UNL     1      33.533 -14.424 -23.773  0.00  0.00    +0.003 C 
ATOM     14  C   UNL     1      33.531 -13.170 -23.172  0.00  0.00    +0.021 C 
ATOM     15  C   UNL     1      33.203 -14.544 -25.119  0.00  0.00    +0.021 C 
ATOM     16  C   UNL     1      33.194 -12.076 -23.953  0.00  0.00    +0.099 C 
ATOM     17  C   UNL     1      32.881 -13.389 -25.813  0.00  0.00    +0.099 C 
ENDBRANCH   7  13
ENDBRANCH   3   6
BRANCH   2  20
ATOM     18  O   UNL     1      33.410 -22.907 -19.190  0.00  0.00    -0.270 OA
ATOM     19  N   UNL     1      34.337 -21.972 -17.308  0.00  0.00    -0.298 N 
ATOM     20  C   UNL     1      34.084 -22.012 -18.676  0.00  0.00    +0.252 C 
ATOM     21  H   UNL     1      34.881 -21.236 -16.945  0.00  0.00    +0.150 HD
BRANCH  19  22
ATOM     22  C   UNL     1      33.824 -22.976 -16.401  0.00  0.00    +0.105 C 
BRANCH  22  23
ATOM     23  C   UNL     1      34.937 -23.492 -15.510  0.00  0.00    -0.004 C 
ATOM     24  C   UNL     1      34.799 -24.731 -14.911  0.00  0.00    -0.003 C 
ATOM     25  C   UNL     1      36.062 -22.712 -15.318  0.00  0.00    -0.003 C 
ATOM     26  C   UNL     1      35.823 -25.205 -14.091  0.00  0.00    -0.000 C 
ATOM     27  C   UNL     1      37.085 -23.185 -14.498  0.00  0.00    -0.000 C 
ATOM     28  C   UNL     1      36.965 -24.432 -13.884  0.00  0.00    -0.000 C 
ENDBRANCH  22  23
BRANCH  22  29
ATOM     29  C   UNL     1      32.618 -22.424 -15.622  0.00  0.00    +0.133 C 
BRANCH  29  31
ATOM     30  O   UNL     1      30.462 -23.545 -15.827  0.00  0.00    -0.250 OA
ATOM     31  C   UNL     1      31.287 -22.754 -16.264  0.00  0.00    +0.316 C 
BRANCH  31  32
ATOM     32  O   UNL     1      31.114 -22.074 -17.429  0.00  0.00    -0.480 OA
ATOM     33  H   UNL     1      30.862 -21.173 -17.411  0.00  0.00    +0.295 HD
ENDBRANCH  31  32
ENDBRANCH  29  31
ENDBRANCH  22  29
ENDBRANCH  19  22
ENDBRANCH   2  20
TORSDOF 8
ENDMDL
MODEL 3
REMARK VINA RESULT:     -11.4      7.872     11.866
REMARK  Name = 448942
REMARK  8 active torsions:
REMARK  status: ('A' for Active; 'I' for Inactive)
REMARK    1  A    between atoms: C_2  and  C_20
REMARK    2  A    between atoms: C_3  and  C_6
REMARK    3  A    between atoms: C_7  and  C_13
REMARK    4  A    between atoms: N_19  and  C_22
REMARK    5  A    between atoms: C_22  and  C_23
REMARK    6  A    between atoms: C_22  and  C_29
REMARK    7  A    between atoms: C_29  and  C_31
REMARK    8  A    between atoms: C_31  and  O_32
REMARK                            x       y       z     vdW  Elec       q    Type
REMARK                         _______ _______ _______ _____ _____    ______ ____
ROOT
ATOM      1  S   UNL     1      32.868 -14.396 -20.518  0.00  0.00    -0.082 S 
ATOM      2  C   UNL     1      33.565 -14.191 -22.047  0.00  0.00    +0.083 C 
ATOM      3  C   UNL     1      32.586 -12.151 -21.737  0.00  0.00    +0.007 C 
ATOM      4  C   UNL     1      33.360 -12.977 -22.603  0.00  0.00    +0.012 C 
ATOM      5  C   UNL     1      32.250 -12.799 -20.569  0.00  0.00    +0.036 C 
ENDROOT
BRANCH   3   6
ATOM      6  C   UNL     1      32.163 -10.798 -21.978  0.00  0.00    +0.001 C 
ATOM      7  C   UNL     1      31.344  -8.174 -22.442  0.00  0.00    +0.000 C 
ATOM      8  C   UNL     1      32.628 -10.113 -23.098  0.00  0.00    +0.000 C 
ATOM      9  C   UNL     1      31.290 -10.174 -21.088  0.00  0.00    +0.000 C 
ATOM     10  C   UNL     1      32.219  -8.800 -23.332  0.00  0.00    +0.000 C 
ATOM     11  C   UNL     1      30.880  -8.861 -21.321  0.00  0.00    +0.000 C 
BRANCH   7  13
ATOM     12  N   UNL     1      30.105  -4.180 -23.149  0.00  0.00    -0.242 NA
ATOM     13  C   UNL     1      30.921  -6.812 -22.683  0.00  0.00    +0.003 C 
ATOM     14  C   UNL     1      30.837  -6.328 -23.983  0.00  0.00    +0.021 C 
ATOM     15  C   UNL     1      30.597  -5.982 -21.615  0.00  0.00    +0.021 C 
ATOM     16  C   UNL     1      30.428  -5.016 -24.162  0.00  0.00    +0.099 C 
ATOM     17  C   UNL     1      30.199  -4.686 -21.899  0.00  0.00    +0.099 C 
ENDBRANCH   7  13
ENDBRANCH   3   6
BRANCH   2  20
ATOM     18  O   UNL     1      35.265 -15.160 -23.381  0.00  0.00    -0.270 OA
ATOM     19  N   UNL     1      33.854 -16.586 -22.262  0.00  0.00    -0.298 N 
ATOM     20  C   UNL     1      34.312 -15.320 -22.617  0.00  0.00    +0.252 C 
ATOM     21  H   UNL     1      33.088 -16.661 -21.648  0.00  0.00    +0.150 HD
BRANCH  19  22
ATOM     22  C   UNL     1      34.467 -17.795 -22.769  0.00  0.00    +0.105 C 
BRANCH  22  23
ATOM     23  C   UNL     1      34.873 -18.695 -21.618  0.00  0.00    -0.004 C 
ATOM     24  C   UNL     1      36.157 -18.602 -21.113  0.00  0.00    -0.003 C 
ATOM     25  C   UNL     1      33.951 -19.587 -21.104  0.00  0.00    -0.003 C 
ATOM     26  C   UNL     1      36.530 -19.431 -20.054  0.00  0.00    -0.000 C 
ATOM     27  C   UNL     1      34.324 -20.416 -20.046  0.00  0.00    -0.000 C 
ATOM     28  C   UNL     1      35.615 -20.338 -19.522  0.00  0.00    -0.000 C 
ENDBRANCH  22  23
BRANCH  22  29
ATOM     29  C   UNL     1      33.537 -18.477 -23.787  0.00  0.00    +0.133 C 
BRANCH  29  31
ATOM     30  O   UNL     1      31.842 -17.561 -25.282  0.00  0.00    -0.250 OA
ATOM     31  C   UNL     1      32.973 -17.523 -24.818  0.00  0.00    +0.316 C 
BRANCH  31  32
ATOM     32  O   UNL     1      33.899 -16.604 -25.204  0.00  0.00    -0.480 OA
ATOM     33  H   UNL     1      34.798 -16.721 -24.972  0.00  0.00    +0.295 HD
ENDBRANCH  31  32
ENDBRANCH  29  31
ENDBRANCH  22  29
ENDBRANCH  19  22
ENDBRANCH   2  20
TORSDOF 8
ENDMDL
MODEL 4
REMARK VINA RESULT:     -11.4      2.489      4.299
REMARK  Name = 448942
REMARK  8 active torsions:
REMARK  status: ('A' for Active; 'I' for Inactive)
REMARK    1  A    between atoms: C_2  and  C_20
REMARK    2  A    between atoms: C_3  and  C_6
REMARK    3  A    between atoms: C_7  and  C_13
REMARK    4  A    between atoms: N_19  and  C_22
REMARK    5  A    between atoms: C_22  and  C_23
REMARK    6  A    between atoms: C_22  and  C_29
REMARK    7  A    between atoms: C_29  and  C_31
REMARK    8  A    between atoms: C_31  and  O_32
REMARK                            x       y       z     vdW  Elec       q    Type
REMARK                         _______ _______ _______ _____ _____    ______ ____
ROOT
ATOM      1  S   UNL     1      36.661 -22.177 -16.407  0.00  0.00    -0.082 S 
ATOM      2  C   UNL     1      34.978 -22.358 -16.436  0.00  0.00    +0.083 C 
ATOM      3  C   UNL     1      35.304 -21.028 -18.262  0.00  0.00    +0.007 C 
ATOM      4  C   UNL     1      34.357 -21.716 -17.449  0.00  0.00    +0.012 C 
ATOM      5  C   UNL     1      36.593 -21.193 -17.808  0.00  0.00    +0.036 C 
ENDROOT
BRANCH   3   6
ATOM      6  C   UNL     1      35.029 -20.234 -19.430  0.00  0.00    +0.001 C 
ATOM      7  C   UNL     1      34.495 -18.696 -21.693  0.00  0.00    +0.000 C 
ATOM      8  C   UNL     1      36.042 -19.470 -20.006  0.00  0.00    +0.000 C 
ATOM      9  C   UNL     1      33.749 -20.231 -19.983  0.00  0.00    +0.000 C 
ATOM     10  C   UNL     1      35.775 -18.700 -21.138  0.00  0.00    +0.000 C 
ATOM     11  C   UNL     1      33.482 -19.461 -21.115  0.00  0.00    +0.000 C 
BRANCH   7  13
ATOM     12  N   UNL     1      33.680 -16.349 -25.131  0.00  0.00    -0.242 NA
ATOM     13  C   UNL     1      34.218 -17.897 -22.865  0.00  0.00    +0.003 C 
ATOM     14  C   UNL     1      34.682 -16.589 -22.943  0.00  0.00    +0.021 C 
ATOM     15  C   UNL     1      33.484 -18.432 -23.919  0.00  0.00    +0.021 C 
ATOM     16  C   UNL     1      34.390 -15.863 -24.087  0.00  0.00    +0.099 C 
ATOM     17  C   UNL     1      33.245 -17.624 -25.019  0.00  0.00    +0.099 C 
ENDBRANCH   7  13
ENDBRANCH   3   6
BRANCH   2  20
ATOM     18  O   UNL     1      34.481 -24.403 -15.347  0.00  0.00    -0.270 OA
ATOM     19  N   UNL     1      33.598 -22.482 -14.449  0.00  0.00    -0.298 N 
ATOM     20  C   UNL     1      34.359 -23.177 -15.385  0.00  0.00    +0.252 C 
ATOM     21  H   UNL     1      33.531 -21.503 -14.522  0.00  0.00    +0.150 HD
BRANCH  19  22
ATOM     22  C   UNL     1      32.902 -23.154 -13.373  0.00  0.00    +0.105 C 
BRANCH  22  23
ATOM     23  C   UNL     1      31.501 -23.532 -13.814  0.00  0.00    -0.004 C 
ATOM     24  C   UNL     1      30.754 -22.618 -14.535  0.00  0.00    -0.003 C 
ATOM     25  C   UNL     1      31.004 -24.779 -13.483  0.00  0.00    -0.003 C 
ATOM     26  C   UNL     1      29.465 -22.965 -14.940  0.00  0.00    -0.000 C 
ATOM     27  C   UNL     1      29.716 -25.125 -13.888  0.00  0.00    -0.000 C 
ATOM     28  C   UNL     1      28.946 -24.218 -14.616  0.00  0.00    -0.000 C 
ENDBRANCH  22  23
BRANCH  22  29
ATOM     29  C   UNL     1      33.730 -24.347 -12.866  0.00  0.00    +0.133 C 
BRANCH  29  31
ATOM     30  O   UNL     1      34.809 -24.629 -10.697  0.00  0.00    -0.250 OA
ATOM     31  C   UNL     1      34.665 -23.989 -11.730  0.00  0.00    +0.316 C 
BRANCH  31  32
ATOM     32  O   UNL     1      35.330 -22.830 -11.980  0.00  0.00    -0.480 OA
ATOM     33  H   UNL     1      36.133 -22.846 -12.461  0.00  0.00    +0.295 HD
ENDBRANCH  31  32
ENDBRANCH  29  31
ENDBRANCH  22  29
ENDBRANCH  19  22
ENDBRANCH   2  20
TORSDOF 8
ENDMDL
MODEL 5
REMARK VINA RESULT:     -11.0     10.680     16.721
REMARK  Name = 448942
REMARK  8 active torsions:
REMARK  status: ('A' for Active; 'I' for Inactive)
REMARK    1  A    between atoms: C_2  and  C_20
REMARK    2  A    between atoms: C_3  and  C_6
REMARK    3  A    between atoms: C_7  and  C_13
REMARK    4  A    between atoms: N_19  and  C_22
REMARK    5  A    between atoms: C_22  and  C_23
REMARK    6  A    between atoms: C_22  and  C_29
REMARK    7  A    between atoms: C_29  and  C_31
REMARK    8  A    between atoms: C_31  and  O_32
REMARK                            x       y       z     vdW  Elec       q    Type
REMARK                         _______ _______ _______ _____ _____    ______ ____
ROOT
ATOM      1  S   UNL     1      31.001  -9.055 -22.279  0.00  0.00    -0.082 S 
ATOM      2  C   UNL     1      32.582  -8.809 -22.833  0.00  0.00    +0.083 C 
ATOM      3  C   UNL     1      32.569 -11.074 -22.542  0.00  0.00    +0.007 C 
ATOM      4  C   UNL     1      33.326  -9.932 -22.937  0.00  0.00    +0.012 C 
ATOM      5  C   UNL     1      31.289 -10.739 -22.161  0.00  0.00    +0.036 C 
ENDROOT
BRANCH   3   6
ATOM      6  C   UNL     1      33.014 -12.441 -22.516  0.00  0.00    +0.001 C 
ATOM      7  C   UNL     1      33.874 -15.093 -22.462  0.00  0.00    +0.000 C 
ATOM      8  C   UNL     1      33.058 -13.182 -23.695  0.00  0.00    +0.000 C 
ATOM      9  C   UNL     1      33.398 -13.024 -21.308  0.00  0.00    +0.000 C 
ATOM     10  C   UNL     1      33.488 -14.508 -23.669  0.00  0.00    +0.000 C 
ATOM     11  C   UNL     1      33.828 -14.350 -21.282  0.00  0.00    +0.000 C 
BRANCH   7  13
ATOM     12  N   UNL     1      35.181 -19.127 -22.381  0.00  0.00    -0.242 NA
ATOM     13  C   UNL     1      34.319 -16.468 -22.434  0.00  0.00    +0.003 C 
ATOM     14  C   UNL     1      34.983 -16.964 -21.318  0.00  0.00    +0.021 C 
ATOM     15  C   UNL     1      34.085 -17.300 -23.524  0.00  0.00    +0.021 C 
ATOM     16  C   UNL     1      35.390 -18.289 -21.341  0.00  0.00    +0.099 C 
ATOM     17  C   UNL     1      34.532 -18.609 -23.448  0.00  0.00    +0.099 C 
ENDBRANCH   7  13
ENDBRANCH   3   6
BRANCH   2  20
ATOM     18  O   UNL     1      34.149  -7.038 -22.976  0.00  0.00    -0.270 OA
ATOM     19  N   UNL     1      31.987  -6.595 -23.613  0.00  0.00    -0.298 N 
ATOM     20  C   UNL     1      32.994  -7.434 -23.144  0.00  0.00    +0.252 C 
ATOM     21  H   UNL     1      31.079  -6.958 -23.730  0.00  0.00    +0.150 HD
BRANCH  19  22
ATOM     22  C   UNL     1      32.231  -5.205 -23.933  0.00  0.00    +0.105 C 
BRANCH  22  23
ATOM     23  C   UNL     1      32.987  -5.096 -25.243  0.00  0.00    -0.004 C 
ATOM     24  C   UNL     1      34.205  -4.441 -25.263  0.00  0.00    -0.003 C 
ATOM     25  C   UNL     1      32.441  -5.654 -26.383  0.00  0.00    -0.003 C 
ATOM     26  C   UNL     1      34.901  -4.340 -26.468  0.00  0.00    -0.000 C 
ATOM     27  C   UNL     1      33.136  -5.553 -27.588  0.00  0.00    -0.000 C 
ATOM     28  C   UNL     1      34.366  -4.895 -27.631  0.00  0.00    -0.000 C 
ENDBRANCH  22  23
BRANCH  22  29
ATOM     29  C   UNL     1      30.911  -4.415 -23.916  0.00  0.00    +0.133 C 
BRANCH  29  31
ATOM     30  O   UNL     1      29.696  -2.987 -22.357  0.00  0.00    -0.250 OA
ATOM     31  C   UNL     1      30.634  -3.736 -22.592  0.00  0.00    +0.316 C 
BRANCH  31  32
ATOM     32  O   UNL     1      31.586  -4.040 -21.669  0.00  0.00    -0.480 OA
ATOM     33  H   UNL     1      32.134  -4.788 -21.792  0.00  0.00    +0.295 HD
ENDBRANCH  31  32
ENDBRANCH  29  31
ENDBRANCH  22  29
ENDBRANCH  19  22
ENDBRANCH   2  20
TORSDOF 8
ENDMDL
MODEL 6
REMARK VINA RESULT:     -10.7      8.817     14.760
REMARK  Name = 448942
REMARK  8 active torsions:
REMARK  status: ('A' for Active; 'I' for Inactive)
REMARK    1  A    between atoms: C_2  and  C_20
REMARK    2  A    between atoms: C_3  and  C_6
REMARK    3  A    between atoms: C_7  and  C_13
REMARK    4  A    between atoms: N_19  and  C_22
REMARK    5  A    between atoms: C_22  and  C_23
REMARK    6  A    between atoms: C_22  and  C_29
REMARK    7  A    between atoms: C_29  and  C_31
REMARK    8  A    between atoms: C_31  and  O_32
REMARK                            x       y       z     vdW  Elec       q    Type
REMARK                         _______ _______ _______ _____ _____    ______ ____
ROOT
ATOM      1  S   UNL     1      32.697 -11.899 -24.925  0.00  0.00    -0.082 S 
ATOM      2  C   UNL     1      33.419 -11.335 -23.501  0.00  0.00    +0.083 C 
ATOM      3  C   UNL     1      33.592 -13.594 -23.213  0.00  0.00    +0.007 C 
ATOM      4  C   UNL     1      33.856 -12.304 -22.667  0.00  0.00    +0.012 C 
ATOM      5  C   UNL     1      32.965 -13.519 -24.437  0.00  0.00    +0.036 C 
ENDROOT
BRANCH   3   6
ATOM      6  C   UNL     1      33.907 -14.867 -22.623  0.00  0.00    +0.001 C 
ATOM      7  C   UNL     1      34.518 -17.334 -21.477  0.00  0.00    +0.000 C 
ATOM      8  C   UNL     1      34.121 -15.978 -23.437  0.00  0.00    +0.000 C 
ATOM      9  C   UNL     1      33.998 -14.987 -21.236  0.00  0.00    +0.000 C 
ATOM     10  C   UNL     1      34.426 -17.212 -22.864  0.00  0.00    +0.000 C 
ATOM     11  C   UNL     1      34.303 -16.221 -20.664  0.00  0.00    +0.000 C 
BRANCH   7  13
ATOM     12  N   UNL     1      35.443 -21.090 -19.737  0.00  0.00    -0.242 NA
ATOM     13  C   UNL     1      34.833 -18.614 -20.883  0.00  0.00    +0.003 C 
ATOM     14  C   UNL     1      36.154 -18.950 -20.609  0.00  0.00    +0.021 C 
ATOM     15  C   UNL     1      33.817 -19.515 -20.584  0.00  0.00    +0.021 C 
ATOM     16  C   UNL     1      36.405 -20.189 -20.041  0.00  0.00    +0.099 C 
ATOM     17  C   UNL     1      34.171 -20.728 -20.018  0.00  0.00    +0.099 C 
ENDBRANCH   7  13
ENDBRANCH   3   6
BRANCH   2  20
ATOM     18  O   UNL     1      34.460  -9.218 -23.708  0.00  0.00    -0.270 OA
ATOM     19  N   UNL     1      32.449  -9.306 -22.603  0.00  0.00    -0.298 N 
ATOM     20  C   UNL     1      33.504  -9.882 -23.304  0.00  0.00    +0.252 C 
ATOM     21  H   UNL     1      31.708  -9.879 -22.301  0.00  0.00    +0.150 HD
BRANCH  19  22
ATOM     22  C   UNL     1      32.406  -7.891 -22.304  0.00  0.00    +0.105 C 
BRANCH  22  23
ATOM     23  C   UNL     1      32.181  -7.095 -23.575  0.00  0.00    -0.004 C 
ATOM     24  C   UNL     1      33.104  -6.130 -23.935  0.00  0.00    -0.003 C 
ATOM     25  C   UNL     1      31.061  -7.354 -24.342  0.00  0.00    -0.003 C 
ATOM     26  C   UNL     1      32.897  -5.398 -25.105  0.00  0.00    -0.000 C 
ATOM     27  C   UNL     1      30.854  -6.622 -25.510  0.00  0.00    -0.000 C 
ATOM     28  C   UNL     1      31.772  -5.643 -25.891  0.00  0.00    -0.000 C 
ENDBRANCH  22  23
BRANCH  22  29
ATOM     29  C   UNL     1      31.363  -7.610 -21.209  0.00  0.00    +0.133 C 
BRANCH  29  31
ATOM     30  O   UNL     1      31.644  -8.534 -18.970  0.00  0.00    -0.250 OA
ATOM     31  C   UNL     1      31.928  -7.688 -19.807  0.00  0.00    +0.316 C 
BRANCH  31  32
ATOM     32  O   UNL     1      32.795  -6.670 -19.563  0.00  0.00    -0.480 OA
ATOM     33  H   UNL     1      32.511  -5.782 -19.651  0.00  0.00    +0.295 HD
ENDBRANCH  31  32
ENDBRANCH  29  31
ENDBRANCH  22  29
ENDBRANCH  19  22
ENDBRANCH   2  20
TORSDOF 8
ENDMDL
MODEL 7
REMARK VINA RESULT:     -10.7      4.009     10.550
REMARK  Name = 448942
REMARK  8 active torsions:
REMARK  status: ('A' for Active; 'I' for Inactive)
REMARK    1  A    between atoms: C_2  and  C_20
REMARK    2  A    between atoms: C_3  and  C_6
REMARK    3  A    between atoms: C_7  and  C_13
REMARK    4  A    between atoms: N_19  and  C_22
REMARK    5  A    between atoms: C_22  and  C_23
REMARK    6  A    between atoms: C_22  and  C_29
REMARK    7  A    between atoms: C_29  and  C_31
REMARK    8  A    between atoms: C_31  and  O_32
REMARK                            x       y       z     vdW  Elec       q    Type
REMARK                         _______ _______ _______ _____ _____    ______ ____
ROOT
ATOM      1  S   UNL     1      32.146 -20.562 -19.976  0.00  0.00    -0.082 S 
ATOM      2  C   UNL     1      33.764 -20.175 -20.292  0.00  0.00    +0.083 C 
ATOM      3  C   UNL     1      33.971 -21.382 -18.364  0.00  0.00    +0.007 C 
ATOM      4  C   UNL     1      34.646 -20.652 -19.386  0.00  0.00    +0.012 C 
ATOM      5  C   UNL     1      32.609 -21.411 -18.562  0.00  0.00    +0.036 C 
ENDROOT
BRANCH   3   6
ATOM      6  C   UNL     1      34.566 -22.037 -17.230  0.00  0.00    +0.001 C 
ATOM      7  C   UNL     1      35.720 -23.305 -15.032  0.00  0.00    +0.000 C 
ATOM      8  C   UNL     1      33.804 -22.902 -16.448  0.00  0.00    +0.000 C 
ATOM      9  C   UNL     1      35.905 -21.804 -16.916  0.00  0.00    +0.000 C 
ATOM     10  C   UNL     1      34.380 -23.536 -15.347  0.00  0.00    +0.000 C 
ATOM     11  C   UNL     1      36.481 -22.439 -15.816  0.00  0.00    +0.000 C 
BRANCH   7  13
ATOM     12  N   UNL     1      37.475 -25.230 -11.685  0.00  0.00    -0.242 NA
ATOM     13  C   UNL     1      36.317 -23.962 -13.890  0.00  0.00    +0.003 C 
ATOM     14  C   UNL     1      36.837 -23.207 -12.845  0.00  0.00    +0.021 C 
ATOM     15  C   UNL     1      36.376 -25.350 -13.834  0.00  0.00    +0.021 C 
ATOM     16  C   UNL     1      37.400 -23.883 -11.774  0.00  0.00    +0.099 C 
ATOM     17  C   UNL     1      36.959 -25.930 -12.720  0.00  0.00    +0.099 C 
ENDBRANCH   7  13
ENDBRANCH   3   6
BRANCH   2  20
ATOM     18  O   UNL     1      34.188 -19.888 -22.604  0.00  0.00    -0.270 OA
ATOM     19  N   UNL     1      34.210 -18.010 -21.281  0.00  0.00    -0.298 N 
ATOM     20  C   UNL     1      34.058 -19.378 -21.490  0.00  0.00    +0.252 C 
ATOM     21  H   UNL     1      34.097 -17.651 -20.372  0.00  0.00    +0.150 HD
BRANCH  19  22
ATOM     22  C   UNL     1      34.532 -17.100 -22.359  0.00  0.00    +0.105 C 
BRANCH  22  23
ATOM     23  C   UNL     1      34.167 -15.680 -21.969  0.00  0.00    -0.004 C 
ATOM     24  C   UNL     1      34.174 -14.695 -22.939  0.00  0.00    -0.003 C 
ATOM     25  C   UNL     1      33.837 -15.407 -20.655  0.00  0.00    -0.003 C 
ATOM     26  C   UNL     1      33.839 -13.389 -22.580  0.00  0.00    -0.000 C 
ATOM     27  C   UNL     1      33.503 -14.102 -20.296  0.00  0.00    -0.000 C 
ATOM     28  C   UNL     1      33.505 -13.092 -21.259  0.00  0.00    -0.000 C 
ENDBRANCH  22  23
BRANCH  22  29
ATOM     29  C   UNL     1      36.004 -17.265 -22.774  0.00  0.00    +0.133 C 
BRANCH  29  31
ATOM     30  O   UNL     1      36.593 -18.014 -20.529  0.00  0.00    -0.250 OA
ATOM     31  C   UNL     1      36.850 -17.954 -21.723  0.00  0.00    +0.316 C 
BRANCH  31  32
ATOM     32  O   UNL     1      37.974 -18.493 -22.265  0.00  0.00    -0.480 OA
ATOM     33  H   UNL     1      38.243 -19.356 -22.022  0.00  0.00    +0.295 HD
ENDBRANCH  31  32
ENDBRANCH  29  31
ENDBRANCH  22  29
ENDBRANCH  19  22
ENDBRANCH   2  20
TORSDOF 8
ENDMDL
MODEL 8
REMARK VINA RESULT:     -10.6     10.920     16.857
REMARK  Name = 448942
REMARK  8 active torsions:
REMARK  status: ('A' for Active; 'I' for Inactive)
REMARK    1  A    between atoms: C_2  and  C_20
REMARK    2  A    between atoms: C_3  and  C_6
REMARK    3  A    between atoms: C_7  and  C_13
REMARK    4  A    between atoms: N_19  and  C_22
REMARK    5  A    between atoms: C_22  and  C_23
REMARK    6  A    between atoms: C_22  and  C_29
REMARK    7  A    between atoms: C_29  and  C_31
REMARK    8  A    between atoms: C_31  and  O_32
REMARK                            x       y       z     vdW  Elec       q    Type
REMARK                         _______ _______ _______ _____ _____    ______ ____
ROOT
ATOM      1  S   UNL     1      30.845  -9.115 -21.521  0.00  0.00    -0.082 S 
ATOM      2  C   UNL     1      31.703  -9.023 -22.979  0.00  0.00    +0.083 C 
ATOM      3  C   UNL     1      32.194 -11.153 -22.316  0.00  0.00    +0.007 C 
ATOM      4  C   UNL     1      32.379 -10.146 -23.308  0.00  0.00    +0.012 C 
ATOM      5  C   UNL     1      31.383 -10.724 -21.289  0.00  0.00    +0.036 C 
ENDROOT
BRANCH   3   6
ATOM      6  C   UNL     1      32.751 -12.478 -22.312  0.00  0.00    +0.001 C 
ATOM      7  C   UNL     1      33.831 -15.049 -22.302  0.00  0.00    +0.000 C 
ATOM      8  C   UNL     1      32.868 -13.188 -23.506  0.00  0.00    +0.000 C 
ATOM      9  C   UNL     1      33.173 -13.051 -21.113  0.00  0.00    +0.000 C 
ATOM     10  C   UNL     1      33.408 -14.474 -23.502  0.00  0.00    +0.000 C 
ATOM     11  C   UNL     1      33.713 -14.338 -21.109  0.00  0.00    +0.000 C 
BRANCH   7  13
ATOM     12  N   UNL     1      35.467 -18.962 -22.289  0.00  0.00    -0.242 NA
ATOM     13  C   UNL     1      34.390 -16.382 -22.298  0.00  0.00    +0.003 C 
ATOM     14  C   UNL     1      34.303 -17.179 -23.434  0.00  0.00    +0.021 C 
ATOM     15  C   UNL     1      35.015 -16.875 -21.157  0.00  0.00    +0.021 C 
ATOM     16  C   UNL     1      34.852 -18.450 -23.379  0.00  0.00    +0.099 C 
ATOM     17  C   UNL     1      35.532 -18.159 -21.204  0.00  0.00    +0.099 C 
ENDBRANCH   7  13
ENDBRANCH   3   6
BRANCH   2  20
ATOM     18  O   UNL     1      30.937  -7.640 -24.742  0.00  0.00    -0.270 OA
ATOM     19  N   UNL     1      32.439  -6.733 -23.261  0.00  0.00    -0.298 N 
ATOM     20  C   UNL     1      31.636  -7.766 -23.736  0.00  0.00    +0.252 C 
ATOM     21  H   UNL     1      32.981  -6.884 -22.452  0.00  0.00    +0.150 HD
BRANCH  19  22
ATOM     22  C   UNL     1      32.504  -5.446 -23.918  0.00  0.00    +0.105 C 
BRANCH  22  23
ATOM     23  C   UNL     1      31.606  -4.452 -23.209  0.00  0.00    -0.004 C 
ATOM     24  C   UNL     1      30.792  -4.895 -22.182  0.00  0.00    -0.003 C 
ATOM     25  C   UNL     1      31.621  -3.128 -23.606  0.00  0.00    -0.003 C 
ATOM     26  C   UNL     1      29.965  -3.981 -21.529  0.00  0.00    -0.000 C 
ATOM     27  C   UNL     1      30.794  -2.214 -22.954  0.00  0.00    -0.000 C 
ATOM     28  C   UNL     1      29.965  -2.641 -21.916  0.00  0.00    -0.000 C 
ENDBRANCH  22  23
BRANCH  22  29
ATOM     29  C   UNL     1      33.967  -4.981 -24.033  0.00  0.00    +0.133 C 
BRANCH  29  31
ATOM     30  O   UNL     1      35.282  -4.177 -25.922  0.00  0.00    -0.250 OA
ATOM     31  C   UNL     1      34.485  -4.979 -25.456  0.00  0.00    +0.316 C 
BRANCH  31  32
ATOM     32  O   UNL     1      33.932  -5.982 -26.188  0.00  0.00    -0.480 OA
ATOM     33  H   UNL     1      33.274  -5.787 -26.826  0.00  0.00    +0.295 HD
ENDBRANCH  31  32
ENDBRANCH  29  31
ENDBRANCH  22  29
ENDBRANCH  19  22
ENDBRANCH   2  20
TORSDOF 8
ENDMDL
MODEL 9
REMARK VINA RESULT:     -10.4      4.454      6.973
REMARK  Name = 448942
REMARK  8 active torsions:
REMARK  status: ('A' for Active; 'I' for Inactive)
REMARK    1  A    between atoms: C_2  and  C_20
REMARK    2  A    between atoms: C_3  and  C_6
REMARK    3  A    between atoms: C_7  and  C_13
REMARK    4  A    between atoms: N_19  and  C_22
REMARK    5  A    between atoms: C_22  and  C_23
REMARK    6  A    between atoms: C_22  and  C_29
REMARK    7  A    between atoms: C_29  and  C_31
REMARK    8  A    between atoms: C_31  and  O_32
REMARK                            x       y       z     vdW  Elec       q    Type
REMARK                         _______ _______ _______ _____ _____    ______ ____
ROOT
ATOM      1  S   UNL     1      36.688 -18.753 -21.656  0.00  0.00    -0.082 S 
ATOM      2  C   UNL     1      35.214 -19.124 -20.909  0.00  0.00    +0.083 C 
ATOM      3  C   UNL     1      34.870 -16.944 -21.496  0.00  0.00    +0.007 C 
ATOM      4  C   UNL     1      34.326 -18.106 -20.876  0.00  0.00    +0.012 C 
ATOM      5  C   UNL     1      36.148 -17.157 -21.963  0.00  0.00    +0.036 C 
ENDROOT
BRANCH   3   6
ATOM      6  C   UNL     1      34.230 -15.666 -21.655  0.00  0.00    +0.001 C 
ATOM      7  C   UNL     1      32.989 -13.189 -21.965  0.00  0.00    +0.000 C 
ATOM      8  C   UNL     1      33.708 -15.006 -20.544  0.00  0.00    +0.000 C 
ATOM      9  C   UNL     1      34.133 -15.090 -22.921  0.00  0.00    +0.000 C 
ATOM     10  C   UNL     1      33.086 -13.767 -20.698  0.00  0.00    +0.000 C 
ATOM     11  C   UNL     1      33.511 -13.851 -23.076  0.00  0.00    +0.000 C 
BRANCH   7  13
ATOM     12  N   UNL     1      31.093  -9.424 -22.436  0.00  0.00    -0.242 NA
ATOM     13  C   UNL     1      32.343 -11.905 -22.125  0.00  0.00    +0.003 C 
ATOM     14  C   UNL     1      31.288 -11.546 -21.294  0.00  0.00    +0.021 C 
ATOM     15  C   UNL     1      32.774 -11.024 -23.112  0.00  0.00    +0.021 C 
ATOM     16  C   UNL     1      30.702 -10.306 -21.488  0.00  0.00    +0.099 C 
ATOM     17  C   UNL     1      32.122  -9.808 -23.225  0.00  0.00    +0.099 C 
ENDBRANCH   7  13
ENDBRANCH   3   6
BRANCH   2  20
ATOM     18  O   UNL     1      35.127 -21.484 -21.090  0.00  0.00    -0.270 OA
ATOM     19  N   UNL     1      34.729 -20.564 -19.024  0.00  0.00    -0.298 N 
ATOM     20  C   UNL     1      35.037 -20.482 -20.379  0.00  0.00    +0.252 C 
ATOM     21  H   UNL     1      34.668 -19.735 -18.497  0.00  0.00    +0.150 HD
BRANCH  19  22
ATOM     22  C   UNL     1      34.495 -21.831 -18.364  0.00  0.00    +0.105 C 
BRANCH  22  23
ATOM     23  C   UNL     1      35.308 -21.913 -17.087  0.00  0.00    -0.004 C 
ATOM     24  C   UNL     1      34.745 -22.499 -15.969  0.00  0.00    -0.003 C 
ATOM     25  C   UNL     1      36.591 -21.399 -17.072  0.00  0.00    -0.003 C 
ATOM     26  C   UNL     1      35.493 -22.575 -14.793  0.00  0.00    -0.000 C 
ATOM     27  C   UNL     1      37.338 -21.473 -15.897  0.00  0.00    -0.000 C 
ATOM     28  C   UNL     1      36.789 -22.061 -14.757  0.00  0.00    -0.000 C 
ENDBRANCH  22  23
BRANCH  22  29
ATOM     29  C   UNL     1      32.987 -22.048 -18.149  0.00  0.00    +0.133 C 
BRANCH  29  31
ATOM     30  O   UNL     1      31.506 -20.203 -18.744  0.00  0.00    -0.250 OA
ATOM     31  C   UNL     1      32.123 -21.209 -19.067  0.00  0.00    +0.316 C 
BRANCH  31  32
ATOM     32  O   UNL     1      32.086 -21.726 -20.324  0.00  0.00    -0.480 OA
ATOM     33  H   UNL     1      31.411 -21.463 -20.918  0.00  0.00    +0.295 HD
ENDBRANCH  31  32
ENDBRANCH  29  31
ENDBRANCH  22  29
ENDBRANCH  19  22
ENDBRANCH   2  20
TORSDOF 8
ENDMDL
