MODEL 1
REMARK VINA RESULT:     -12.7      0.000      0.000
REMARK  Name = 24995524
REMARK  4 active torsions:
REMARK  status: ('A' for Active; 'I' for Inactive)
REMARK    1  A    between atoms: N_5  and  C_13
REMARK    2  A    between atoms: C_6  and  C_19
REMARK    3  A    between atoms: C_19  and  C_20
REMARK    4  A    between atoms: C_20  and  N_22
REMARK                            x       y       z     vdW  Elec       q    Type
REMARK                         _______ _______ _______ _____ _____    ______ ____
ROOT
ATOM      1  S   UNL     1      36.069 -19.941 -19.879  0.00  0.00    -0.056 S 
ATOM      2  O   UNL     1      34.955 -22.738 -16.311  0.00  0.00    -0.252 OA
ATOM      3  N   UNL     1      34.135 -21.270 -18.797  0.00  0.00    -0.223 NA
ATOM      4  N   UNL     1      36.278 -21.382 -17.701  0.00  0.00    -0.248 N 
ATOM      5  N   UNL     1      37.216 -22.398 -15.819  0.00  0.00    -0.268 N 
ATOM      6  C   UNL     1      34.531 -19.880 -20.636  0.00  0.00    +0.031 C 
ATOM      7  C   UNL     1      33.633 -20.644 -19.921  0.00  0.00    +0.103 C 
ATOM      8  C   UNL     1      35.410 -20.971 -18.676  0.00  0.00    +0.166 C 
ATOM      9  C   UNL     1      36.041 -22.232 -16.572  0.00  0.00    +0.310 C 
ATOM     10  H   UNL     1      37.199 -21.045 -17.788  0.00  0.00    +0.158 HD
ATOM     11  H   UNL     1      38.013 -21.927 -16.154  0.00  0.00    +0.156 HD
ENDROOT
BRANCH   5  13
ATOM     12 CL   UNL     1      36.087 -23.097 -10.859  0.00  0.00    -0.082 Cl
ATOM     13  C   UNL     1      37.394 -23.158 -14.639  0.00  0.00    +0.052 C 
ATOM     14  C   UNL     1      36.729 -22.795 -13.468  0.00  0.00    +0.026 C 
ATOM     15  C   UNL     1      38.234 -24.272 -14.648  0.00  0.00    +0.015 C 
ATOM     16  C   UNL     1      36.906 -23.545 -12.305  0.00  0.00    +0.059 C 
ATOM     17  C   UNL     1      38.411 -25.021 -13.485  0.00  0.00    +0.002 C 
ATOM     18  C   UNL     1      37.746 -24.658 -12.314  0.00  0.00    +0.011 C 
ENDBRANCH   5  13
BRANCH   6  19
ATOM     19  C   UNL     1      34.326 -19.072 -21.894  0.00  0.00    +0.056 C 
BRANCH  19  20
ATOM     20  C   UNL     1      35.238 -17.849 -21.976  0.00  0.00    +0.093 C 
BRANCH  20  22
ATOM     21  S   UNL     1      33.465 -14.756 -24.948  0.00  0.00    -0.101 S 
ATOM     22  N   UNL     1      34.681 -16.851 -22.840  0.00  0.00    -0.320 N 
ATOM     23  N   UNL     1      34.317 -15.311 -21.064  0.00  0.00    -0.233 NA
ATOM     24  N   UNL     1      33.340 -13.125 -21.424  0.00  0.00    -0.247 NA
ATOM     25  C   UNL     1      34.230 -15.601 -22.377  0.00  0.00    +0.118 C 
ATOM     26  C   UNL     1      33.696 -14.660 -23.250  0.00  0.00    +0.145 C 
ATOM     27  C   UNL     1      33.260 -13.435 -22.746  0.00  0.00    +0.073 C 
ATOM     28  C   UNL     1      32.742 -12.591 -23.773  0.00  0.00    +0.022 C 
ATOM     29  C   UNL     1      32.795 -13.186 -25.014  0.00  0.00    +0.033 C 
ATOM     30  C   UNL     1      33.871 -14.103 -20.672  0.00  0.00    +0.251 C 
ATOM     31  H   UNL     1      34.611 -17.050 -23.802  0.00  0.00    +0.148 HD
ENDBRANCH  20  22
ENDBRANCH  19  20
ENDBRANCH   6  19
TORSDOF 4
ENDMDL
MODEL 2
REMARK VINA RESULT:     -12.7      1.305      1.690
REMARK  Name = 24995524
REMARK  4 active torsions:
REMARK  status: ('A' for Active; 'I' for Inactive)
REMARK    1  A    between atoms: N_5  and  C_13
REMARK    2  A    between atoms: C_6  and  C_19
REMARK    3  A    between atoms: C_19  and  C_20
REMARK    4  A    between atoms: C_20  and  N_22
REMARK                            x       y       z     vdW  Elec       q    Type
REMARK                         _______ _______ _______ _____ _____    ______ ____
ROOT
ATOM      1  S   UNL     1      36.053 -20.171 -19.470  0.00  0.00    -0.056 S 
ATOM      2  O   UNL     1      34.842 -23.033 -15.986  0.00  0.00    -0.252 OA
ATOM      3  N   UNL     1      34.091 -21.521 -18.466  0.00  0.00    -0.223 NA
ATOM      4  N   UNL     1      36.202 -21.652 -17.313  0.00  0.00    -0.248 N 
ATOM      5  N   UNL     1      37.088 -22.701 -15.424  0.00  0.00    -0.268 N 
ATOM      6  C   UNL     1      34.537 -20.098 -20.269  0.00  0.00    +0.031 C 
ATOM      7  C   UNL     1      33.620 -20.874 -19.593  0.00  0.00    +0.103 C 
ATOM      8  C   UNL     1      35.361 -21.223 -18.305  0.00  0.00    +0.166 C 
ATOM      9  C   UNL     1      35.935 -22.522 -16.206  0.00  0.00    +0.310 C 
ATOM     10  H   UNL     1      37.125 -21.313 -17.369  0.00  0.00    +0.158 HD
ATOM     11  H   UNL     1      37.894 -22.224 -15.728  0.00  0.00    +0.156 HD
ENDROOT
BRANCH   5  13
ATOM     12 CL   UNL     1      36.021 -23.352 -10.444  0.00  0.00    -0.082 Cl
ATOM     13  C   UNL     1      37.234 -23.482 -14.254  0.00  0.00    +0.052 C 
ATOM     14  C   UNL     1      36.625 -23.079 -13.066  0.00  0.00    +0.026 C 
ATOM     15  C   UNL     1      37.985 -24.657 -14.289  0.00  0.00    +0.015 C 
ATOM     16  C   UNL     1      36.771 -23.850 -11.912  0.00  0.00    +0.059 C 
ATOM     17  C   UNL     1      38.130 -25.428 -13.136  0.00  0.00    +0.002 C 
ATOM     18  C   UNL     1      37.522 -25.024 -11.948  0.00  0.00    +0.011 C 
ENDBRANCH   5  13
BRANCH   6  19
ATOM     19  C   UNL     1      34.366 -19.266 -21.517  0.00  0.00    +0.056 C 
BRANCH  19  20
ATOM     20  C   UNL     1      35.442 -18.193 -21.674  0.00  0.00    +0.093 C 
BRANCH  20  22
ATOM     21  S   UNL     1      33.700 -13.967 -20.870  0.00  0.00    -0.101 S 
ATOM     22  N   UNL     1      34.890 -16.884 -21.493  0.00  0.00    -0.320 N 
ATOM     23  N   UNL     1      34.353 -16.635 -23.798  0.00  0.00    -0.233 NA
ATOM     24  N   UNL     1      33.300 -14.640 -24.676  0.00  0.00    -0.247 NA
ATOM     25  C   UNL     1      34.355 -16.124 -22.550  0.00  0.00    +0.118 C 
ATOM     26  C   UNL     1      33.828 -14.857 -22.332  0.00  0.00    +0.145 C 
ATOM     27  C   UNL     1      33.309 -14.140 -23.410  0.00  0.00    +0.073 C 
ATOM     28  C   UNL     1      32.812 -12.863 -23.012  0.00  0.00    +0.022 C 
ATOM     29  C   UNL     1      32.962 -12.644 -21.661  0.00  0.00    +0.033 C 
ATOM     30  C   UNL     1      33.831 -15.870 -24.774  0.00  0.00    +0.251 C 
ATOM     31  H   UNL     1      34.885 -16.497 -20.587  0.00  0.00    +0.148 HD
ENDBRANCH  20  22
ENDBRANCH  19  20
ENDBRANCH   6  19
TORSDOF 4
ENDMDL
MODEL 3
REMARK VINA RESULT:     -12.4      1.697      2.215
REMARK  Name = 24995524
REMARK  4 active torsions:
REMARK  status: ('A' for Active; 'I' for Inactive)
REMARK    1  A    between atoms: N_5  and  C_13
REMARK    2  A    between atoms: C_6  and  C_19
REMARK    3  A    between atoms: C_19  and  C_20
REMARK    4  A    between atoms: C_20  and  N_22
REMARK                            x       y       z     vdW  Elec       q    Type
REMARK                         _______ _______ _______ _____ _____    ______ ____
ROOT
ATOM      1  S   UNL     1      35.976 -19.557 -20.369  0.00  0.00    -0.056 S 
ATOM      2  O   UNL     1      34.893 -22.383 -16.814  0.00  0.00    -0.252 OA
ATOM      3  N   UNL     1      34.051 -20.893 -19.279  0.00  0.00    -0.223 NA
ATOM      4  N   UNL     1      36.204 -21.017 -18.205  0.00  0.00    -0.248 N 
ATOM      5  N   UNL     1      37.159 -22.050 -16.341  0.00  0.00    -0.268 N 
ATOM      6  C   UNL     1      34.431 -19.488 -21.111  0.00  0.00    +0.031 C 
ATOM      7  C   UNL     1      33.538 -20.257 -20.393  0.00  0.00    +0.103 C 
ATOM      8  C   UNL     1      35.327 -20.596 -19.168  0.00  0.00    +0.166 C 
ATOM      9  C   UNL     1      35.978 -21.877 -17.081  0.00  0.00    +0.310 C 
ATOM     10  H   UNL     1      37.124 -20.681 -18.299  0.00  0.00    +0.158 HD
ATOM     11  H   UNL     1      37.954 -21.577 -16.680  0.00  0.00    +0.156 HD
ENDROOT
BRANCH   5  13
ATOM     12 CL   UNL     1      39.901 -25.597 -13.838  0.00  0.00    -0.082 Cl
ATOM     13  C   UNL     1      37.348 -22.820 -15.170  0.00  0.00    +0.052 C 
ATOM     14  C   UNL     1      38.408 -23.722 -15.091  0.00  0.00    +0.026 C 
ATOM     15  C   UNL     1      36.471 -22.677 -14.094  0.00  0.00    +0.015 C 
ATOM     16  C   UNL     1      38.592 -24.482 -13.935  0.00  0.00    +0.059 C 
ATOM     17  C   UNL     1      36.655 -23.437 -12.939  0.00  0.00    +0.002 C 
ATOM     18  C   UNL     1      37.716 -24.339 -12.860  0.00  0.00    +0.011 C 
ENDBRANCH   5  13
BRANCH   6  19
ATOM     19  C   UNL     1      34.214 -18.669 -22.360  0.00  0.00    +0.056 C 
BRANCH  19  20
ATOM     20  C   UNL     1      35.214 -17.523 -22.505  0.00  0.00    +0.093 C 
BRANCH  20  22
ATOM     21  S   UNL     1      33.400 -13.548 -20.938  0.00  0.00    -0.101 S 
ATOM     22  N   UNL     1      34.635 -16.282 -22.086  0.00  0.00    -0.320 N 
ATOM     23  N   UNL     1      33.951 -15.692 -24.288  0.00  0.00    -0.233 NA
ATOM     24  N   UNL     1      32.788 -13.625 -24.774  0.00  0.00    -0.247 NA
ATOM     25  C   UNL     1      34.014 -15.386 -22.977  0.00  0.00    +0.118 C 
ATOM     26  C   UNL     1      33.464 -14.190 -22.529  0.00  0.00    +0.145 C 
ATOM     27  C   UNL     1      32.860 -13.332 -23.447  0.00  0.00    +0.073 C 
ATOM     28  C   UNL     1      32.351 -12.155 -22.822  0.00  0.00    +0.022 C 
ATOM     29  C   UNL     1      32.577 -12.147 -21.464  0.00  0.00    +0.033 C 
ATOM     30  C   UNL     1      33.348 -14.802 -25.098  0.00  0.00    +0.251 C 
ATOM     31  H   UNL     1      34.674 -16.044 -21.132  0.00  0.00    +0.148 HD
ENDBRANCH  20  22
ENDBRANCH  19  20
ENDBRANCH   6  19
TORSDOF 4
ENDMDL
MODEL 4
REMARK VINA RESULT:     -12.4      3.648      4.452
REMARK  Name = 24995524
REMARK  4 active torsions:
REMARK  status: ('A' for Active; 'I' for Inactive)
REMARK    1  A    between atoms: N_5  and  C_13
REMARK    2  A    between atoms: C_6  and  C_19
REMARK    3  A    between atoms: C_19  and  C_20
REMARK    4  A    between atoms: C_20  and  N_22
REMARK                            x       y       z     vdW  Elec       q    Type
REMARK                         _______ _______ _______ _____ _____    ______ ____
ROOT
ATOM      1  S   UNL     1      32.993 -19.786 -20.531  0.00  0.00    -0.056 S 
ATOM      2  O   UNL     1      32.906 -22.791 -16.959  0.00  0.00    -0.252 OA
ATOM      3  N   UNL     1      34.472 -21.270 -19.017  0.00  0.00    -0.223 NA
ATOM      4  N   UNL     1      32.101 -21.302 -18.588  0.00  0.00    -0.248 N 
ATOM      5  N   UNL     1      30.616 -22.339 -17.115  0.00  0.00    -0.268 N 
ATOM      6  C   UNL     1      34.685 -19.785 -20.812  0.00  0.00    +0.031 C 
ATOM      7  C   UNL     1      35.304 -20.629 -19.915  0.00  0.00    +0.103 C 
ATOM      8  C   UNL     1      33.231 -20.901 -19.248  0.00  0.00    +0.166 C 
ATOM      9  C   UNL     1      31.964 -22.211 -17.489  0.00  0.00    +0.310 C 
ATOM     10  H   UNL     1      31.261 -20.907 -18.915  0.00  0.00    +0.158 HD
ATOM     11  H   UNL     1      29.971 -21.809 -17.636  0.00  0.00    +0.156 HD
ENDROOT
BRANCH   5  13
ATOM     12 CL   UNL     1      31.348 -24.891 -12.719  0.00  0.00    -0.082 Cl
ATOM     13  C   UNL     1      30.072 -23.137 -16.081  0.00  0.00    +0.052 C 
ATOM     14  C   UNL     1      30.884 -23.569 -15.032  0.00  0.00    +0.026 C 
ATOM     15  C   UNL     1      28.723 -23.492 -16.111  0.00  0.00    +0.015 C 
ATOM     16  C   UNL     1      30.346 -24.356 -14.014  0.00  0.00    +0.059 C 
ATOM     17  C   UNL     1      28.186 -24.279 -15.093  0.00  0.00    +0.002 C 
ATOM     18  C   UNL     1      28.998 -24.711 -14.044  0.00  0.00    +0.011 C 
ENDBRANCH   5  13
BRANCH   6  19
ATOM     19  C   UNL     1      35.280 -18.940 -21.913  0.00  0.00    +0.056 C 
BRANCH  19  20
ATOM     20  C   UNL     1      35.419 -17.468 -21.530  0.00  0.00    +0.093 C 
BRANCH  20  22
ATOM     21  S   UNL     1      33.547 -14.881 -24.898  0.00  0.00    -0.101 S 
ATOM     22  N   UNL     1      34.825 -16.622 -22.522  0.00  0.00    -0.320 N 
ATOM     23  N   UNL     1      34.235 -14.942 -20.944  0.00  0.00    -0.233 NA
ATOM     24  N   UNL     1      33.095 -12.905 -21.583  0.00  0.00    -0.247 NA
ATOM     25  C   UNL     1      34.244 -15.377 -22.219  0.00  0.00    +0.118 C 
ATOM     26  C   UNL     1      33.678 -14.586 -23.212  0.00  0.00    +0.145 C 
ATOM     27  C   UNL     1      33.112 -13.359 -22.866  0.00  0.00    +0.073 C 
ATOM     28  C   UNL     1      32.578 -12.679 -24.001  0.00  0.00    +0.022 C 
ATOM     29  C   UNL     1      32.748 -13.394 -25.165  0.00  0.00    +0.033 C 
ATOM     30  C   UNL     1      33.667 -13.745 -20.706  0.00  0.00    +0.251 C 
ATOM     31  H   UNL     1      34.823 -16.927 -23.458  0.00  0.00    +0.148 HD
ENDBRANCH  20  22
ENDBRANCH  19  20
ENDBRANCH   6  19
TORSDOF 4
ENDMDL
MODEL 5
REMARK VINA RESULT:     -12.1      3.793      4.447
REMARK  Name = 24995524
REMARK  4 active torsions:
REMARK  status: ('A' for Active; 'I' for Inactive)
REMARK    1  A    between atoms: N_5  and  C_13
REMARK    2  A    between atoms: C_6  and  C_19
REMARK    3  A    between atoms: C_19  and  C_20
REMARK    4  A    between atoms: C_20  and  N_22
REMARK                            x       y       z     vdW  Elec       q    Type
REMARK                         _______ _______ _______ _____ _____    ______ ____
ROOT
ATOM      1  S   UNL     1      32.620 -19.995 -20.532  0.00  0.00    -0.056 S 
ATOM      2  O   UNL     1      33.477 -22.670 -16.803  0.00  0.00    -0.252 OA
ATOM      3  N   UNL     1      34.493 -21.171 -19.195  0.00  0.00    -0.223 NA
ATOM      4  N   UNL     1      32.245 -21.426 -18.369  0.00  0.00    -0.248 N 
ATOM      5  N   UNL     1      31.154 -22.489 -16.598  0.00  0.00    -0.268 N 
ATOM      6  C   UNL     1      34.231 -19.832 -21.096  0.00  0.00    +0.031 C 
ATOM      7  C   UNL     1      35.085 -20.522 -20.262  0.00  0.00    +0.103 C 
ATOM      8  C   UNL     1      33.196 -20.962 -19.237  0.00  0.00    +0.166 C 
ATOM      9  C   UNL     1      32.399 -22.246 -17.204  0.00  0.00    +0.310 C 
ATOM     10  H   UNL     1      31.321 -21.156 -18.574  0.00  0.00    +0.158 HD
ATOM     11  H   UNL     1      30.374 -22.080 -17.037  0.00  0.00    +0.156 HD
ENDROOT
BRANCH   5  13
ATOM     12 CL   UNL     1      28.063 -25.770 -14.141  0.00  0.00    -0.082 Cl
ATOM     13  C   UNL     1      30.886 -23.249 -15.436  0.00  0.00    +0.052 C 
ATOM     14  C   UNL     1      29.741 -24.043 -15.371  0.00  0.00    +0.026 C 
ATOM     15  C   UNL     1      31.767 -23.205 -14.355  0.00  0.00    +0.015 C 
ATOM     16  C   UNL     1      29.477 -24.791 -14.223  0.00  0.00    +0.059 C 
ATOM     17  C   UNL     1      31.503 -23.953 -13.209  0.00  0.00    +0.002 C 
ATOM     18  C   UNL     1      30.358 -24.746 -13.143  0.00  0.00    +0.011 C 
ENDBRANCH   5  13
BRANCH   6  19
ATOM     19  C   UNL     1      34.533 -19.026 -22.336  0.00  0.00    +0.056 C 
BRANCH  19  20
ATOM     20  C   UNL     1      35.575 -17.933 -22.101  0.00  0.00    +0.093 C 
BRANCH  20  22
ATOM     21  S   UNL     1      33.601 -13.933 -20.823  0.00  0.00    -0.101 S 
ATOM     22  N   UNL     1      34.948 -16.689 -21.772  0.00  0.00    -0.320 N 
ATOM     23  N   UNL     1      34.291 -16.262 -24.019  0.00  0.00    -0.233 NA
ATOM     24  N   UNL     1      33.071 -14.271 -24.657  0.00  0.00    -0.247 NA
ATOM     25  C   UNL     1      34.317 -15.872 -22.729  0.00  0.00    +0.118 C 
ATOM     26  C   UNL     1      33.719 -14.670 -22.368  0.00  0.00    +0.145 C 
ATOM     27  C   UNL     1      33.106 -13.893 -23.350  0.00  0.00    +0.073 C 
ATOM     28  C   UNL     1      32.545 -12.697 -22.810  0.00  0.00    +0.022 C 
ATOM     29  C   UNL     1      32.743 -12.595 -21.452  0.00  0.00    +0.033 C 
ATOM     30  C   UNL     1      33.676 -15.446 -24.895  0.00  0.00    +0.251 C 
ATOM     31  H   UNL     1      34.959 -16.390 -20.834  0.00  0.00    +0.148 HD
ENDBRANCH  20  22
ENDBRANCH  19  20
ENDBRANCH   6  19
TORSDOF 4
ENDMDL
MODEL 6
REMARK VINA RESULT:     -11.8      4.994     11.332
REMARK  Name = 24995524
REMARK  4 active torsions:
REMARK  status: ('A' for Active; 'I' for Inactive)
REMARK    1  A    between atoms: N_5  and  C_13
REMARK    2  A    between atoms: C_6  and  C_19
REMARK    3  A    between atoms: C_19  and  C_20
REMARK    4  A    between atoms: C_20  and  N_22
REMARK                            x       y       z     vdW  Elec       q    Type
REMARK                         _______ _______ _______ _____ _____    ______ ____
ROOT
ATOM      1  S   UNL     1      33.154 -23.141 -16.277  0.00  0.00    -0.056 S 
ATOM      2  O   UNL     1      31.998 -20.161 -19.679  0.00  0.00    -0.252 OA
ATOM      3  N   UNL     1      31.166 -21.940 -17.411  0.00  0.00    -0.223 NA
ATOM      4  N   UNL     1      33.360 -21.486 -18.298  0.00  0.00    -0.248 N 
ATOM      5  N   UNL     1      34.315 -20.198 -19.996  0.00  0.00    -0.268 N 
ATOM      6  C   UNL     1      31.580 -23.444 -15.667  0.00  0.00    +0.031 C 
ATOM      7  C   UNL     1      30.656 -22.722 -16.392  0.00  0.00    +0.103 C 
ATOM      8  C   UNL     1      32.473 -22.082 -17.442  0.00  0.00    +0.166 C 
ATOM      9  C   UNL     1      33.113 -20.564 -19.367  0.00  0.00    +0.310 C 
ATOM     10  H   UNL     1      34.305 -21.724 -18.157  0.00  0.00    +0.158 HD
ATOM     11  H   UNL     1      35.134 -20.607 -19.632  0.00  0.00    +0.156 HD
ENDROOT
BRANCH   5  13
ATOM     12 CL   UNL     1      32.792 -18.629 -24.641  0.00  0.00    -0.082 Cl
ATOM     13  C   UNL     1      34.493 -19.315 -21.086  0.00  0.00    +0.052 C 
ATOM     14  C   UNL     1      33.652 -19.398 -22.196  0.00  0.00    +0.026 C 
ATOM     15  C   UNL     1      35.510 -18.360 -21.051  0.00  0.00    +0.015 C 
ATOM     16  C   UNL     1      33.829 -18.526 -23.271  0.00  0.00    +0.059 C 
ATOM     17  C   UNL     1      35.687 -17.490 -22.126  0.00  0.00    +0.002 C 
ATOM     18  C   UNL     1      34.846 -17.573 -23.235  0.00  0.00    +0.011 C 
ENDBRANCH   5  13
BRANCH   6  19
ATOM     19  C   UNL     1      31.374 -24.386 -14.506  0.00  0.00    +0.056 C 
BRANCH  19  20
ATOM     20  C   UNL     1      32.293 -24.087 -13.322  0.00  0.00    +0.093 C 
BRANCH  20  22
ATOM     21  S   UNL     1      36.598 -25.393 -14.462  0.00  0.00    -0.101 S 
ATOM     22  N   UNL     1      33.642 -24.471 -13.611  0.00  0.00    -0.320 N 
ATOM     23  N   UNL     1      34.437 -23.828 -11.462  0.00  0.00    -0.233 NA
ATOM     24  N   UNL     1      36.758 -24.058 -10.817  0.00  0.00    -0.247 NA
ATOM     25  C   UNL     1      34.692 -24.338 -12.683  0.00  0.00    +0.118 C 
ATOM     26  C   UNL     1      35.989 -24.723 -13.004  0.00  0.00    +0.145 C 
ATOM     27  C   UNL     1      36.998 -24.571 -12.053  0.00  0.00    +0.073 C 
ATOM     28  C   UNL     1      38.263 -25.013 -12.545  0.00  0.00    +0.022 C 
ATOM     29  C   UNL     1      38.186 -25.482 -13.837  0.00  0.00    +0.033 C 
ATOM     30  C   UNL     1      35.475 -23.720 -10.612  0.00  0.00    +0.251 C 
ATOM     31  H   UNL     1      33.844 -24.844 -14.499  0.00  0.00    +0.148 HD
ENDBRANCH  20  22
ENDBRANCH  19  20
ENDBRANCH   6  19
TORSDOF 4
ENDMDL
MODEL 7
REMARK VINA RESULT:     -11.1      5.040     12.102
REMARK  Name = 24995524
REMARK  4 active torsions:
REMARK  status: ('A' for Active; 'I' for Inactive)
REMARK    1  A    between atoms: N_5  and  C_13
REMARK    2  A    between atoms: C_6  and  C_19
REMARK    3  A    between atoms: C_19  and  C_20
REMARK    4  A    between atoms: C_20  and  N_22
REMARK                            x       y       z     vdW  Elec       q    Type
REMARK                         _______ _______ _______ _____ _____    ______ ____
ROOT
ATOM      1  S   UNL     1      34.578 -16.388 -23.151  0.00  0.00    -0.056 S 
ATOM      2  O   UNL     1      33.251 -12.487 -20.955  0.00  0.00    -0.252 OA
ATOM      3  N   UNL     1      34.196 -15.332 -20.823  0.00  0.00    -0.223 NA
ATOM      4  N   UNL     1      33.757 -13.934 -22.735  0.00  0.00    -0.248 N 
ATOM      5  N   UNL     1      33.037 -11.754 -23.166  0.00  0.00    -0.268 N 
ATOM      6  C   UNL     1      34.882 -17.358 -21.771  0.00  0.00    +0.031 C 
ATOM      7  C   UNL     1      34.624 -16.631 -20.628  0.00  0.00    +0.103 C 
ATOM      8  C   UNL     1      34.135 -15.094 -22.115  0.00  0.00    +0.166 C 
ATOM      9  C   UNL     1      33.335 -12.690 -22.161  0.00  0.00    +0.310 C 
ATOM     10  H   UNL     1      33.779 -13.957 -23.719  0.00  0.00    +0.158 HD
ATOM     11  H   UNL     1      33.153 -12.065 -24.093  0.00  0.00    +0.156 HD
ENDROOT
BRANCH   5  13
ATOM     12 CL   UNL     1      34.043  -6.735 -23.559  0.00  0.00    -0.082 Cl
ATOM     13  C   UNL     1      32.591 -10.421 -23.008  0.00  0.00    +0.052 C 
ATOM     14  C   UNL     1      33.438  -9.360 -23.325  0.00  0.00    +0.026 C 
ATOM     15  C   UNL     1      31.303 -10.169 -22.535  0.00  0.00    +0.015 C 
ATOM     16  C   UNL     1      32.997  -8.045 -23.168  0.00  0.00    +0.059 C 
ATOM     17  C   UNL     1      30.863  -8.855 -22.378  0.00  0.00    +0.002 C 
ATOM     18  C   UNL     1      31.710  -7.794 -22.695  0.00  0.00    +0.011 C 
ENDBRANCH   5  13
BRANCH   6  19
ATOM     19  C   UNL     1      35.356 -18.783 -21.923  0.00  0.00    +0.056 C 
BRANCH  19  20
ATOM     20  C   UNL     1      34.516 -19.782 -21.129  0.00  0.00    +0.093 C 
BRANCH  20  22
ATOM     21  S   UNL     1      36.769 -20.765 -17.192  0.00  0.00    -0.101 S 
ATOM     22  N   UNL     1      35.161 -20.130 -19.898  0.00  0.00    -0.320 N 
ATOM     23  N   UNL     1      33.463 -21.677 -19.278  0.00  0.00    -0.233 NA
ATOM     24  N   UNL     1      33.547 -22.936 -17.213  0.00  0.00    -0.247 NA
ATOM     25  C   UNL     1      34.630 -21.068 -18.992  0.00  0.00    +0.118 C 
ATOM     26  C   UNL     1      35.289 -21.377 -17.808  0.00  0.00    +0.145 C 
ATOM     27  C   UNL     1      34.725 -22.312 -16.940  0.00  0.00    +0.073 C 
ATOM     28  C   UNL     1      35.527 -22.510 -15.776  0.00  0.00    +0.022 C 
ATOM     29  C   UNL     1      36.663 -21.732 -15.788  0.00  0.00    +0.033 C 
ATOM     30  C   UNL     1      32.997 -22.565 -18.380  0.00  0.00    +0.251 C 
ATOM     31  H   UNL     1      36.014 -19.692 -19.675  0.00  0.00    +0.148 HD
ENDBRANCH  20  22
ENDBRANCH  19  20
ENDBRANCH   6  19
TORSDOF 4
ENDMDL
MODEL 8
REMARK VINA RESULT:     -11.0      5.197     11.964
REMARK  Name = 24995524
REMARK  4 active torsions:
REMARK  status: ('A' for Active; 'I' for Inactive)
REMARK    1  A    between atoms: N_5  and  C_13
REMARK    2  A    between atoms: C_6  and  C_19
REMARK    3  A    between atoms: C_19  and  C_20
REMARK    4  A    between atoms: C_20  and  N_22
REMARK                            x       y       z     vdW  Elec       q    Type
REMARK                         _______ _______ _______ _____ _____    ______ ____
ROOT
ATOM      1  S   UNL     1      34.553 -16.510 -23.180  0.00  0.00    -0.056 S 
ATOM      2  O   UNL     1      33.289 -12.615 -20.937  0.00  0.00    -0.252 OA
ATOM      3  N   UNL     1      34.244 -15.458 -20.839  0.00  0.00    -0.223 NA
ATOM      4  N   UNL     1      33.740 -14.058 -22.734  0.00  0.00    -0.248 N 
ATOM      5  N   UNL     1      33.001 -11.880 -23.139  0.00  0.00    -0.268 N 
ATOM      6  C   UNL     1      34.904 -17.481 -21.811  0.00  0.00    +0.031 C 
ATOM      7  C   UNL     1      34.682 -16.756 -20.659  0.00  0.00    +0.103 C 
ATOM      8  C   UNL     1      34.141 -15.218 -22.128  0.00  0.00    +0.166 C 
ATOM      9  C   UNL     1      33.334 -12.816 -22.146  0.00  0.00    +0.310 C 
ATOM     10  H   UNL     1      33.730 -14.080 -23.719  0.00  0.00    +0.158 HD
ATOM     11  H   UNL     1      33.088 -12.189 -24.069  0.00  0.00    +0.156 HD
ENDROOT
BRANCH   5  13
ATOM     12 CL   UNL     1      33.965  -6.858 -23.600  0.00  0.00    -0.082 Cl
ATOM     13  C   UNL     1      32.558 -10.548 -22.965  0.00  0.00    +0.052 C 
ATOM     14  C   UNL     1      33.384  -9.485 -23.327  0.00  0.00    +0.026 C 
ATOM     15  C   UNL     1      31.293 -10.299 -22.431  0.00  0.00    +0.015 C 
ATOM     16  C   UNL     1      32.945  -8.171 -23.154  0.00  0.00    +0.059 C 
ATOM     17  C   UNL     1      30.854  -8.987 -22.259  0.00  0.00    +0.002 C 
ATOM     18  C   UNL     1      31.681  -7.923 -22.621  0.00  0.00    +0.011 C 
ENDBRANCH   5  13
BRANCH   6  19
ATOM     19  C   UNL     1      35.377 -18.905 -21.980  0.00  0.00    +0.056 C 
BRANCH  19  20
ATOM     20  C   UNL     1      35.985 -19.489 -20.706  0.00  0.00    +0.093 C 
BRANCH  20  22
ATOM     21  S   UNL     1      32.748 -22.063 -18.600  0.00  0.00    -0.101 S 
ATOM     22  N   UNL     1      35.030 -20.292 -20.004  0.00  0.00    -0.320 N 
ATOM     23  N   UNL     1      36.481 -20.655 -18.153  0.00  0.00    -0.233 NA
ATOM     24  N   UNL     1      35.831 -21.983 -16.236  0.00  0.00    -0.247 NA
ATOM     25  C   UNL     1      35.287 -20.862 -18.743  0.00  0.00    +0.118 C 
ATOM     26  C   UNL     1      34.332 -21.636 -18.094  0.00  0.00    +0.145 C 
ATOM     27  C   UNL     1      34.631 -22.182 -16.846  0.00  0.00    +0.073 C 
ATOM     28  C   UNL     1      33.545 -22.946 -16.324  0.00  0.00    +0.022 C 
ATOM     29  C   UNL     1      32.463 -22.962 -17.175  0.00  0.00    +0.033 C 
ATOM     30  C   UNL     1      36.678 -21.221 -16.948  0.00  0.00    +0.251 C 
ATOM     31  H   UNL     1      34.154 -20.454 -20.422  0.00  0.00    +0.148 HD
ENDBRANCH  20  22
ENDBRANCH  19  20
ENDBRANCH   6  19
TORSDOF 4
ENDMDL
MODEL 9
REMARK VINA RESULT:     -10.9      4.441     11.510
REMARK  Name = 24995524
REMARK  4 active torsions:
REMARK  status: ('A' for Active; 'I' for Inactive)
REMARK    1  A    between atoms: N_5  and  C_13
REMARK    2  A    between atoms: C_6  and  C_19
REMARK    3  A    between atoms: C_19  and  C_20
REMARK    4  A    between atoms: C_20  and  N_22
REMARK                            x       y       z     vdW  Elec       q    Type
REMARK                         _______ _______ _______ _____ _____    ______ ____
ROOT
ATOM      1  S   UNL     1      34.466 -22.211 -17.298  0.00  0.00    -0.056 S 
ATOM      2  O   UNL     1      32.154 -19.899 -20.630  0.00  0.00    -0.252 OA
ATOM      3  N   UNL     1      32.112 -21.715 -18.242  0.00  0.00    -0.223 NA
ATOM      4  N   UNL     1      33.974 -20.683 -19.370  0.00  0.00    -0.248 N 
ATOM      5  N   UNL     1      34.335 -19.267 -21.192  0.00  0.00    -0.268 N 
ATOM      6  C   UNL     1      33.120 -22.931 -16.516  0.00  0.00    +0.031 C 
ATOM      7  C   UNL     1      31.958 -22.555 -17.156  0.00  0.00    +0.103 C 
ATOM      8  C   UNL     1      33.392 -21.466 -18.410  0.00  0.00    +0.166 C 
ATOM      9  C   UNL     1      33.363 -19.937 -20.429  0.00  0.00    +0.310 C 
ATOM     10  H   UNL     1      34.956 -20.624 -19.325  0.00  0.00    +0.158 HD
ATOM     11  H   UNL     1      35.269 -19.395 -20.907  0.00  0.00    +0.156 HD
ENDROOT
BRANCH   5  13
ATOM     12 CL   UNL     1      34.525 -14.557 -23.226  0.00  0.00    -0.082 Cl
ATOM     13  C   UNL     1      34.136 -18.433 -22.316  0.00  0.00    +0.052 C 
ATOM     14  C   UNL     1      34.399 -17.066 -22.226  0.00  0.00    +0.026 C 
ATOM     15  C   UNL     1      33.676 -18.978 -23.516  0.00  0.00    +0.015 C 
ATOM     16  C   UNL     1      34.201 -16.244 -23.337  0.00  0.00    +0.059 C 
ATOM     17  C   UNL     1      33.478 -18.156 -24.624  0.00  0.00    +0.002 C 
ATOM     18  C   UNL     1      33.741 -16.789 -24.535  0.00  0.00    +0.011 C 
ENDBRANCH   5  13
BRANCH   6  19
ATOM     19  C   UNL     1      33.317 -23.826 -15.317  0.00  0.00    +0.056 C 
BRANCH  19  20
ATOM     20  C   UNL     1      34.200 -23.198 -14.239  0.00  0.00    +0.093 C 
BRANCH  20  22
ATOM     21  S   UNL     1      38.671 -23.913 -15.256  0.00  0.00    -0.101 S 
ATOM     22  N   UNL     1      35.585 -23.457 -14.496  0.00  0.00    -0.320 N 
ATOM     23  N   UNL     1      35.842 -24.801 -12.550  0.00  0.00    -0.233 NA
ATOM     24  N   UNL     1      37.950 -25.834 -11.957  0.00  0.00    -0.247 NA
ATOM     25  C   UNL     1      36.385 -24.251 -13.654  0.00  0.00    +0.118 C 
ATOM     26  C   UNL     1      37.726 -24.479 -13.940  0.00  0.00    +0.145 C 
ATOM     27  C   UNL     1      38.482 -25.271 -13.076  0.00  0.00    +0.073 C 
ATOM     28  C   UNL     1      39.833 -25.401 -13.516  0.00  0.00    +0.022 C 
ATOM     29  C   UNL     1      40.069 -24.714 -14.685  0.00  0.00    +0.033 C 
ATOM     30  C   UNL     1      36.649 -25.552 -11.777  0.00  0.00    +0.251 C 
ATOM     31  H   UNL     1      35.996 -23.061 -15.299  0.00  0.00    +0.148 HD
ENDBRANCH  20  22
ENDBRANCH  19  20
ENDBRANCH   6  19
TORSDOF 4
ENDMDL
