MODEL 1
REMARK VINA RESULT:     -12.4      0.000      0.000
REMARK  Name = 213049
REMARK  9 active torsions:
REMARK  status: ('A' for Active; 'I' for Inactive)
REMARK    1  A    between atoms: C_3  and  C_13
REMARK    2  A    between atoms: C_4  and  N_25
REMARK    3  A    between atoms: C_16  and  C_17
REMARK    4  A    between atoms: C_17  and  O_18
REMARK    5  A    between atoms: C_17  and  C_20
REMARK    6  A    between atoms: C_20  and  O_21
REMARK    7  A    between atoms: C_26  and  C_29
REMARK    8  A    between atoms: C_29  and  O_30
REMARK    9  A    between atoms: O_30  and  C_33
REMARK                            x       y       z     vdW  Elec       q    Type
REMARK                         _______ _______ _______ _____ _____    ______ ____
ROOT
ATOM      1  F   UNL     1      36.625 -20.089 -19.897  0.00  0.00    -0.204 F 
ATOM      2  F   UNL     1      31.874 -20.215 -20.061  0.00  0.00    -0.204 F 
ATOM      3  C   UNL     1      34.249 -20.129 -20.014  0.00  0.00    +0.051 C 
ATOM      4  C   UNL     1      34.213 -21.722 -17.723  0.00  0.00    +0.062 C 
ATOM      5  C   UNL     1      35.447 -20.496 -19.399  0.00  0.00    +0.143 C 
ATOM      6  C   UNL     1      33.033 -20.560 -19.483  0.00  0.00    +0.143 C 
ATOM      7  C   UNL     1      35.429 -21.291 -18.254  0.00  0.00    +0.045 C 
ATOM      8  C   UNL     1      33.015 -21.356 -18.338  0.00  0.00    +0.045 C 
ENDROOT
BRANCH   3  13
ATOM      9  O   UNL     1      32.728 -16.973 -25.284  0.00  0.00    -0.272 OA
ATOM     10  N   UNL     1      34.115 -17.626 -23.534  0.00  0.00    -0.273 N 
ATOM     11  C   UNL     1      33.332 -19.640 -22.359  0.00  0.00    +0.048 C 
ATOM     12  C   UNL     1      33.797 -19.045 -23.685  0.00  0.00    +0.098 C 
ATOM     13  C   UNL     1      34.269 -19.284 -21.230  0.00  0.00    -0.019 C 
ATOM     14  C   UNL     1      35.128 -17.295 -22.523  0.00  0.00    +0.120 C 
ATOM     15  C   UNL     1      35.081 -18.215 -21.336  0.00  0.00    -0.009 C 
ATOM     16  C   UNL     1      33.577 -16.701 -24.433  0.00  0.00    +0.255 C 
BRANCH  16  17
ATOM     17  C   UNL     1      34.087 -15.284 -24.322  0.00  0.00    +0.217 C 
BRANCH  17  18
ATOM     18  O   UNL     1      33.782 -14.675 -25.559  0.00  0.00    -0.374 OA
ATOM     19  H   UNL     1      33.505 -13.757 -25.409  0.00  0.00    +0.211 HD
ENDBRANCH  17  18
BRANCH  17  20
ATOM     20  C   UNL     1      33.374 -14.549 -23.208  0.00  0.00    +0.176 C 
BRANCH  20  21
ATOM     21  O   UNL     1      32.439 -13.633 -23.762  0.00  0.00    -0.379 OA
ATOM     22  H   UNL     1      32.054 -14.012 -24.567  0.00  0.00    +0.211 HD
ENDBRANCH  20  21
ENDBRANCH  17  20
ENDBRANCH  16  17
ENDBRANCH   3  13
BRANCH   4  25
ATOM     23  O   UNL     1      33.518 -23.905 -14.893  0.00  0.00    -0.432 OA
ATOM     24  O   UNL     1      31.974 -23.347 -16.458  0.00  0.00    -0.226 OA
ATOM     25  N   UNL     1      34.194 -22.533 -16.553  0.00  0.00    -0.221 N 
ATOM     26  C   UNL     1      34.942 -23.792 -14.761  0.00  0.00    +0.234 C 
ATOM     27  C   UNL     1      35.309 -22.624 -15.649  0.00  0.00    +0.149 C 
ATOM     28  C   UNL     1      33.121 -23.259 -16.043  0.00  0.00    +0.409 C 
BRANCH  26  29
ATOM     29  C   UNL     1      35.581 -25.102 -15.199  0.00  0.00    +0.252 C 
BRANCH  29  30
ATOM     30  O   UNL     1      36.398 -25.583 -14.145  0.00  0.00    -0.454 OA
BRANCH  30  33
ATOM     31  O   UNL     1      39.763 -26.289 -14.573  0.00  0.00    -0.347 OA
ATOM     32  N   UNL     1      38.447 -26.671 -14.336  0.00  0.00    -0.039 NA
ATOM     33  C   UNL     1      37.749 -25.532 -14.351  0.00  0.00    +0.264 C 
ATOM     34  C   UNL     1      38.562 -24.410 -14.591  0.00  0.00    +0.104 C 
ATOM     35  C   UNL     1      39.818 -24.940 -14.722  0.00  0.00    +0.217 C 
ENDBRANCH  30  33
ENDBRANCH  29  30
ENDBRANCH  26  29
ENDBRANCH   4  25
TORSDOF 9
ENDMDL
MODEL 2
REMARK VINA RESULT:     -12.3      2.919     10.861
REMARK  Name = 213049
REMARK  9 active torsions:
REMARK  status: ('A' for Active; 'I' for Inactive)
REMARK    1  A    between atoms: C_3  and  C_13
REMARK    2  A    between atoms: C_4  and  N_25
REMARK    3  A    between atoms: C_16  and  C_17
REMARK    4  A    between atoms: C_17  and  O_18
REMARK    5  A    between atoms: C_17  and  C_20
REMARK    6  A    between atoms: C_20  and  O_21
REMARK    7  A    between atoms: C_26  and  C_29
REMARK    8  A    between atoms: C_29  and  O_30
REMARK    9  A    between atoms: O_30  and  C_33
REMARK                            x       y       z     vdW  Elec       q    Type
REMARK                         _______ _______ _______ _____ _____    ______ ____
ROOT
ATOM      1  F   UNL     1      37.165 -21.615 -16.495  0.00  0.00    -0.204 F 
ATOM      2  F   UNL     1      32.614 -22.910 -16.974  0.00  0.00    -0.204 F 
ATOM      3  C   UNL     1      34.891 -22.283 -16.698  0.00  0.00    +0.051 C 
ATOM      4  C   UNL     1      34.746 -20.880 -19.106  0.00  0.00    +0.062 C 
ATOM      5  C   UNL     1      36.010 -21.603 -17.178  0.00  0.00    +0.143 C 
ATOM      6  C   UNL     1      33.698 -22.261 -17.422  0.00  0.00    +0.143 C 
ATOM      7  C   UNL     1      35.939 -20.902 -18.382  0.00  0.00    +0.045 C 
ATOM      8  C   UNL     1      33.626 -21.560 -18.625  0.00  0.00    +0.045 C 
ENDROOT
BRANCH   3  13
ATOM      9  O   UNL     1      36.862 -25.337 -11.517  0.00  0.00    -0.272 OA
ATOM     10  N   UNL     1      35.291 -24.369 -12.934  0.00  0.00    -0.273 N 
ATOM     11  C   UNL     1      36.140 -23.953 -15.204  0.00  0.00    +0.048 C 
ATOM     12  C   UNL     1      35.844 -24.998 -14.133  0.00  0.00    +0.098 C 
ATOM     13  C   UNL     1      34.968 -23.027 -15.419  0.00  0.00    -0.019 C 
ATOM     14  C   UNL     1      34.070 -23.575 -13.126  0.00  0.00    +0.120 C 
ATOM     15  C   UNL     1      34.036 -22.881 -14.458  0.00  0.00    -0.009 C 
ATOM     16  C   UNL     1      35.838 -24.671 -11.684  0.00  0.00    +0.255 C 
BRANCH  16  17
ATOM     17  C   UNL     1      35.107 -24.123 -10.483  0.00  0.00    +0.217 C 
BRANCH  17  18
ATOM     18  O   UNL     1      35.035 -25.193  -9.563  0.00  0.00    -0.374 OA
ATOM     19  H   UNL     1      35.844 -25.725  -9.621  0.00  0.00    +0.211 HD
ENDBRANCH  17  18
BRANCH  17  20
ATOM     20  C   UNL     1      35.879 -22.978  -9.866  0.00  0.00    +0.176 C 
BRANCH  20  21
ATOM     21  O   UNL     1      36.699 -22.367 -10.852  0.00  0.00    -0.379 OA
ATOM     22  H   UNL     1      36.355 -21.484 -11.056  0.00  0.00    +0.211 HD
ENDBRANCH  20  21
ENDBRANCH  17  20
ENDBRANCH  16  17
ENDBRANCH   3  13
BRANCH   4  25
ATOM     23  O   UNL     1      33.891 -19.135 -22.185  0.00  0.00    -0.432 OA
ATOM     24  O   UNL     1      32.354 -20.054 -20.792  0.00  0.00    -0.226 OA
ATOM     25  N   UNL     1      34.673 -20.166 -20.335  0.00  0.00    -0.221 N 
ATOM     26  C   UNL     1      35.290 -18.825 -22.118  0.00  0.00    +0.234 C 
ATOM     27  C   UNL     1      35.838 -19.789 -21.089  0.00  0.00    +0.149 C 
ATOM     28  C   UNL     1      33.526 -19.816 -21.044  0.00  0.00    +0.409 C 
BRANCH  26  29
ATOM     29  C   UNL     1      35.451 -17.365 -21.718  0.00  0.00    +0.252 C 
BRANCH  29  30
ATOM     30  O   UNL     1      34.621 -16.572 -22.549  0.00  0.00    -0.454 OA
BRANCH  30  33
ATOM     31  O   UNL     1      33.909 -13.794 -20.607  0.00  0.00    -0.347 OA
ATOM     32  N   UNL     1      34.260 -15.130 -20.758  0.00  0.00    -0.039 NA
ATOM     33  C   UNL     1      34.297 -15.330 -22.078  0.00  0.00    +0.264 C 
ATOM     34  C   UNL     1      33.982 -14.168 -22.804  0.00  0.00    +0.104 C 
ATOM     35  C   UNL     1      33.746 -13.231 -21.832  0.00  0.00    +0.217 C 
ENDBRANCH  30  33
ENDBRANCH  29  30
ENDBRANCH  26  29
ENDBRANCH   4  25
TORSDOF 9
ENDMDL
MODEL 3
REMARK VINA RESULT:     -12.0      2.180      4.038
REMARK  Name = 213049
REMARK  9 active torsions:
REMARK  status: ('A' for Active; 'I' for Inactive)
REMARK    1  A    between atoms: C_3  and  C_13
REMARK    2  A    between atoms: C_4  and  N_25
REMARK    3  A    between atoms: C_16  and  C_17
REMARK    4  A    between atoms: C_17  and  O_18
REMARK    5  A    between atoms: C_17  and  C_20
REMARK    6  A    between atoms: C_20  and  O_21
REMARK    7  A    between atoms: C_26  and  C_29
REMARK    8  A    between atoms: C_29  and  O_30
REMARK    9  A    between atoms: O_30  and  C_33
REMARK                            x       y       z     vdW  Elec       q    Type
REMARK                         _______ _______ _______ _____ _____    ______ ____
ROOT
ATOM      1  F   UNL     1      36.642 -19.884 -20.127  0.00  0.00    -0.204 F 
ATOM      2  F   UNL     1      31.892 -20.081 -20.258  0.00  0.00    -0.204 F 
ATOM      3  C   UNL     1      34.266 -19.958 -20.226  0.00  0.00    +0.051 C 
ATOM      4  C   UNL     1      34.277 -21.664 -18.018  0.00  0.00    +0.062 C 
ATOM      5  C   UNL     1      35.475 -20.335 -19.640  0.00  0.00    +0.143 C 
ATOM      6  C   UNL     1      33.062 -20.435 -19.708  0.00  0.00    +0.143 C 
ATOM      7  C   UNL     1      35.481 -21.187 -18.537  0.00  0.00    +0.045 C 
ATOM      8  C   UNL     1      33.067 -21.288 -18.604  0.00  0.00    +0.045 C 
ENDROOT
BRANCH   3  13
ATOM      9  O   UNL     1      32.667 -16.624 -25.363  0.00  0.00    -0.272 OA
ATOM     10  N   UNL     1      34.057 -17.290 -23.620  0.00  0.00    -0.273 N 
ATOM     11  C   UNL     1      33.365 -19.400 -22.562  0.00  0.00    +0.048 C 
ATOM     12  C   UNL     1      33.819 -18.715 -23.847  0.00  0.00    +0.098 C 
ATOM     13  C   UNL     1      34.261 -19.052 -21.398  0.00  0.00    -0.019 C 
ATOM     14  C   UNL     1      35.033 -16.958 -22.573  0.00  0.00    +0.120 C 
ATOM     15  C   UNL     1      35.015 -17.937 -21.434  0.00  0.00    -0.009 C 
ATOM     16  C   UNL     1      33.486 -16.351 -24.482  0.00  0.00    +0.255 C 
BRANCH  16  17
ATOM     17  C   UNL     1      33.915 -14.917 -24.290  0.00  0.00    +0.217 C 
BRANCH  17  18
ATOM     18  O   UNL     1      33.582 -14.258 -25.495  0.00  0.00    -0.374 OA
ATOM     19  H   UNL     1      34.216 -14.505 -26.186  0.00  0.00    +0.211 HD
ENDBRANCH  17  18
BRANCH  17  20
ATOM     20  C   UNL     1      33.159 -14.283 -23.144  0.00  0.00    +0.176 C 
BRANCH  20  21
ATOM     21  O   UNL     1      32.291 -13.275 -23.642  0.00  0.00    -0.379 OA
ATOM     22  H   UNL     1      32.492 -12.432 -23.207  0.00  0.00    +0.211 HD
ENDBRANCH  20  21
ENDBRANCH  17  20
ENDBRANCH  16  17
ENDBRANCH   3  13
BRANCH   4  25
ATOM     23  O   UNL     1      34.922 -23.664 -15.044  0.00  0.00    -0.432 OA
ATOM     24  O   UNL     1      36.442 -22.254 -15.964  0.00  0.00    -0.226 OA
ATOM     25  N   UNL     1      34.282 -22.534 -16.891  0.00  0.00    -0.221 N 
ATOM     26  C   UNL     1      33.515 -23.905 -15.191  0.00  0.00    +0.234 C 
ATOM     27  C   UNL     1      33.198 -23.430 -16.593  0.00  0.00    +0.149 C 
ATOM     28  C   UNL     1      35.321 -22.741 -15.986  0.00  0.00    +0.409 C 
BRANCH  26  29
ATOM     29  C   UNL     1      32.770 -23.131 -14.113  0.00  0.00    +0.252 C 
BRANCH  29  30
ATOM     30  O   UNL     1      31.781 -23.976 -13.549  0.00  0.00    -0.454 OA
BRANCH  30  33
ATOM     31  O   UNL     1      28.636 -24.708 -14.803  0.00  0.00    -0.347 OA
ATOM     32  N   UNL     1      29.811 -25.060 -14.149  0.00  0.00    -0.039 NA
ATOM     33  C   UNL     1      30.547 -23.946 -14.136  0.00  0.00    +0.264 C 
ATOM     34  C   UNL     1      29.894 -22.868 -14.760  0.00  0.00    +0.104 C 
ATOM     35  C   UNL     1      28.698 -23.400 -15.162  0.00  0.00    +0.217 C 
ENDBRANCH  30  33
ENDBRANCH  29  30
ENDBRANCH  26  29
ENDBRANCH   4  25
TORSDOF 9
ENDMDL
MODEL 4
REMARK VINA RESULT:     -11.9      2.093      2.531
REMARK  Name = 213049
REMARK  9 active torsions:
REMARK  status: ('A' for Active; 'I' for Inactive)
REMARK    1  A    between atoms: C_3  and  C_13
REMARK    2  A    between atoms: C_4  and  N_25
REMARK    3  A    between atoms: C_16  and  C_17
REMARK    4  A    between atoms: C_17  and  O_18
REMARK    5  A    between atoms: C_17  and  C_20
REMARK    6  A    between atoms: C_20  and  O_21
REMARK    7  A    between atoms: C_26  and  C_29
REMARK    8  A    between atoms: C_29  and  O_30
REMARK    9  A    between atoms: O_30  and  C_33
REMARK                            x       y       z     vdW  Elec       q    Type
REMARK                         _______ _______ _______ _____ _____    ______ ____
ROOT
ATOM      1  F   UNL     1      36.849 -19.579 -20.173  0.00  0.00    -0.204 F 
ATOM      2  F   UNL     1      32.144 -20.257 -20.291  0.00  0.00    -0.204 F 
ATOM      3  C   UNL     1      34.493 -19.894 -20.266  0.00  0.00    +0.051 C 
ATOM      4  C   UNL     1      34.681 -21.576 -18.048  0.00  0.00    +0.062 C 
ATOM      5  C   UNL     1      35.735 -20.143 -19.681  0.00  0.00    +0.143 C 
ATOM      6  C   UNL     1      33.345 -20.487 -19.742  0.00  0.00    +0.143 C 
ATOM      7  C   UNL     1      35.829 -20.983 -18.572  0.00  0.00    +0.045 C 
ATOM      8  C   UNL     1      33.438 -21.328 -18.633  0.00  0.00    +0.045 C 
ENDROOT
BRANCH   3  13
ATOM      9  O   UNL     1      32.528 -16.719 -25.377  0.00  0.00    -0.272 OA
ATOM     10  N   UNL     1      34.009 -17.276 -23.670  0.00  0.00    -0.273 N 
ATOM     11  C   UNL     1      33.490 -19.418 -22.578  0.00  0.00    +0.048 C 
ATOM     12  C   UNL     1      33.860 -18.715 -23.881  0.00  0.00    +0.098 C 
ATOM     13  C   UNL     1      34.394 -19.001 -21.444  0.00  0.00    -0.019 C 
ATOM     14  C   UNL     1      34.990 -16.870 -22.655  0.00  0.00    +0.120 C 
ATOM     15  C   UNL     1      35.070 -17.838 -21.509  0.00  0.00    -0.009 C 
ATOM     16  C   UNL     1      33.352 -16.384 -24.522  0.00  0.00    +0.255 C 
BRANCH  16  17
ATOM     17  C   UNL     1      33.690 -14.923 -24.352  0.00  0.00    +0.217 C 
BRANCH  17  18
ATOM     18  O   UNL     1      33.067 -14.263 -25.435  0.00  0.00    -0.374 OA
ATOM     19  H   UNL     1      32.163 -14.015 -25.188  0.00  0.00    +0.211 HD
ENDBRANCH  17  18
BRANCH  17  20
ATOM     20  C   UNL     1      33.129 -14.394 -23.051  0.00  0.00    +0.176 C 
BRANCH  20  21
ATOM     21  O   UNL     1      33.976 -13.371 -22.546  0.00  0.00    -0.379 OA
ATOM     22  H   UNL     1      33.438 -12.612 -22.273  0.00  0.00    +0.211 HD
ENDBRANCH  20  21
ENDBRANCH  17  20
ENDBRANCH  16  17
ENDBRANCH   3  13
BRANCH   4  25
ATOM     23  O   UNL     1      35.572 -23.577 -15.139  0.00  0.00    -0.432 OA
ATOM     24  O   UNL     1      37.041 -22.254 -16.253  0.00  0.00    -0.226 OA
ATOM     25  N   UNL     1      34.776 -22.434 -16.915  0.00  0.00    -0.221 N 
ATOM     26  C   UNL     1      34.148 -23.747 -15.116  0.00  0.00    +0.234 C 
ATOM     27  C   UNL     1      33.692 -23.271 -16.478  0.00  0.00    +0.149 C 
ATOM     28  C   UNL     1      35.903 -22.684 -16.135  0.00  0.00    +0.409 C 
BRANCH  26  29
ATOM     29  C   UNL     1      33.574 -22.926 -13.970  0.00  0.00    +0.252 C 
BRANCH  29  30
ATOM     30  O   UNL     1      33.514 -23.741 -12.812  0.00  0.00    -0.454 OA
BRANCH  30  33
ATOM     31  O   UNL     1      35.825 -24.193 -10.271  0.00  0.00    -0.347 OA
ATOM     32  N   UNL     1      34.645 -24.517 -10.931  0.00  0.00    -0.039 NA
ATOM     33  C   UNL     1      34.582 -23.668 -11.960  0.00  0.00    +0.264 C 
ATOM     34  C   UNL     1      35.683 -22.794 -12.001  0.00  0.00    +0.104 C 
ATOM     35  C   UNL     1      36.434 -23.166 -10.917  0.00  0.00    +0.217 C 
ENDBRANCH  30  33
ENDBRANCH  29  30
ENDBRANCH  26  29
ENDBRANCH   4  25
TORSDOF 9
ENDMDL
MODEL 5
REMARK VINA RESULT:     -11.8      4.458      7.194
REMARK  Name = 213049
REMARK  9 active torsions:
REMARK  status: ('A' for Active; 'I' for Inactive)
REMARK    1  A    between atoms: C_3  and  C_13
REMARK    2  A    between atoms: C_4  and  N_25
REMARK    3  A    between atoms: C_16  and  C_17
REMARK    4  A    between atoms: C_17  and  O_18
REMARK    5  A    between atoms: C_17  and  C_20
REMARK    6  A    between atoms: C_20  and  O_21
REMARK    7  A    between atoms: C_26  and  C_29
REMARK    8  A    between atoms: C_29  and  O_30
REMARK    9  A    between atoms: O_30  and  C_33
REMARK                            x       y       z     vdW  Elec       q    Type
REMARK                         _______ _______ _______ _____ _____    ______ ____
ROOT
ATOM      1  F   UNL     1      33.576 -13.702 -19.873  0.00  0.00    -0.204 F 
ATOM      2  F   UNL     1      33.522 -14.537 -24.554  0.00  0.00    -0.204 F 
ATOM      3  C   UNL     1      33.536 -14.080 -22.221  0.00  0.00    +0.051 C 
ATOM      4  C   UNL     1      34.454 -16.676 -21.768  0.00  0.00    +0.062 C 
ATOM      5  C   UNL     1      33.779 -14.517 -20.919  0.00  0.00    +0.143 C 
ATOM      6  C   UNL     1      33.753 -14.941 -23.297  0.00  0.00    +0.143 C 
ATOM      7  C   UNL     1      34.238 -15.815 -20.692  0.00  0.00    +0.045 C 
ATOM      8  C   UNL     1      34.212 -16.239 -23.071  0.00  0.00    +0.045 C 
ENDROOT
BRANCH   3  13
ATOM      9  O   UNL     1      31.155  -8.249 -21.606  0.00  0.00    -0.272 OA
ATOM     10  N   UNL     1      32.164 -10.015 -22.737  0.00  0.00    -0.273 N 
ATOM     11  C   UNL     1      31.943 -12.175 -21.581  0.00  0.00    +0.048 C 
ATOM     12  C   UNL     1      31.213 -11.005 -22.234  0.00  0.00    +0.098 C 
ATOM     13  C   UNL     1      33.049 -12.702 -22.462  0.00  0.00    -0.019 C 
ATOM     14  C   UNL     1      33.160 -10.506 -23.698  0.00  0.00    +0.120 C 
ATOM     15  C   UNL     1      33.580 -11.922 -23.423  0.00  0.00    -0.009 C 
ATOM     16  C   UNL     1      31.989  -8.667 -22.412  0.00  0.00    +0.255 C 
BRANCH  16  17
ATOM     17  C   UNL     1      32.904  -7.687 -23.106  0.00  0.00    +0.217 C 
BRANCH  17  18
ATOM     18  O   UNL     1      32.111  -7.064 -24.095  0.00  0.00    -0.374 OA
ATOM     19  H   UNL     1      32.639  -6.928 -24.897  0.00  0.00    +0.211 HD
ENDBRANCH  17  18
BRANCH  17  20
ATOM     20  C   UNL     1      33.406  -6.644 -22.131  0.00  0.00    +0.176 C 
BRANCH  20  21
ATOM     21  O   UNL     1      32.415  -5.643 -21.950  0.00  0.00    -0.379 OA
ATOM     22  H   UNL     1      32.800  -4.771 -22.126  0.00  0.00    +0.211 HD
ENDBRANCH  20  21
ENDBRANCH  17  20
ENDBRANCH  16  17
ENDBRANCH   3  13
BRANCH   4  25
ATOM     23  O   UNL     1      36.261 -19.780 -21.171  0.00  0.00    -0.432 OA
ATOM     24  O   UNL     1      37.272 -17.762 -21.399  0.00  0.00    -0.226 OA
ATOM     25  N   UNL     1      34.921 -18.001 -21.536  0.00  0.00    -0.221 N 
ATOM     26  C   UNL     1      34.919 -20.247 -20.978  0.00  0.00    +0.234 C 
ATOM     27  C   UNL     1      34.053 -19.148 -21.554  0.00  0.00    +0.149 C 
ATOM     28  C   UNL     1      36.240 -18.417 -21.367  0.00  0.00    +0.409 C 
BRANCH  26  29
ATOM     29  C   UNL     1      34.688 -20.475 -19.491  0.00  0.00    +0.252 C 
BRANCH  29  30
ATOM     30  O   UNL     1      35.946 -20.589 -18.849  0.00  0.00    -0.454 OA
BRANCH  30  33
ATOM     31  O   UNL     1      35.308 -22.740 -16.209  0.00  0.00    -0.347 OA
ATOM     32  N   UNL     1      35.002 -22.192 -17.449  0.00  0.00    -0.039 NA
ATOM     33  C   UNL     1      35.971 -21.303 -17.682  0.00  0.00    +0.264 C 
ATOM     34  C   UNL     1      36.909 -21.247 -16.636  0.00  0.00    +0.104 C 
ATOM     35  C   UNL     1      36.445 -22.169 -15.734  0.00  0.00    +0.217 C 
ENDBRANCH  30  33
ENDBRANCH  29  30
ENDBRANCH  26  29
ENDBRANCH   4  25
TORSDOF 9
ENDMDL
MODEL 6
REMARK VINA RESULT:     -11.7      4.436      7.613
REMARK  Name = 213049
REMARK  9 active torsions:
REMARK  status: ('A' for Active; 'I' for Inactive)
REMARK    1  A    between atoms: C_3  and  C_13
REMARK    2  A    between atoms: C_4  and  N_25
REMARK    3  A    between atoms: C_16  and  C_17
REMARK    4  A    between atoms: C_17  and  O_18
REMARK    5  A    between atoms: C_17  and  C_20
REMARK    6  A    between atoms: C_20  and  O_21
REMARK    7  A    between atoms: C_26  and  C_29
REMARK    8  A    between atoms: C_29  and  O_30
REMARK    9  A    between atoms: O_30  and  C_33
REMARK                            x       y       z     vdW  Elec       q    Type
REMARK                         _______ _______ _______ _____ _____    ______ ____
ROOT
ATOM      1  F   UNL     1      33.526 -14.525 -24.523  0.00  0.00    -0.204 F 
ATOM      2  F   UNL     1      33.624 -13.691 -19.842  0.00  0.00    -0.204 F 
ATOM      3  C   UNL     1      33.560 -14.070 -22.188  0.00  0.00    +0.051 C 
ATOM      4  C   UNL     1      34.470 -16.669 -21.745  0.00  0.00    +0.062 C 
ATOM      5  C   UNL     1      33.763 -14.932 -23.266  0.00  0.00    +0.143 C 
ATOM      6  C   UNL     1      33.812 -14.508 -20.888  0.00  0.00    +0.143 C 
ATOM      7  C   UNL     1      34.218 -16.231 -23.045  0.00  0.00    +0.045 C 
ATOM      8  C   UNL     1      34.267 -15.807 -20.666  0.00  0.00    +0.045 C 
ENDROOT
BRANCH   3  13
ATOM      9  O   UNL     1      31.247  -8.214 -21.544  0.00  0.00    -0.272 OA
ATOM     10  N   UNL     1      32.204  -9.997 -22.692  0.00  0.00    -0.273 N 
ATOM     11  C   UNL     1      32.004 -12.146 -21.512  0.00  0.00    +0.048 C 
ATOM     12  C   UNL     1      31.262 -10.975 -22.150  0.00  0.00    +0.098 C 
ATOM     13  C   UNL     1      33.076 -12.689 -22.424  0.00  0.00    -0.019 C 
ATOM     14  C   UNL     1      33.163 -10.504 -23.682  0.00  0.00    +0.120 C 
ATOM     15  C   UNL     1      33.580 -11.921 -23.409  0.00  0.00    -0.009 C 
ATOM     16  C   UNL     1      32.051  -8.645 -22.373  0.00  0.00    +0.255 C 
BRANCH  16  17
ATOM     17  C   UNL     1      32.950  -7.679 -23.106  0.00  0.00    +0.217 C 
BRANCH  17  18
ATOM     18  O   UNL     1      32.132  -7.067 -24.081  0.00  0.00    -0.374 OA
ATOM     19  H   UNL     1      31.934  -7.704 -24.785  0.00  0.00    +0.211 HD
ENDBRANCH  17  18
BRANCH  17  20
ATOM     20  C   UNL     1      33.481  -6.624 -22.160  0.00  0.00    +0.176 C 
BRANCH  20  21
ATOM     21  O   UNL     1      32.485  -5.637 -21.937  0.00  0.00    -0.379 OA
ATOM     22  H   UNL     1      32.688  -5.151 -21.123  0.00  0.00    +0.211 HD
ENDBRANCH  20  21
ENDBRANCH  17  20
ENDBRANCH  16  17
ENDBRANCH   3  13
BRANCH   4  25
ATOM     23  O   UNL     1      36.276 -19.777 -21.159  0.00  0.00    -0.432 OA
ATOM     24  O   UNL     1      37.287 -17.758 -21.375  0.00  0.00    -0.226 OA
ATOM     25  N   UNL     1      34.937 -17.996 -21.518  0.00  0.00    -0.221 N 
ATOM     26  C   UNL     1      34.933 -20.244 -20.971  0.00  0.00    +0.234 C 
ATOM     27  C   UNL     1      34.069 -19.142 -21.543  0.00  0.00    +0.149 C 
ATOM     28  C   UNL     1      36.255 -18.413 -21.349  0.00  0.00    +0.409 C 
BRANCH  26  29
ATOM     29  C   UNL     1      34.698 -20.479 -19.485  0.00  0.00    +0.252 C 
BRANCH  29  30
ATOM     30  O   UNL     1      34.288 -21.823 -19.297  0.00  0.00    -0.454 OA
BRANCH  30  33
ATOM     31  O   UNL     1      31.220 -21.908 -17.691  0.00  0.00    -0.347 OA
ATOM     32  N   UNL     1      32.044 -21.540 -18.748  0.00  0.00    -0.039 NA
ATOM     33  C   UNL     1      33.247 -22.027 -18.434  0.00  0.00    +0.264 C 
ATOM     34  C   UNL     1      33.244 -22.706 -17.203  0.00  0.00    +0.104 C 
ATOM     35  C   UNL     1      31.946 -22.602 -16.777  0.00  0.00    +0.217 C 
ENDBRANCH  30  33
ENDBRANCH  29  30
ENDBRANCH  26  29
ENDBRANCH   4  25
TORSDOF 9
ENDMDL
MODEL 7
REMARK VINA RESULT:     -11.6      2.468     10.986
REMARK  Name = 213049
REMARK  9 active torsions:
REMARK  status: ('A' for Active; 'I' for Inactive)
REMARK    1  A    between atoms: C_3  and  C_13
REMARK    2  A    between atoms: C_4  and  N_25
REMARK    3  A    between atoms: C_16  and  C_17
REMARK    4  A    between atoms: C_17  and  O_18
REMARK    5  A    between atoms: C_17  and  C_20
REMARK    6  A    between atoms: C_20  and  O_21
REMARK    7  A    between atoms: C_26  and  C_29
REMARK    8  A    between atoms: C_29  and  O_30
REMARK    9  A    between atoms: O_30  and  C_33
REMARK                            x       y       z     vdW  Elec       q    Type
REMARK                         _______ _______ _______ _____ _____    ______ ____
ROOT
ATOM      1  F   UNL     1      31.657 -20.404 -19.252  0.00  0.00    -0.204 F 
ATOM      2  F   UNL     1      36.369 -21.025 -19.417  0.00  0.00    -0.204 F 
ATOM      3  C   UNL     1      34.011 -20.741 -19.302  0.00  0.00    +0.051 C 
ATOM      4  C   UNL     1      34.158 -19.038 -21.507  0.00  0.00    +0.062 C 
ATOM      5  C   UNL     1      32.851 -20.157 -19.812  0.00  0.00    +0.143 C 
ATOM      6  C   UNL     1      35.245 -20.474 -19.895  0.00  0.00    +0.143 C 
ATOM      7  C   UNL     1      32.925 -19.305 -20.914  0.00  0.00    +0.045 C 
ATOM      8  C   UNL     1      35.319 -19.622 -20.997  0.00  0.00    +0.045 C 
ENDROOT
BRANCH   3  13
ATOM      9  O   UNL     1      34.549 -23.382 -13.575  0.00  0.00    -0.272 OA
ATOM     10  N   UNL     1      33.793 -23.222 -15.770  0.00  0.00    -0.273 N 
ATOM     11  C   UNL     1      35.064 -21.617 -17.133  0.00  0.00    +0.048 C 
ATOM     12  C   UNL     1      35.115 -22.896 -16.302  0.00  0.00    +0.098 C 
ATOM     13  C   UNL     1      33.933 -21.646 -18.132  0.00  0.00    -0.019 C 
ATOM     14  C   UNL     1      32.720 -23.381 -16.760  0.00  0.00    +0.120 C 
ATOM     15  C   UNL     1      32.881 -22.465 -17.940  0.00  0.00    -0.009 C 
ATOM     16  C   UNL     1      33.652 -23.513 -14.410  0.00  0.00    +0.255 C 
BRANCH  16  17
ATOM     17  C   UNL     1      32.296 -24.008 -13.969  0.00  0.00    +0.217 C 
BRANCH  17  18
ATOM     18  O   UNL     1      32.541 -24.825 -12.842  0.00  0.00    -0.374 OA
ATOM     19  H   UNL     1      31.720 -24.935 -12.337  0.00  0.00    +0.211 HD
ENDBRANCH  17  18
BRANCH  17  20
ATOM     20  C   UNL     1      31.410 -22.850 -13.569  0.00  0.00    +0.176 C 
BRANCH  20  21
ATOM     21  O   UNL     1      31.859 -22.308 -12.335  0.00  0.00    -0.379 OA
ATOM     22  H   UNL     1      31.266 -22.593 -11.622  0.00  0.00    +0.211 HD
ENDBRANCH  20  21
ENDBRANCH  17  20
ENDBRANCH  16  17
ENDBRANCH   3  13
BRANCH   4  25
ATOM     23  O   UNL     1      34.011 -17.299 -24.703  0.00  0.00    -0.432 OA
ATOM     24  O   UNL     1      33.118 -19.354 -24.348  0.00  0.00    -0.226 OA
ATOM     25  N   UNL     1      34.234 -18.167 -22.631  0.00  0.00    -0.221 N 
ATOM     26  C   UNL     1      34.529 -16.242 -23.882  0.00  0.00    +0.234 C 
ATOM     27  C   UNL     1      34.981 -16.938 -22.617  0.00  0.00    +0.149 C 
ATOM     28  C   UNL     1      33.718 -18.384 -23.907  0.00  0.00    +0.409 C 
BRANCH  26  29
ATOM     29  C   UNL     1      33.427 -15.220 -23.644  0.00  0.00    +0.252 C 
BRANCH  29  30
ATOM     30  O   UNL     1      33.858 -14.313 -22.643  0.00  0.00    -0.454 OA
BRANCH  30  33
ATOM     31  O   UNL     1      32.388 -11.203 -23.052  0.00  0.00    -0.347 OA
ATOM     32  N   UNL     1      33.229 -12.229 -23.467  0.00  0.00    -0.039 NA
ATOM     33  C   UNL     1      33.134 -13.160 -22.514  0.00  0.00    +0.264 C 
ATOM     34  C   UNL     1      32.256 -12.782 -21.483  0.00  0.00    +0.104 C 
ATOM     35  C   UNL     1      31.815 -11.544 -21.869  0.00  0.00    +0.217 C 
ENDBRANCH  30  33
ENDBRANCH  29  30
ENDBRANCH  26  29
ENDBRANCH   4  25
TORSDOF 9
ENDMDL
MODEL 8
REMARK VINA RESULT:     -11.3      1.761     10.857
REMARK  Name = 213049
REMARK  9 active torsions:
REMARK  status: ('A' for Active; 'I' for Inactive)
REMARK    1  A    between atoms: C_3  and  C_13
REMARK    2  A    between atoms: C_4  and  N_25
REMARK    3  A    between atoms: C_16  and  C_17
REMARK    4  A    between atoms: C_17  and  O_18
REMARK    5  A    between atoms: C_17  and  C_20
REMARK    6  A    between atoms: C_20  and  O_21
REMARK    7  A    between atoms: C_26  and  C_29
REMARK    8  A    between atoms: C_29  and  O_30
REMARK    9  A    between atoms: O_30  and  C_33
REMARK                            x       y       z     vdW  Elec       q    Type
REMARK                         _______ _______ _______ _____ _____    ______ ____
ROOT
ATOM      1  F   UNL     1      32.089 -20.547 -19.293  0.00  0.00    -0.204 F 
ATOM      2  F   UNL     1      36.825 -20.471 -19.717  0.00  0.00    -0.204 F 
ATOM      3  C   UNL     1      34.461 -20.534 -19.472  0.00  0.00    +0.051 C 
ATOM      4  C   UNL     1      34.232 -18.931 -21.744  0.00  0.00    +0.062 C 
ATOM      5  C   UNL     1      33.201 -20.152 -19.933  0.00  0.00    +0.143 C 
ATOM      6  C   UNL     1      35.607 -20.114 -20.148  0.00  0.00    +0.143 C 
ATOM      7  C   UNL     1      33.086 -19.351 -21.068  0.00  0.00    +0.045 C 
ATOM      8  C   UNL     1      35.493 -19.313 -21.283  0.00  0.00    +0.045 C 
ENDROOT
BRANCH   3  13
ATOM      9  O   UNL     1      34.155 -25.263 -15.276  0.00  0.00    -0.272 OA
ATOM     10  N   UNL     1      34.812 -23.177 -16.070  0.00  0.00    -0.273 N 
ATOM     11  C   UNL     1      33.499 -22.401 -17.999  0.00  0.00    +0.048 C 
ATOM     12  C   UNL     1      33.471 -22.825 -16.534  0.00  0.00    +0.098 C 
ATOM     13  C   UNL     1      34.583 -21.385 -18.265  0.00  0.00    -0.019 C 
ATOM     14  C   UNL     1      35.838 -22.135 -16.209  0.00  0.00    +0.120 C 
ATOM     15  C   UNL     1      35.633 -21.281 -17.429  0.00  0.00    -0.009 C 
ATOM     16  C   UNL     1      35.012 -24.385 -15.397  0.00  0.00    +0.255 C 
BRANCH  16  17
ATOM     17  C   UNL     1      36.381 -24.599 -14.798  0.00  0.00    +0.217 C 
BRANCH  17  18
ATOM     18  O   UNL     1      36.317 -24.043 -13.501  0.00  0.00    -0.374 OA
ATOM     19  H   UNL     1      37.214 -23.954 -13.142  0.00  0.00    +0.211 HD
ENDBRANCH  17  18
BRANCH  17  20
ATOM     20  C   UNL     1      36.693 -26.076 -14.698  0.00  0.00    +0.176 C 
BRANCH  20  21
ATOM     21  O   UNL     1      36.406 -26.711 -15.936  0.00  0.00    -0.379 OA
ATOM     22  H   UNL     1      35.991 -27.571 -15.769  0.00  0.00    +0.211 HD
ENDBRANCH  20  21
ENDBRANCH  17  20
ENDBRANCH  16  17
ENDBRANCH   3  13
BRANCH   4  25
ATOM     23  O   UNL     1      33.514 -17.318 -24.929  0.00  0.00    -0.432 OA
ATOM     24  O   UNL     1      32.626 -19.308 -24.300  0.00  0.00    -0.226 OA
ATOM     25  N   UNL     1      34.115 -18.112 -22.903  0.00  0.00    -0.221 N 
ATOM     26  C   UNL     1      34.232 -16.257 -24.282  0.00  0.00    +0.234 C 
ATOM     27  C   UNL     1      34.901 -16.924 -23.100  0.00  0.00    +0.149 C 
ATOM     28  C   UNL     1      33.343 -18.354 -24.037  0.00  0.00    +0.409 C 
BRANCH  26  29
ATOM     29  C   UNL     1      33.245 -15.171 -23.879  0.00  0.00    +0.252 C 
BRANCH  29  30
ATOM     30  O   UNL     1      33.877 -14.305 -22.952  0.00  0.00    -0.454 OA
BRANCH  30  33
ATOM     31  O   UNL     1      31.593 -12.008 -21.723  0.00  0.00    -0.347 OA
ATOM     32  N   UNL     1      32.307 -12.597 -22.760  0.00  0.00    -0.039 NA
ATOM     33  C   UNL     1      33.052 -13.539 -22.175  0.00  0.00    +0.264 C 
ATOM     34  C   UNL     1      32.853 -13.591 -20.784  0.00  0.00    +0.104 C 
ATOM     35  C   UNL     1      31.927 -12.609 -20.551  0.00  0.00    +0.217 C 
ENDBRANCH  30  33
ENDBRANCH  29  30
ENDBRANCH  26  29
ENDBRANCH   4  25
TORSDOF 9
ENDMDL
MODEL 9
REMARK VINA RESULT:     -10.7      4.774      8.181
REMARK  Name = 213049
REMARK  9 active torsions:
REMARK  status: ('A' for Active; 'I' for Inactive)
REMARK    1  A    between atoms: C_3  and  C_13
REMARK    2  A    between atoms: C_4  and  N_25
REMARK    3  A    between atoms: C_16  and  C_17
REMARK    4  A    between atoms: C_17  and  O_18
REMARK    5  A    between atoms: C_17  and  C_20
REMARK    6  A    between atoms: C_20  and  O_21
REMARK    7  A    between atoms: C_26  and  C_29
REMARK    8  A    between atoms: C_29  and  O_30
REMARK    9  A    between atoms: O_30  and  C_33
REMARK                            x       y       z     vdW  Elec       q    Type
REMARK                         _______ _______ _______ _____ _____    ______ ____
ROOT
ATOM      1  F   UNL     1      32.703 -13.663 -24.911  0.00  0.00    -0.204 F 
ATOM      2  F   UNL     1      33.867 -13.035 -20.343  0.00  0.00    -0.204 F 
ATOM      3  C   UNL     1      33.272 -13.310 -22.628  0.00  0.00    +0.051 C 
ATOM      4  C   UNL     1      34.089 -15.973 -22.471  0.00  0.00    +0.062 C 
ATOM      5  C   UNL     1      33.181 -14.135 -23.749  0.00  0.00    +0.143 C 
ATOM      6  C   UNL     1      33.772 -13.816 -21.428  0.00  0.00    +0.143 C 
ATOM      7  C   UNL     1      33.590 -15.466 -23.671  0.00  0.00    +0.045 C 
ATOM      8  C   UNL     1      34.180 -15.147 -21.349  0.00  0.00    +0.045 C 
ENDROOT
BRANCH   3  13
ATOM      9  O   UNL     1      30.933  -7.555 -21.413  0.00  0.00    -0.272 OA
ATOM     10  N   UNL     1      32.033  -9.169 -22.678  0.00  0.00    -0.273 N 
ATOM     11  C   UNL     1      31.648 -11.467 -21.888  0.00  0.00    +0.048 C 
ATOM     12  C   UNL     1      31.015 -10.190 -22.434  0.00  0.00    +0.098 C 
ATOM     13  C   UNL     1      32.838 -11.895 -22.712  0.00  0.00    -0.019 C 
ATOM     14  C   UNL     1      33.122  -9.547 -23.588  0.00  0.00    +0.120 C 
ATOM     15  C   UNL     1      33.485 -11.001 -23.483  0.00  0.00    -0.009 C 
ATOM     16  C   UNL     1      31.845  -7.878 -22.177  0.00  0.00    +0.255 C 
BRANCH  16  17
ATOM     17  C   UNL     1      32.848  -6.838 -22.614  0.00  0.00    +0.217 C 
BRANCH  17  18
ATOM     18  O   UNL     1      32.091  -5.681 -22.902  0.00  0.00    -0.374 OA
ATOM     19  H   UNL     1      31.580  -5.424 -22.118  0.00  0.00    +0.211 HD
ENDBRANCH  17  18
BRANCH  17  20
ATOM     20  C   UNL     1      33.824  -6.537 -21.498  0.00  0.00    +0.176 C 
BRANCH  20  21
ATOM     21  O   UNL     1      33.141  -6.536 -20.253  0.00  0.00    -0.379 OA
ATOM     22  H   UNL     1      33.391  -7.325 -19.746  0.00  0.00    +0.211 HD
ENDBRANCH  20  21
ENDBRANCH  17  20
ENDBRANCH  16  17
ENDBRANCH   3  13
BRANCH   4  25
ATOM     23  O   UNL     1      35.745 -19.188 -22.048  0.00  0.00    -0.432 OA
ATOM     24  O   UNL     1      36.737 -17.196 -21.609  0.00  0.00    -0.226 OA
ATOM     25  N   UNL     1      34.508 -17.331 -22.391  0.00  0.00    -0.221 N 
ATOM     26  C   UNL     1      34.408 -19.642 -22.303  0.00  0.00    +0.234 C 
ATOM     27  C   UNL     1      33.698 -18.425 -22.855  0.00  0.00    +0.149 C 
ATOM     28  C   UNL     1      35.746 -17.813 -21.973  0.00  0.00    +0.409 C 
BRANCH  26  29
ATOM     29  C   UNL     1      33.805 -20.147 -21.000  0.00  0.00    +0.252 C 
BRANCH  29  30
ATOM     30  O   UNL     1      34.852 -20.614 -20.166  0.00  0.00    -0.454 OA
BRANCH  30  33
ATOM     31  O   UNL     1      34.728 -22.401 -17.201  0.00  0.00    -0.347 OA
ATOM     32  N   UNL     1      35.413 -21.695 -18.183  0.00  0.00    -0.039 NA
ATOM     33  C   UNL     1      34.479 -21.336 -19.066  0.00  0.00    +0.264 C 
ATOM     34  C   UNL     1      33.197 -21.781 -18.699  0.00  0.00    +0.104 C 
ATOM     35  C   UNL     1      33.408 -22.445 -17.519  0.00  0.00    +0.217 C 
ENDBRANCH  30  33
ENDBRANCH  29  30
ENDBRANCH  26  29
ENDBRANCH   4  25
TORSDOF 9
ENDMDL
