MODEL 1
REMARK VINA RESULT:     -10.7      0.000      0.000
REMARK  Name = 9543494
REMARK  7 active torsions:
REMARK  status: ('A' for Active; 'I' for Inactive)
REMARK    1  A    between atoms: C_2  and  N_18
REMARK    2  A    between atoms: C_3  and  C_6
REMARK    3  A    between atoms: C_5  and  C_15
REMARK    4  A    between atoms: C_11  and  C_13
REMARK    5  A    between atoms: C_15  and  O_16
REMARK    6  A    between atoms: N_18  and  S_20
REMARK    7  A    between atoms: S_20  and  C_23
REMARK                            x       y       z     vdW  Elec       q    Type
REMARK                         _______ _______ _______ _____ _____    ______ ____
ROOT
ATOM      1  S   UNL     1      31.400 -22.712 -16.297  0.00  0.00    -0.079 S 
ATOM      2  C   UNL     1      33.177 -23.879 -14.856  0.00  0.00    +0.078 C 
ATOM      3  C   UNL     1      33.040 -22.568 -16.772  0.00  0.00    +0.031 C 
ATOM      4  C   UNL     1      33.885 -23.239 -15.914  0.00  0.00    +0.023 C 
ATOM      5  C   UNL     1      31.818 -23.673 -14.944  0.00  0.00    +0.119 C 
ENDROOT
BRANCH   3   6
ATOM      6  C   UNL     1      33.359 -21.803 -17.953  0.00  0.00    +0.006 C 
ATOM      7  C   UNL     1      34.689 -21.642 -18.340  0.00  0.00    +0.001 C 
ATOM      8  C   UNL     1      32.339 -21.224 -18.705  0.00  0.00    +0.001 C 
ATOM      9  C   UNL     1      34.999 -20.901 -19.480  0.00  0.00    +0.010 C 
ATOM     10  C   UNL     1      32.648 -20.483 -19.846  0.00  0.00    +0.010 C 
ATOM     11  C   UNL     1      33.977 -20.322 -20.233  0.00  0.00    +0.068 C 
BRANCH  11  13
ATOM     12  N   UNL     1      34.551 -18.945 -22.353  0.00  0.00    -0.191 NA
ATOM     13  C   UNL     1      34.294 -19.562 -21.402  0.00  0.00    +0.100 C 
ENDBRANCH  11  13
ENDBRANCH   3   6
BRANCH   5  15
ATOM     14  O   UNL     1      29.660 -24.577 -14.444  0.00  0.00    -0.244 OA
ATOM     15  C   UNL     1      30.776 -24.141 -14.086  0.00  0.00    +0.345 C 
BRANCH  15  16
ATOM     16  O   UNL     1      31.095 -24.079 -12.754  0.00  0.00    -0.477 OA
ATOM     17  H   UNL     1      30.503 -24.426 -12.114  0.00  0.00    +0.295 HD
ENDBRANCH  15  16
ENDBRANCH   5  15
BRANCH   2  18
ATOM     18  N   UNL     1      33.825 -24.626 -13.855  0.00  0.00    -0.214 N 
ATOM     19  H   UNL     1      33.641 -25.592 -13.814  0.00  0.00    +0.174 HD
BRANCH  18  20
ATOM     20  S   UNL     1      34.907 -23.977 -12.705  0.00  0.00    +0.073 S 
ATOM     21  O   UNL     1      34.626 -24.543 -11.399  0.00  0.00    -0.150 OA
ATOM     22  O   UNL     1      34.999 -22.540 -12.879  0.00  0.00    -0.150 OA
BRANCH  20  23
ATOM     23  C   UNL     1      36.437 -24.670 -13.261  0.00  0.00    +0.121 C 
ATOM     24  C   UNL     1      37.639 -24.251 -12.714  0.00  0.00    -0.003 C 
ATOM     25  C   UNL     1      36.394 -25.637 -14.252  0.00  0.00    +0.020 C 
ATOM     26  C   UNL     1      38.831 -24.813 -13.171  0.00  0.00    -0.003 C 
ATOM     27  C   UNL     1      37.703 -23.208 -11.646  0.00  0.00    +0.032 C 
ATOM     28  C   UNL     1      37.586 -26.199 -14.710  0.00  0.00    +0.001 C 
ATOM     29  C   UNL     1      38.805 -25.788 -14.169  0.00  0.00    -0.000 C 
ENDBRANCH  20  23
ENDBRANCH  18  20
ENDBRANCH   2  18
TORSDOF 7
ENDMDL
MODEL 2
REMARK VINA RESULT:     -10.7      1.052      1.223
REMARK  Name = 9543494
REMARK  7 active torsions:
REMARK  status: ('A' for Active; 'I' for Inactive)
REMARK    1  A    between atoms: C_2  and  N_18
REMARK    2  A    between atoms: C_3  and  C_6
REMARK    3  A    between atoms: C_5  and  C_15
REMARK    4  A    between atoms: C_11  and  C_13
REMARK    5  A    between atoms: C_15  and  O_16
REMARK    6  A    between atoms: N_18  and  S_20
REMARK    7  A    between atoms: S_20  and  C_23
REMARK                            x       y       z     vdW  Elec       q    Type
REMARK                         _______ _______ _______ _____ _____    ______ ____
ROOT
ATOM      1  S   UNL     1      31.909 -22.808 -16.171  0.00  0.00    -0.079 S 
ATOM      2  C   UNL     1      33.888 -23.968 -15.015  0.00  0.00    +0.078 C 
ATOM      3  C   UNL     1      33.468 -22.605 -16.852  0.00  0.00    +0.031 C 
ATOM      4  C   UNL     1      34.435 -23.278 -16.136  0.00  0.00    +0.023 C 
ATOM      5  C   UNL     1      32.525 -23.797 -14.917  0.00  0.00    +0.119 C 
ENDROOT
BRANCH   3   6
ATOM      6  C   UNL     1      33.611 -21.798 -18.039  0.00  0.00    +0.006 C 
ATOM      7  C   UNL     1      34.881 -21.518 -18.544  0.00  0.00    +0.001 C 
ATOM      8  C   UNL     1      32.480 -21.294 -18.679  0.00  0.00    +0.001 C 
ATOM      9  C   UNL     1      35.019 -20.736 -19.689  0.00  0.00    +0.010 C 
ATOM     10  C   UNL     1      32.618 -20.512 -19.826  0.00  0.00    +0.010 C 
ATOM     11  C   UNL     1      33.888 -20.233 -20.331  0.00  0.00    +0.068 C 
BRANCH  11  13
ATOM     12  N   UNL     1      34.144 -18.778 -22.460  0.00  0.00    -0.191 NA
ATOM     13  C   UNL     1      34.029 -19.430 -21.505  0.00  0.00    +0.100 C 
ENDBRANCH  11  13
ENDBRANCH   3   6
BRANCH   5  15
ATOM     14  O   UNL     1      30.381 -24.456 -14.084  0.00  0.00    -0.244 OA
ATOM     15  C   UNL     1      31.616 -24.318 -13.946  0.00  0.00    +0.345 C 
BRANCH  15  16
ATOM     16  O   UNL     1      32.221 -24.685 -12.771  0.00  0.00    -0.477 OA
ATOM     17  H   UNL     1      32.923 -24.168 -12.424  0.00  0.00    +0.295 HD
ENDBRANCH  15  16
ENDBRANCH   5  15
BRANCH   2  18
ATOM     18  N   UNL     1      34.679 -24.727 -14.133  0.00  0.00    -0.214 N 
ATOM     19  H   UNL     1      34.649 -25.707 -14.220  0.00  0.00    +0.174 HD
BRANCH  18  20
ATOM     20  S   UNL     1      35.688 -24.070 -12.923  0.00  0.00    +0.073 S 
ATOM     21  O   UNL     1      35.549 -24.842 -11.702  0.00  0.00    -0.150 OA
ATOM     22  O   UNL     1      35.543 -22.627 -12.899  0.00  0.00    -0.150 OA
BRANCH  20  23
ATOM     23  C   UNL     1      37.286 -24.425 -13.593  0.00  0.00    +0.121 C 
ATOM     24  C   UNL     1      37.828 -23.621 -14.582  0.00  0.00    -0.003 C 
ATOM     25  C   UNL     1      37.971 -25.524 -13.100  0.00  0.00    +0.020 C 
ATOM     26  C   UNL     1      39.090 -23.925 -15.093  0.00  0.00    -0.003 C 
ATOM     27  C   UNL     1      37.102 -22.434 -15.125  0.00  0.00    +0.032 C 
ATOM     28  C   UNL     1      39.233 -25.828 -13.611  0.00  0.00    +0.001 C 
ATOM     29  C   UNL     1      39.793 -25.028 -14.608  0.00  0.00    -0.000 C 
ENDBRANCH  20  23
ENDBRANCH  18  20
ENDBRANCH   2  18
TORSDOF 7
ENDMDL
MODEL 3
REMARK VINA RESULT:     -10.2      2.103      5.553
REMARK  Name = 9543494
REMARK  7 active torsions:
REMARK  status: ('A' for Active; 'I' for Inactive)
REMARK    1  A    between atoms: C_2  and  N_18
REMARK    2  A    between atoms: C_3  and  C_6
REMARK    3  A    between atoms: C_5  and  C_15
REMARK    4  A    between atoms: C_11  and  C_13
REMARK    5  A    between atoms: C_15  and  O_16
REMARK    6  A    between atoms: N_18  and  S_20
REMARK    7  A    between atoms: S_20  and  C_23
REMARK                            x       y       z     vdW  Elec       q    Type
REMARK                         _______ _______ _______ _____ _____    ______ ____
ROOT
ATOM      1  S   UNL     1      35.212 -22.664 -15.739  0.00  0.00    -0.079 S 
ATOM      2  C   UNL     1      32.956 -23.624 -14.973  0.00  0.00    +0.078 C 
ATOM      3  C   UNL     1      33.848 -22.405 -16.741  0.00  0.00    +0.031 C 
ATOM      4  C   UNL     1      32.707 -22.971 -16.214  0.00  0.00    +0.023 C 
ATOM      5  C   UNL     1      34.278 -23.534 -14.598  0.00  0.00    +0.119 C 
ENDROOT
BRANCH   3   6
ATOM      6  C   UNL     1      34.014 -21.664 -17.968  0.00  0.00    +0.006 C 
ATOM      7  C   UNL     1      35.294 -21.370 -18.437  0.00  0.00    +0.001 C 
ATOM      8  C   UNL     1      32.895 -21.240 -18.683  0.00  0.00    +0.001 C 
ATOM      9  C   UNL     1      35.455 -20.652 -19.621  0.00  0.00    +0.010 C 
ATOM     10  C   UNL     1      33.055 -20.523 -19.868  0.00  0.00    +0.010 C 
ATOM     11  C   UNL     1      34.335 -20.228 -20.337  0.00  0.00    +0.068 C 
BRANCH  11  13
ATOM     12  N   UNL     1      34.633 -18.891 -22.537  0.00  0.00    -0.191 NA
ATOM     13  C   UNL     1      34.499 -19.491 -21.551  0.00  0.00    +0.100 C 
ENDBRANCH  11  13
ENDBRANCH   3   6
BRANCH   5  15
ATOM     14  O   UNL     1      36.121 -24.404 -13.344  0.00  0.00    -0.244 OA
ATOM     15  C   UNL     1      34.925 -24.051 -13.434  0.00  0.00    +0.345 C 
BRANCH  15  16
ATOM     16  O   UNL     1      34.098 -24.140 -12.343  0.00  0.00    -0.477 OA
ATOM     17  H   UNL     1      34.136 -23.487 -11.672  0.00  0.00    +0.295 HD
ENDBRANCH  15  16
ENDBRANCH   5  15
BRANCH   2  18
ATOM     18  N   UNL     1      31.945 -24.276 -14.243  0.00  0.00    -0.214 N 
ATOM     19  H   UNL     1      31.903 -25.258 -14.297  0.00  0.00    +0.174 HD
BRANCH  18  20
ATOM     20  S   UNL     1      30.785 -23.486 -13.271  0.00  0.00    +0.073 S 
ATOM     21  O   UNL     1      31.281 -22.178 -12.888  0.00  0.00    -0.150 OA
ATOM     22  O   UNL     1      30.284 -24.405 -12.268  0.00  0.00    -0.150 OA
BRANCH  20  23
ATOM     23  C   UNL     1      29.486 -23.233 -14.445  0.00  0.00    +0.121 C 
ATOM     24  C   UNL     1      28.874 -24.313 -15.061  0.00  0.00    -0.003 C 
ATOM     25  C   UNL     1      29.103 -21.931 -14.725  0.00  0.00    +0.020 C 
ATOM     26  C   UNL     1      27.853 -24.085 -15.984  0.00  0.00    -0.003 C 
ATOM     27  C   UNL     1      29.276 -25.722 -14.771  0.00  0.00    +0.032 C 
ATOM     28  C   UNL     1      28.081 -21.703 -15.648  0.00  0.00    +0.001 C 
ATOM     29  C   UNL     1      27.456 -22.780 -16.277  0.00  0.00    -0.000 C 
ENDBRANCH  20  23
ENDBRANCH  18  20
ENDBRANCH   2  18
TORSDOF 7
ENDMDL
MODEL 4
REMARK VINA RESULT:      -9.8      1.551      2.481
REMARK  Name = 9543494
REMARK  7 active torsions:
REMARK  status: ('A' for Active; 'I' for Inactive)
REMARK    1  A    between atoms: C_2  and  N_18
REMARK    2  A    between atoms: C_3  and  C_6
REMARK    3  A    between atoms: C_5  and  C_15
REMARK    4  A    between atoms: C_11  and  C_13
REMARK    5  A    between atoms: C_15  and  O_16
REMARK    6  A    between atoms: N_18  and  S_20
REMARK    7  A    between atoms: S_20  and  C_23
REMARK                            x       y       z     vdW  Elec       q    Type
REMARK                         _______ _______ _______ _____ _____    ______ ____
ROOT
ATOM      1  S   UNL     1      31.351 -22.154 -17.107  0.00  0.00    -0.079 S 
ATOM      2  C   UNL     1      33.125 -23.447 -15.773  0.00  0.00    +0.078 C 
ATOM      3  C   UNL     1      32.981 -22.043 -17.621  0.00  0.00    +0.031 C 
ATOM      4  C   UNL     1      33.826 -22.782 -16.820  0.00  0.00    +0.023 C 
ATOM      5  C   UNL     1      31.772 -23.192 -15.812  0.00  0.00    +0.119 C 
ENDROOT
BRANCH   3   6
ATOM      6  C   UNL     1      33.296 -21.235 -18.774  0.00  0.00    +0.006 C 
ATOM      7  C   UNL     1      32.272 -20.623 -19.497  0.00  0.00    +0.001 C 
ATOM      8  C   UNL     1      34.623 -21.067 -19.166  0.00  0.00    +0.001 C 
ATOM      9  C   UNL     1      32.576 -19.844 -20.613  0.00  0.00    +0.010 C 
ATOM     10  C   UNL     1      34.928 -20.287 -20.281  0.00  0.00    +0.010 C 
ATOM     11  C   UNL     1      33.904 -19.676 -21.005  0.00  0.00    +0.068 C 
BRANCH  11  13
ATOM     12  N   UNL     1      34.468 -18.227 -23.079  0.00  0.00    -0.191 NA
ATOM     13  C   UNL     1      34.216 -18.877 -22.149  0.00  0.00    +0.100 C 
ENDBRANCH  11  13
ENDBRANCH   3   6
BRANCH   5  15
ATOM     14  O   UNL     1      30.844 -24.560 -14.084  0.00  0.00    -0.244 OA
ATOM     15  C   UNL     1      30.737 -23.664 -14.948  0.00  0.00    +0.345 C 
BRANCH  15  16
ATOM     16  O   UNL     1      29.536 -23.029 -15.136  0.00  0.00    -0.477 OA
ATOM     17  H   UNL     1      29.061 -22.696 -14.400  0.00  0.00    +0.295 HD
ENDBRANCH  15  16
ENDBRANCH   5  15
BRANCH   2  18
ATOM     18  N   UNL     1      33.773 -24.261 -14.826  0.00  0.00    -0.214 N 
ATOM     19  H   UNL     1      33.219 -24.677 -14.126  0.00  0.00    +0.174 HD
BRANCH  18  20
ATOM     20  S   UNL     1      35.450 -24.581 -14.804  0.00  0.00    +0.073 S 
ATOM     21  O   UNL     1      36.145 -23.588 -15.602  0.00  0.00    -0.150 OA
ATOM     22  O   UNL     1      35.679 -25.995 -15.028  0.00  0.00    -0.150 OA
BRANCH  20  23
ATOM     23  C   UNL     1      35.828 -24.252 -13.107  0.00  0.00    +0.121 C 
ATOM     24  C   UNL     1      37.134 -24.329 -12.650  0.00  0.00    -0.003 C 
ATOM     25  C   UNL     1      34.785 -23.917 -12.259  0.00  0.00    +0.020 C 
ATOM     26  C   UNL     1      37.404 -24.065 -11.307  0.00  0.00    -0.003 C 
ATOM     27  C   UNL     1      38.268 -24.690 -13.552  0.00  0.00    +0.032 C 
ATOM     28  C   UNL     1      35.055 -23.653 -10.916  0.00  0.00    +0.001 C 
ATOM     29  C   UNL     1      36.365 -23.727 -10.440  0.00  0.00    -0.000 C 
ENDBRANCH  20  23
ENDBRANCH  18  20
ENDBRANCH   2  18
TORSDOF 7
ENDMDL
MODEL 5
REMARK VINA RESULT:      -9.6      2.134      5.216
REMARK  Name = 9543494
REMARK  7 active torsions:
REMARK  status: ('A' for Active; 'I' for Inactive)
REMARK    1  A    between atoms: C_2  and  N_18
REMARK    2  A    between atoms: C_3  and  C_6
REMARK    3  A    between atoms: C_5  and  C_15
REMARK    4  A    between atoms: C_11  and  C_13
REMARK    5  A    between atoms: C_15  and  O_16
REMARK    6  A    between atoms: N_18  and  S_20
REMARK    7  A    between atoms: S_20  and  C_23
REMARK                            x       y       z     vdW  Elec       q    Type
REMARK                         _______ _______ _______ _____ _____    ______ ____
ROOT
ATOM      1  S   UNL     1      36.046 -21.724 -16.973  0.00  0.00    -0.079 S 
ATOM      2  C   UNL     1      34.082 -23.050 -15.982  0.00  0.00    +0.078 C 
ATOM      3  C   UNL     1      34.550 -21.687 -17.807  0.00  0.00    +0.031 C 
ATOM      4  C   UNL     1      33.586 -22.438 -17.169  0.00  0.00    +0.023 C 
ATOM      5  C   UNL     1      35.406 -22.745 -15.757  0.00  0.00    +0.119 C 
ENDROOT
BRANCH   3   6
ATOM      6  C   UNL     1      34.448 -20.919 -19.024  0.00  0.00    +0.006 C 
ATOM      7  C   UNL     1      35.602 -20.460 -19.658  0.00  0.00    +0.001 C 
ATOM      8  C   UNL     1      33.195 -20.633 -19.565  0.00  0.00    +0.001 C 
ATOM      9  C   UNL     1      35.504 -19.716 -20.833  0.00  0.00    +0.010 C 
ATOM     10  C   UNL     1      33.096 -19.890 -20.741  0.00  0.00    +0.010 C 
ATOM     11  C   UNL     1      34.251 -19.431 -21.375  0.00  0.00    +0.068 C 
BRANCH  11  13
ATOM     12  N   UNL     1      34.068 -18.047 -23.558  0.00  0.00    -0.191 NA
ATOM     13  C   UNL     1      34.149 -18.668 -22.579  0.00  0.00    +0.100 C 
ENDBRANCH  11  13
ENDBRANCH   3   6
BRANCH   5  15
ATOM     14  O   UNL     1      37.090 -22.443 -14.085  0.00  0.00    -0.244 OA
ATOM     15  C   UNL     1      36.261 -23.157 -14.689  0.00  0.00    +0.345 C 
BRANCH  15  16
ATOM     16  O   UNL     1      36.104 -24.474 -14.340  0.00  0.00    -0.477 OA
ATOM     17  H   UNL     1      35.921 -24.705 -13.451  0.00  0.00    +0.295 HD
ENDBRANCH  15  16
ENDBRANCH   5  15
BRANCH   2  18
ATOM     18  N   UNL     1      33.284 -23.866 -15.159  0.00  0.00    -0.214 N 
ATOM     19  H   UNL     1      33.276 -24.833 -15.344  0.00  0.00    +0.174 HD
BRANCH  18  20
ATOM     20  S   UNL     1      32.326 -23.299 -13.865  0.00  0.00    +0.073 S 
ATOM     21  O   UNL     1      32.296 -21.849 -13.879  0.00  0.00    -0.150 OA
ATOM     22  O   UNL     1      32.674 -24.015 -12.652  0.00  0.00    -0.150 OA
BRANCH  20  23
ATOM     23  C   UNL     1      30.725 -23.863 -14.364  0.00  0.00    +0.121 C 
ATOM     24  C   UNL     1      30.094 -23.304 -15.464  0.00  0.00    -0.003 C 
ATOM     25  C   UNL     1      30.129 -24.874 -13.627  0.00  0.00    +0.020 C 
ATOM     26  C   UNL     1      28.831 -23.767 -15.835  0.00  0.00    -0.003 C 
ATOM     27  C   UNL     1      30.722 -22.213 -16.267  0.00  0.00    +0.032 C 
ATOM     28  C   UNL     1      28.866 -25.337 -13.999  0.00  0.00    +0.001 C 
ATOM     29  C   UNL     1      28.218 -24.784 -15.103  0.00  0.00    -0.000 C 
ENDBRANCH  20  23
ENDBRANCH  18  20
ENDBRANCH   2  18
TORSDOF 7
ENDMDL
MODEL 6
REMARK VINA RESULT:      -9.4     11.822     16.540
REMARK  Name = 9543494
REMARK  7 active torsions:
REMARK  status: ('A' for Active; 'I' for Inactive)
REMARK    1  A    between atoms: C_2  and  N_18
REMARK    2  A    between atoms: C_3  and  C_6
REMARK    3  A    between atoms: C_5  and  C_15
REMARK    4  A    between atoms: C_11  and  C_13
REMARK    5  A    between atoms: C_15  and  O_16
REMARK    6  A    between atoms: N_18  and  S_20
REMARK    7  A    between atoms: S_20  and  C_23
REMARK                            x       y       z     vdW  Elec       q    Type
REMARK                         _______ _______ _______ _____ _____    ______ ____
ROOT
ATOM      1  S   UNL     1      31.870 -11.876 -21.108  0.00  0.00    -0.079 S 
ATOM      2  C   UNL     1      32.413 -10.082 -22.864  0.00  0.00    +0.078 C 
ATOM      3  C   UNL     1      32.909 -12.307 -22.400  0.00  0.00    +0.031 C 
ATOM      4  C   UNL     1      33.116 -11.255 -23.267  0.00  0.00    +0.023 C 
ATOM      5  C   UNL     1      31.695 -10.282 -21.706  0.00  0.00    +0.119 C 
ENDROOT
BRANCH   3   6
ATOM      6  C   UNL     1      33.437 -13.648 -22.454  0.00  0.00    +0.006 C 
ATOM      7  C   UNL     1      33.790 -14.307 -21.277  0.00  0.00    +0.001 C 
ATOM      8  C   UNL     1      33.596 -14.285 -23.684  0.00  0.00    +0.001 C 
ATOM      9  C   UNL     1      34.302 -15.603 -21.329  0.00  0.00    +0.010 C 
ATOM     10  C   UNL     1      34.107 -15.582 -23.737  0.00  0.00    +0.010 C 
ATOM     11  C   UNL     1      34.460 -16.241 -22.559  0.00  0.00    +0.068 C 
BRANCH  11  13
ATOM     12  N   UNL     1      35.413 -18.649 -22.656  0.00  0.00    -0.191 NA
ATOM     13  C   UNL     1      34.985 -17.569 -22.614  0.00  0.00    +0.100 C 
ENDBRANCH  11  13
ENDBRANCH   3   6
BRANCH   5  15
ATOM     14  O   UNL     1      30.521  -9.464 -19.789  0.00  0.00    -0.244 OA
ATOM     15  C   UNL     1      30.869  -9.366 -20.985  0.00  0.00    +0.345 C 
BRANCH  15  16
ATOM     16  O   UNL     1      30.453  -8.297 -21.737  0.00  0.00    -0.477 OA
ATOM     17  H   UNL     1      30.163  -7.512 -21.314  0.00  0.00    +0.295 HD
ENDBRANCH  15  16
ENDBRANCH   5  15
BRANCH   2  18
ATOM     18  N   UNL     1      32.469  -8.879 -23.591  0.00  0.00    -0.214 N 
ATOM     19  H   UNL     1      31.840  -8.768 -24.340  0.00  0.00    +0.174 HD
BRANCH  18  20
ATOM     20  S   UNL     1      33.549  -7.597 -23.267  0.00  0.00    +0.073 S 
ATOM     21  O   UNL     1      34.914  -8.090 -23.303  0.00  0.00    -0.150 OA
ATOM     22  O   UNL     1      33.073  -6.835 -22.129  0.00  0.00    -0.150 OA
BRANCH  20  23
ATOM     23  C   UNL     1      33.314  -6.594 -24.705  0.00  0.00    +0.121 C 
ATOM     24  C   UNL     1      32.045  -6.171 -25.068  0.00  0.00    -0.003 C 
ATOM     25  C   UNL     1      34.430  -6.247 -25.450  0.00  0.00    +0.020 C 
ATOM     26  C   UNL     1      31.888  -5.381 -26.207  0.00  0.00    -0.003 C 
ATOM     27  C   UNL     1      30.832  -6.537 -24.277  0.00  0.00    +0.032 C 
ATOM     28  C   UNL     1      34.273  -5.458 -26.589  0.00  0.00    +0.001 C 
ATOM     29  C   UNL     1      33.002  -5.024 -26.968  0.00  0.00    -0.000 C 
ENDBRANCH  20  23
ENDBRANCH  18  20
ENDBRANCH   2  18
TORSDOF 7
ENDMDL
MODEL 7
REMARK VINA RESULT:      -9.3      4.387      9.351
REMARK  Name = 9543494
REMARK  7 active torsions:
REMARK  status: ('A' for Active; 'I' for Inactive)
REMARK    1  A    between atoms: C_2  and  N_18
REMARK    2  A    between atoms: C_3  and  C_6
REMARK    3  A    between atoms: C_5  and  C_15
REMARK    4  A    between atoms: C_11  and  C_13
REMARK    5  A    between atoms: C_15  and  O_16
REMARK    6  A    between atoms: N_18  and  S_20
REMARK    7  A    between atoms: S_20  and  C_23
REMARK                            x       y       z     vdW  Elec       q    Type
REMARK                         _______ _______ _______ _____ _____    ______ ____
ROOT
ATOM      1  S   UNL     1      33.662 -21.521 -18.004  0.00  0.00    -0.079 S 
ATOM      2  C   UNL     1      35.170 -20.541 -19.838  0.00  0.00    +0.078 C 
ATOM      3  C   UNL     1      35.355 -21.537 -17.745  0.00  0.00    +0.031 C 
ATOM      4  C   UNL     1      36.044 -20.983 -18.803  0.00  0.00    +0.023 C 
ATOM      5  C   UNL     1      33.847 -20.773 -19.533  0.00  0.00    +0.119 C 
ENDROOT
BRANCH   3   6
ATOM      6  C   UNL     1      35.868 -22.094 -16.517  0.00  0.00    +0.006 C 
ATOM      7  C   UNL     1      34.998 -22.694 -15.606  0.00  0.00    +0.001 C 
ATOM      8  C   UNL     1      37.233 -22.032 -16.240  0.00  0.00    +0.001 C 
ATOM      9  C   UNL     1      35.494 -23.230 -14.419  0.00  0.00    +0.010 C 
ATOM     10  C   UNL     1      37.729 -22.570 -15.053  0.00  0.00    +0.010 C 
ATOM     11  C   UNL     1      36.859 -23.169 -14.142  0.00  0.00    +0.068 C 
BRANCH  11  13
ATOM     12  N   UNL     1      37.781 -24.166 -11.935  0.00  0.00    -0.191 NA
ATOM     13  C   UNL     1      37.367 -23.719 -12.924  0.00  0.00    +0.100 C 
ENDBRANCH  11  13
ENDBRANCH   3   6
BRANCH   5  15
ATOM     14  O   UNL     1      32.516 -19.505 -21.064  0.00  0.00    -0.244 OA
ATOM     15  C   UNL     1      32.677 -20.480 -20.299  0.00  0.00    +0.345 C 
BRANCH  15  16
ATOM     16  O   UNL     1      31.671 -21.398 -20.133  0.00  0.00    -0.477 OA
ATOM     17  H   UNL     1      31.637 -21.920 -19.355  0.00  0.00    +0.295 HD
ENDBRANCH  15  16
ENDBRANCH   5  15
BRANCH   2  18
ATOM     18  N   UNL     1      35.640 -19.942 -21.021  0.00  0.00    -0.214 N 
ATOM     19  H   UNL     1      35.875 -20.534 -21.772  0.00  0.00    +0.174 HD
BRANCH  18  20
ATOM     20  S   UNL     1      35.831 -18.261 -21.249  0.00  0.00    +0.073 S 
ATOM     21  O   UNL     1      37.192 -17.978 -21.664  0.00  0.00    -0.150 OA
ATOM     22  O   UNL     1      35.240 -17.547 -20.134  0.00  0.00    -0.150 OA
BRANCH  20  23
ATOM     23  C   UNL     1      34.787 -17.995 -22.653  0.00  0.00    +0.121 C 
ATOM     24  C   UNL     1      34.334 -16.723 -22.962  0.00  0.00    -0.003 C 
ATOM     25  C   UNL     1      34.440 -19.092 -23.426  0.00  0.00    +0.020 C 
ATOM     26  C   UNL     1      33.511 -16.542 -24.074  0.00  0.00    -0.003 C 
ATOM     27  C   UNL     1      34.697 -15.531 -22.139  0.00  0.00    +0.032 C 
ATOM     28  C   UNL     1      33.617 -18.911 -24.538  0.00  0.00    +0.001 C 
ATOM     29  C   UNL     1      33.153 -17.636 -24.862  0.00  0.00    -0.000 C 
ENDBRANCH  20  23
ENDBRANCH  18  20
ENDBRANCH   2  18
TORSDOF 7
ENDMDL
MODEL 8
REMARK VINA RESULT:      -9.2      9.603     13.223
REMARK  Name = 9543494
REMARK  7 active torsions:
REMARK  status: ('A' for Active; 'I' for Inactive)
REMARK    1  A    between atoms: C_2  and  N_18
REMARK    2  A    between atoms: C_3  and  C_6
REMARK    3  A    between atoms: C_5  and  C_15
REMARK    4  A    between atoms: C_11  and  C_13
REMARK    5  A    between atoms: C_15  and  O_16
REMARK    6  A    between atoms: N_18  and  S_20
REMARK    7  A    between atoms: S_20  and  C_23
REMARK                            x       y       z     vdW  Elec       q    Type
REMARK                         _______ _______ _______ _____ _____    ______ ____
ROOT
ATOM      1  S   UNL     1      31.900 -11.665 -21.001  0.00  0.00    -0.079 S 
ATOM      2  C   UNL     1      33.514 -13.052 -22.438  0.00  0.00    +0.078 C 
ATOM      3  C   UNL     1      32.494 -10.963 -22.446  0.00  0.00    +0.031 C 
ATOM      4  C   UNL     1      33.347 -11.812 -23.118  0.00  0.00    +0.023 C 
ATOM      5  C   UNL     1      32.783 -13.106 -21.272  0.00  0.00    +0.119 C 
ENDROOT
BRANCH   3   6
ATOM      6  C   UNL     1      32.069  -9.630 -22.800  0.00  0.00    +0.006 C 
ATOM      7  C   UNL     1      32.986  -8.725 -23.335  0.00  0.00    +0.001 C 
ATOM      8  C   UNL     1      30.743  -9.246 -22.604  0.00  0.00    +0.001 C 
ATOM      9  C   UNL     1      32.577  -7.436 -23.675  0.00  0.00    +0.010 C 
ATOM     10  C   UNL     1      30.333  -7.957 -22.945  0.00  0.00    +0.010 C 
ATOM     11  C   UNL     1      31.250  -7.052 -23.480  0.00  0.00    +0.068 C 
BRANCH  11  13
ATOM     12  N   UNL     1      30.488  -4.657 -24.110  0.00  0.00    -0.191 NA
ATOM     13  C   UNL     1      30.830  -5.731 -23.828  0.00  0.00    +0.100 C 
ENDBRANCH  11  13
ENDBRANCH   3   6
BRANCH   5  15
ATOM     14  O   UNL     1      31.647 -14.518 -19.710  0.00  0.00    -0.244 OA
ATOM     15  C   UNL     1      32.681 -14.162 -20.316  0.00  0.00    +0.345 C 
BRANCH  15  16
ATOM     16  O   UNL     1      33.868 -14.810 -20.088  0.00  0.00    -0.477 OA
ATOM     17  H   UNL     1      33.964 -15.361 -19.336  0.00  0.00    +0.295 HD
ENDBRANCH  15  16
ENDBRANCH   5  15
BRANCH   2  18
ATOM     18  N   UNL     1      34.338 -14.081 -22.931  0.00  0.00    -0.214 N 
ATOM     19  H   UNL     1      35.273 -14.104 -22.622  0.00  0.00    +0.174 HD
BRANCH  18  20
ATOM     20  S   UNL     1      33.834 -15.291 -24.025  0.00  0.00    +0.073 S 
ATOM     21  O   UNL     1      34.661 -15.244 -25.216  0.00  0.00    -0.150 OA
ATOM     22  O   UNL     1      32.388 -15.278 -24.133  0.00  0.00    -0.150 OA
BRANCH  20  23
ATOM     23  C   UNL     1      34.279 -16.752 -23.132  0.00  0.00    +0.121 C 
ATOM     24  C   UNL     1      33.823 -17.994 -23.544  0.00  0.00    -0.003 C 
ATOM     25  C   UNL     1      35.092 -16.615 -22.018  0.00  0.00    +0.020 C 
ATOM     26  C   UNL     1      34.189 -19.130 -22.821  0.00  0.00    -0.003 C 
ATOM     27  C   UNL     1      32.946 -18.158 -24.741  0.00  0.00    +0.032 C 
ATOM     28  C   UNL     1      35.457 -17.750 -21.295  0.00  0.00    +0.001 C 
ATOM     29  C   UNL     1      35.006 -19.008 -21.696  0.00  0.00    -0.000 C 
ENDBRANCH  20  23
ENDBRANCH  18  20
ENDBRANCH   2  18
TORSDOF 7
ENDMDL
MODEL 9
REMARK VINA RESULT:      -9.1     11.743     16.101
REMARK  Name = 9543494
REMARK  7 active torsions:
REMARK  status: ('A' for Active; 'I' for Inactive)
REMARK    1  A    between atoms: C_2  and  N_18
REMARK    2  A    between atoms: C_3  and  C_6
REMARK    3  A    between atoms: C_5  and  C_15
REMARK    4  A    between atoms: C_11  and  C_13
REMARK    5  A    between atoms: C_15  and  O_16
REMARK    6  A    between atoms: N_18  and  S_20
REMARK    7  A    between atoms: S_20  and  C_23
REMARK                            x       y       z     vdW  Elec       q    Type
REMARK                         _______ _______ _______ _____ _____    ______ ____
ROOT
ATOM      1  S   UNL     1      31.784 -11.883 -21.187  0.00  0.00    -0.079 S 
ATOM      2  C   UNL     1      32.263 -10.160 -23.030  0.00  0.00    +0.078 C 
ATOM      3  C   UNL     1      32.872 -12.324 -22.435  0.00  0.00    +0.031 C 
ATOM      4  C   UNL     1      33.038 -11.311 -23.355  0.00  0.00    +0.023 C 
ATOM      5  C   UNL     1      31.534 -10.336 -21.875  0.00  0.00    +0.119 C 
ENDROOT
BRANCH   3   6
ATOM      6  C   UNL     1      33.474 -13.635 -22.406  0.00  0.00    +0.006 C 
ATOM      7  C   UNL     1      33.723 -14.261 -21.185  0.00  0.00    +0.001 C 
ATOM      8  C   UNL     1      33.808 -14.275 -23.599  0.00  0.00    +0.001 C 
ATOM      9  C   UNL     1      34.308 -15.526 -21.156  0.00  0.00    +0.010 C 
ATOM     10  C   UNL     1      34.392 -15.541 -23.571  0.00  0.00    +0.010 C 
ATOM     11  C   UNL     1      34.641 -16.167 -22.349  0.00  0.00    +0.068 C 
BRANCH  11  13
ATOM     12  N   UNL     1      35.727 -18.520 -22.298  0.00  0.00    -0.191 NA
ATOM     13  C   UNL     1      35.240 -17.465 -22.321  0.00  0.00    +0.100 C 
ENDBRANCH  11  13
ENDBRANCH   3   6
BRANCH   5  15
ATOM     14  O   UNL     1      30.629  -9.156 -20.002  0.00  0.00    -0.244 OA
ATOM     15  C   UNL     1      30.643  -9.431 -21.221  0.00  0.00    +0.345 C 
BRANCH  15  16
ATOM     16  O   UNL     1      29.743  -8.840 -22.070  0.00  0.00    -0.477 OA
ATOM     17  H   UNL     1      28.939  -8.495 -21.734  0.00  0.00    +0.295 HD
ENDBRANCH  15  16
ENDBRANCH   5  15
BRANCH   2  18
ATOM     18  N   UNL     1      32.267  -8.997 -23.821  0.00  0.00    -0.214 N 
ATOM     19  H   UNL     1      31.608  -8.938 -24.551  0.00  0.00    +0.174 HD
BRANCH  18  20
ATOM     20  S   UNL     1      33.331  -7.679 -23.607  0.00  0.00    +0.073 S 
ATOM     21  O   UNL     1      33.381  -6.891 -24.825  0.00  0.00    -0.150 OA
ATOM     22  O   UNL     1      34.555  -8.139 -22.979  0.00  0.00    -0.150 OA
BRANCH  20  23
ATOM     23  C   UNL     1      32.448  -6.731 -22.403  0.00  0.00    +0.121 C 
ATOM     24  C   UNL     1      31.292  -6.053 -22.752  0.00  0.00    -0.003 C 
ATOM     25  C   UNL     1      32.947  -6.690 -21.111  0.00  0.00    +0.020 C 
ATOM     26  C   UNL     1      30.616  -5.312 -21.782  0.00  0.00    -0.003 C 
ATOM     27  C   UNL     1      30.742  -6.086 -24.140  0.00  0.00    +0.032 C 
ATOM     28  C   UNL     1      32.271  -5.949 -20.141  0.00  0.00    +0.001 C 
ATOM     29  C   UNL     1      31.105  -5.260 -20.477  0.00  0.00    -0.000 C 
ENDBRANCH  20  23
ENDBRANCH  18  20
ENDBRANCH   2  18
TORSDOF 7
ENDMDL
