MODEL 1
REMARK VINA RESULT:     -12.3      0.000      0.000
REMARK  Name = 5287845
REMARK  0 active torsions:
REMARK  status: ('A' for Active; 'I' for Inactive)
REMARK                            x       y       z     vdW  Elec       q    Type
REMARK                         _______ _______ _______ _____ _____    ______ ____
ROOT
ATOM      1 BR   UNL     1      27.812 -22.926 -15.743  0.00  0.00    -0.049 Br
ATOM      2  O   UNL     1      31.392 -21.665 -17.908  0.00  0.00    -0.285 OA
ATOM      3  O   UNL     1      35.467 -23.723 -15.280  0.00  0.00    -0.270 OA
ATOM      4  N   UNL     1      34.858 -22.053 -17.660  0.00  0.00    -0.310 N 
ATOM      5  N   UNL     1      33.463 -24.344 -14.193  0.00  0.00    -0.280 N 
ATOM      6  C   UNL     1      33.266 -23.045 -16.067  0.00  0.00    +0.071 C 
ATOM      7  C   UNL     1      33.620 -22.333 -17.139  0.00  0.00    +0.092 C 
ATOM      8  C   UNL     1      31.925 -23.312 -15.556  0.00  0.00    +0.020 C 
ATOM      9  C   UNL     1      32.103 -24.104 -14.418  0.00  0.00    +0.051 C 
ATOM     10  C   UNL     1      33.387 -20.994 -19.071  0.00  0.00    +0.054 C 
ATOM     11  C   UNL     1      34.734 -21.266 -18.798  0.00  0.00    +0.051 C 
ATOM     12  C   UNL     1      32.600 -21.664 -18.020  0.00  0.00    +0.210 C 
ATOM     13  C   UNL     1      34.255 -23.726 -15.166  0.00  0.00    +0.251 C 
ATOM     14  C   UNL     1      30.658 -22.948 -15.971  0.00  0.00    +0.008 C 
ATOM     15  C   UNL     1      31.042 -24.558 -13.660  0.00  0.00    +0.015 C 
ATOM     16  C   UNL     1      32.971 -20.233 -20.143  0.00  0.00    +0.004 C 
ATOM     17  C   UNL     1      35.721 -20.763 -19.620  0.00  0.00    +0.015 C 
ATOM     18  C   UNL     1      29.568 -23.397 -15.218  0.00  0.00    +0.035 C 
ATOM     19  C   UNL     1      29.759 -24.194 -14.073  0.00  0.00    +0.008 C 
ATOM     20  C   UNL     1      33.969 -19.724 -20.974  0.00  0.00    +0.000 C 
ATOM     21  C   UNL     1      35.329 -19.985 -20.716  0.00  0.00    +0.001 C 
ATOM     22  H   UNL     1      35.711 -22.365 -17.283  0.00  0.00    +0.152 HD
ATOM     23  H   UNL     1      33.817 -24.878 -13.445  0.00  0.00    +0.155 HD
ENDROOT
TORSDOF 0
ENDMDL
MODEL 2
REMARK VINA RESULT:     -11.4      1.061      1.278
REMARK  Name = 5287845
REMARK  0 active torsions:
REMARK  status: ('A' for Active; 'I' for Inactive)
REMARK                            x       y       z     vdW  Elec       q    Type
REMARK                         _______ _______ _______ _____ _____    ______ ____
ROOT
ATOM      1 BR   UNL     1      27.219 -23.253 -16.897  0.00  0.00    -0.049 Br
ATOM      2  O   UNL     1      31.334 -22.143 -17.864  0.00  0.00    -0.285 OA
ATOM      3  O   UNL     1      34.284 -23.934 -13.885  0.00  0.00    -0.270 OA
ATOM      4  N   UNL     1      34.519 -22.476 -16.463  0.00  0.00    -0.310 N 
ATOM      5  N   UNL     1      32.023 -24.479 -13.467  0.00  0.00    -0.280 N 
ATOM      6  C   UNL     1      32.475 -23.346 -15.404  0.00  0.00    +0.071 C 
ATOM      7  C   UNL     1      33.173 -22.723 -16.355  0.00  0.00    +0.092 C 
ATOM      8  C   UNL     1      31.036 -23.582 -15.340  0.00  0.00    +0.020 C 
ATOM      9  C   UNL     1      30.816 -24.273 -14.145  0.00  0.00    +0.051 C 
ATOM     10  C   UNL     1      33.611 -21.554 -18.360  0.00  0.00    +0.054 C 
ATOM     11  C   UNL     1      34.789 -21.789 -17.639  0.00  0.00    +0.051 C 
ATOM     12  C   UNL     1      32.512 -22.141 -17.574  0.00  0.00    +0.210 C 
ATOM     13  C   UNL     1      33.101 -23.938 -14.174  0.00  0.00    +0.251 C 
ATOM     14  C   UNL     1      29.982 -23.266 -16.177  0.00  0.00    +0.008 C 
ATOM     15  C   UNL     1      29.558 -24.671 -13.742  0.00  0.00    +0.015 C 
ATOM     16  C   UNL     1      33.583 -20.890 -19.568  0.00  0.00    +0.004 C 
ATOM     17  C   UNL     1      36.000 -21.347 -18.130  0.00  0.00    +0.015 C 
ATOM     18  C   UNL     1      28.697 -23.660 -15.788  0.00  0.00    +0.035 C 
ATOM     19  C   UNL     1      28.487 -24.356 -14.582  0.00  0.00    +0.008 C 
ATOM     20  C   UNL     1      34.808 -20.443 -20.066  0.00  0.00    +0.000 C 
ATOM     21  C   UNL     1      36.004 -20.668 -19.355  0.00  0.00    +0.001 C 
ATOM     22  H   UNL     1      35.196 -22.747 -15.801  0.00  0.00    +0.152 HD
ATOM     23  H   UNL     1      32.103 -24.946 -12.604  0.00  0.00    +0.155 HD
ENDROOT
TORSDOF 0
ENDMDL
MODEL 3
REMARK VINA RESULT:     -11.2      2.434      3.484
REMARK  Name = 5287845
REMARK  0 active torsions:
REMARK  status: ('A' for Active; 'I' for Inactive)
REMARK                            x       y       z     vdW  Elec       q    Type
REMARK                         _______ _______ _______ _____ _____    ______ ____
ROOT
ATOM      1 BR   UNL     1      36.259 -24.533 -13.845  0.00  0.00    -0.049 Br
ATOM      2  O   UNL     1      34.893 -22.239 -17.304  0.00  0.00    -0.285 OA
ATOM      3  O   UNL     1      29.640 -22.086 -16.951  0.00  0.00    -0.270 OA
ATOM      4  N   UNL     1      31.869 -21.149 -18.677  0.00  0.00    -0.310 N 
ATOM      5  N   UNL     1      30.495 -23.310 -15.120  0.00  0.00    -0.280 N 
ATOM      6  C   UNL     1      32.019 -22.474 -16.608  0.00  0.00    +0.071 C 
ATOM      7  C   UNL     1      32.506 -21.833 -17.673  0.00  0.00    +0.092 C 
ATOM      8  C   UNL     1      32.747 -23.189 -15.566  0.00  0.00    +0.020 C 
ATOM      9  C   UNL     1      31.775 -23.676 -14.688  0.00  0.00    +0.051 C 
ATOM     10  C   UNL     1      34.101 -20.980 -19.193  0.00  0.00    +0.054 C 
ATOM     11  C   UNL     1      32.797 -20.642 -19.578  0.00  0.00    +0.051 C 
ATOM     12  C   UNL     1      33.983 -21.763 -17.950  0.00  0.00    +0.210 C 
ATOM     13  C   UNL     1      30.552 -22.564 -16.301  0.00  0.00    +0.251 C 
ATOM     14  C   UNL     1      34.089 -23.430 -15.337  0.00  0.00    +0.008 C 
ATOM     15  C   UNL     1      32.095 -24.412 -13.565  0.00  0.00    +0.015 C 
ATOM     16  C   UNL     1      35.220 -20.608 -19.906  0.00  0.00    +0.004 C 
ATOM     17  C   UNL     1      32.584 -19.901 -20.722  0.00  0.00    +0.015 C 
ATOM     18  C   UNL     1      34.436 -24.175 -14.204  0.00  0.00    +0.035 C 
ATOM     19  C   UNL     1      33.448 -24.661 -13.327  0.00  0.00    +0.008 C 
ATOM     20  C   UNL     1      35.006 -19.859 -21.063  0.00  0.00    +0.000 C 
ATOM     21  C   UNL     1      33.702 -19.509 -21.468  0.00  0.00    +0.001 C 
ATOM     22  H   UNL     1      30.894 -21.033 -18.749  0.00  0.00    +0.152 HD
ATOM     23  H   UNL     1      29.661 -23.548 -14.652  0.00  0.00    +0.155 HD
ENDROOT
TORSDOF 0
ENDMDL
MODEL 4
REMARK VINA RESULT:     -10.8      3.171      6.263
REMARK  Name = 5287845
REMARK  0 active torsions:
REMARK  status: ('A' for Active; 'I' for Inactive)
REMARK                            x       y       z     vdW  Elec       q    Type
REMARK                         _______ _______ _______ _____ _____    ______ ____
ROOT
ATOM      1 BR   UNL     1      36.297 -19.441 -20.688  0.00  0.00    -0.049 Br
ATOM      2  O   UNL     1      36.530 -21.928 -17.103  0.00  0.00    -0.285 OA
ATOM      3  O   UNL     1      31.577 -23.354 -16.013  0.00  0.00    -0.270 OA
ATOM      4  N   UNL     1      34.353 -23.690 -15.010  0.00  0.00    -0.310 N 
ATOM      5  N   UNL     1      31.575 -21.996 -17.947  0.00  0.00    -0.280 N 
ATOM      6  C   UNL     1      33.605 -22.409 -16.974  0.00  0.00    +0.071 C 
ATOM      7  C   UNL     1      34.506 -22.892 -16.116  0.00  0.00    +0.092 C 
ATOM      8  C   UNL     1      33.824 -21.561 -18.140  0.00  0.00    +0.020 C 
ATOM      9  C   UNL     1      32.560 -21.340 -18.693  0.00  0.00    +0.051 C 
ATOM     10  C   UNL     1      36.614 -23.304 -15.133  0.00  0.00    +0.054 C 
ATOM     11  C   UNL     1      35.587 -23.940 -14.423  0.00  0.00    +0.051 C 
ATOM     12  C   UNL     1      35.975 -22.598 -16.257  0.00  0.00    +0.210 C 
ATOM     13  C   UNL     1      32.132 -22.683 -16.863  0.00  0.00    +0.251 C 
ATOM     14  C   UNL     1      34.953 -21.006 -18.715  0.00  0.00    +0.008 C 
ATOM     15  C   UNL     1      32.372 -20.570 -19.824  0.00  0.00    +0.015 C 
ATOM     16  C   UNL     1      37.943 -23.381 -14.773  0.00  0.00    +0.004 C 
ATOM     17  C   UNL     1      35.882 -24.687 -13.302  0.00  0.00    +0.015 C 
ATOM     18  C   UNL     1      34.785 -20.223 -19.862  0.00  0.00    +0.035 C 
ATOM     19  C   UNL     1      33.507 -20.007 -20.411  0.00  0.00    +0.008 C 
ATOM     20  C   UNL     1      38.242 -24.137 -13.639  0.00  0.00    +0.000 C 
ATOM     21  C   UNL     1      37.223 -24.783 -12.910  0.00  0.00    +0.001 C 
ATOM     22  H   UNL     1      33.493 -24.036 -14.680  0.00  0.00    +0.152 HD
ATOM     23  H   UNL     1      30.613 -21.976 -18.156  0.00  0.00    +0.155 HD
ENDROOT
TORSDOF 0
ENDMDL
MODEL 5
REMARK VINA RESULT:     -10.7      1.291      1.746
REMARK  Name = 5287845
REMARK  0 active torsions:
REMARK  status: ('A' for Active; 'I' for Inactive)
REMARK                            x       y       z     vdW  Elec       q    Type
REMARK                         _______ _______ _______ _____ _____    ______ ____
ROOT
ATOM      1 BR   UNL     1      29.448 -23.251 -15.858  0.00  0.00    -0.049 Br
ATOM      2  O   UNL     1      32.418 -21.403 -18.476  0.00  0.00    -0.285 OA
ATOM      3  O   UNL     1      37.093 -22.331 -16.234  0.00  0.00    -0.270 OA
ATOM      4  N   UNL     1      35.890 -21.010 -18.607  0.00  0.00    -0.310 N 
ATOM      5  N   UNL     1      35.399 -23.291 -14.897  0.00  0.00    -0.280 N 
ATOM      6  C   UNL     1      34.728 -22.207 -16.797  0.00  0.00    +0.071 C 
ATOM      7  C   UNL     1      34.805 -21.514 -17.935  0.00  0.00    +0.092 C 
ATOM      8  C   UNL     1      33.540 -22.720 -16.123  0.00  0.00    +0.020 C 
ATOM      9  C   UNL     1      34.005 -23.370 -14.976  0.00  0.00    +0.051 C 
ATOM     10  C   UNL     1      34.084 -20.401 -19.890  0.00  0.00    +0.054 C 
ATOM     11  C   UNL     1      35.479 -20.353 -19.760  0.00  0.00    +0.051 C 
ATOM     12  C   UNL     1      33.578 -21.148 -18.726  0.00  0.00    +0.210 C 
ATOM     13  C   UNL     1      35.931 -22.589 -15.982  0.00  0.00    +0.251 C 
ATOM     14  C   UNL     1      32.189 -22.671 -16.408  0.00  0.00    +0.008 C 
ATOM     15  C   UNL     1      33.154 -23.987 -14.081  0.00  0.00    +0.015 C 
ATOM     16  C   UNL     1      33.403 -19.828 -20.943  0.00  0.00    +0.004 C 
ATOM     17  C   UNL     1      36.240 -19.709 -20.713  0.00  0.00    +0.015 C 
ATOM     18  C   UNL     1      31.308 -23.290 -15.514  0.00  0.00    +0.035 C 
ATOM     19  C   UNL     1      31.787 -23.941 -14.362  0.00  0.00    +0.008 C 
ATOM     20  C   UNL     1      34.173 -19.176 -21.907  0.00  0.00    +0.000 C 
ATOM     21  C   UNL     1      35.576 -19.116 -21.794  0.00  0.00    +0.001 C 
ATOM     22  H   UNL     1      36.825 -21.101 -18.315  0.00  0.00    +0.152 HD
ATOM     23  H   UNL     1      35.937 -23.681 -14.169  0.00  0.00    +0.155 HD
ENDROOT
TORSDOF 0
ENDMDL
MODEL 6
REMARK VINA RESULT:     -10.6      2.835      6.066
REMARK  Name = 5287845
REMARK  0 active torsions:
REMARK  status: ('A' for Active; 'I' for Inactive)
REMARK                            x       y       z     vdW  Elec       q    Type
REMARK                         _______ _______ _______ _____ _____    ______ ____
ROOT
ATOM      1 BR   UNL     1      35.100 -20.910 -19.501  0.00  0.00    -0.049 Br
ATOM      2  O   UNL     1      32.198 -22.700 -16.769  0.00  0.00    -0.285 OA
ATOM      3  O   UNL     1      34.839 -23.725 -12.328  0.00  0.00    -0.270 OA
ATOM      4  N   UNL     1      32.124 -23.966 -13.511  0.00  0.00    -0.310 N 
ATOM      5  N   UNL     1      36.318 -22.748 -13.890  0.00  0.00    -0.280 N 
ATOM      6  C   UNL     1      34.151 -23.045 -14.562  0.00  0.00    +0.071 C 
ATOM      7  C   UNL     1      32.863 -23.392 -14.515  0.00  0.00    +0.092 C 
ATOM      8  C   UNL     1      34.888 -22.434 -15.663  0.00  0.00    +0.020 C 
ATOM      9  C   UNL     1      36.198 -22.276 -15.202  0.00  0.00    +0.051 C 
ATOM     10  C   UNL     1      30.632 -23.686 -15.234  0.00  0.00    +0.054 C 
ATOM     11  C   UNL     1      30.809 -24.143 -13.921  0.00  0.00    +0.051 C 
ATOM     12  C   UNL     1      31.940 -23.180 -15.685  0.00  0.00    +0.210 C 
ATOM     13  C   UNL     1      35.099 -23.242 -13.414  0.00  0.00    +0.251 C 
ATOM     14  C   UNL     1      34.536 -22.036 -16.939  0.00  0.00    +0.008 C 
ATOM     15  C   UNL     1      37.194 -21.723 -15.981  0.00  0.00    +0.015 C 
ATOM     16  C   UNL     1      29.424 -23.741 -15.897  0.00  0.00    +0.004 C 
ATOM     17  C   UNL     1      29.746 -24.682 -13.227  0.00  0.00    +0.015 C 
ATOM     18  C   UNL     1      35.530 -21.472 -17.746  0.00  0.00    +0.035 C 
ATOM     19  C   UNL     1      36.846 -21.317 -17.271  0.00  0.00    +0.008 C 
ATOM     20  C   UNL     1      28.348 -24.286 -15.196  0.00  0.00    +0.000 C 
ATOM     21  C   UNL     1      28.507 -24.752 -13.876  0.00  0.00    +0.001 C 
ATOM     22  H   UNL     1      32.476 -24.215 -12.626  0.00  0.00    +0.152 HD
ATOM     23  H   UNL     1      37.154 -22.734 -13.368  0.00  0.00    +0.155 HD
ENDROOT
TORSDOF 0
ENDMDL
MODEL 7
REMARK VINA RESULT:     -10.6      2.126      5.920
REMARK  Name = 5287845
REMARK  0 active torsions:
REMARK  status: ('A' for Active; 'I' for Inactive)
REMARK                            x       y       z     vdW  Elec       q    Type
REMARK                         _______ _______ _______ _____ _____    ______ ____
ROOT
ATOM      1 BR   UNL     1      33.466 -20.160 -20.628  0.00  0.00    -0.049 Br
ATOM      2  O   UNL     1      31.417 -22.278 -17.402  0.00  0.00    -0.285 OA
ATOM      3  O   UNL     1      35.174 -23.696 -13.993  0.00  0.00    -0.270 OA
ATOM      4  N   UNL     1      32.236 -23.871 -14.399  0.00  0.00    -0.310 N 
ATOM      5  N   UNL     1      36.172 -22.536 -15.793  0.00  0.00    -0.280 N 
ATOM      6  C   UNL     1      33.900 -22.807 -15.867  0.00  0.00    +0.071 C 
ATOM      7  C   UNL     1      32.673 -23.183 -15.503  0.00  0.00    +0.092 C 
ATOM      8  C   UNL     1      34.310 -22.072 -17.060  0.00  0.00    +0.020 C 
ATOM      9  C   UNL     1      35.698 -21.935 -16.964  0.00  0.00    +0.051 C 
ATOM     10  C   UNL     1      30.328 -23.447 -15.605  0.00  0.00    +0.054 C 
ATOM     11  C   UNL     1      30.857 -24.032 -14.447  0.00  0.00    +0.051 C 
ATOM     12  C   UNL     1      31.464 -22.871 -16.344  0.00  0.00    +0.210 C 
ATOM     13  C   UNL     1      35.127 -23.100 -15.053  0.00  0.00    +0.251 C 
ATOM     14  C   UNL     1      33.622 -21.553 -18.140  0.00  0.00    +0.008 C 
ATOM     15  C   UNL     1      36.444 -21.285 -17.926  0.00  0.00    +0.015 C 
ATOM     16  C   UNL     1      28.983 -23.458 -15.911  0.00  0.00    +0.004 C 
ATOM     17  C   UNL     1      30.023 -24.661 -13.546  0.00  0.00    +0.015 C 
ATOM     18  C   UNL     1      34.359 -20.890 -19.128  0.00  0.00    +0.035 C 
ATOM     19  C   UNL     1      35.756 -20.758 -19.021  0.00  0.00    +0.008 C 
ATOM     20  C   UNL     1      28.138 -24.094 -15.000  0.00  0.00    +0.000 C 
ATOM     21  C   UNL     1      28.652 -24.689 -13.831  0.00  0.00    +0.001 C 
ATOM     22  H   UNL     1      32.816 -24.202 -13.676  0.00  0.00    +0.152 HD
ATOM     23  H   UNL     1      37.119 -22.558 -15.523  0.00  0.00    +0.155 HD
ENDROOT
TORSDOF 0
ENDMDL
MODEL 8
REMARK VINA RESULT:     -10.5      2.797      3.980
REMARK  Name = 5287845
REMARK  0 active torsions:
REMARK  status: ('A' for Active; 'I' for Inactive)
REMARK                            x       y       z     vdW  Elec       q    Type
REMARK                         _______ _______ _______ _____ _____    ______ ____
ROOT
ATOM      1 BR   UNL     1      38.346 -23.951 -14.386  0.00  0.00    -0.049 Br
ATOM      2  O   UNL     1      35.939 -22.008 -17.472  0.00  0.00    -0.285 OA
ATOM      3  O   UNL     1      30.917 -22.822 -16.108  0.00  0.00    -0.270 OA
ATOM      4  N   UNL     1      32.558 -21.519 -18.214  0.00  0.00    -0.310 N 
ATOM      5  N   UNL     1      32.320 -23.836 -14.500  0.00  0.00    -0.280 N 
ATOM      6  C   UNL     1      33.346 -22.758 -16.239  0.00  0.00    +0.071 C 
ATOM      7  C   UNL     1      33.492 -22.056 -17.364  0.00  0.00    +0.092 C 
ATOM      8  C   UNL     1      34.382 -23.308 -15.370  0.00  0.00    +0.020 C 
ATOM      9  C   UNL     1      33.704 -23.952 -14.331  0.00  0.00    +0.051 C 
ATOM     10  C   UNL     1      34.577 -20.950 -19.147  0.00  0.00    +0.054 C 
ATOM     11  C   UNL     1      33.184 -20.864 -19.267  0.00  0.00    +0.051 C 
ATOM     12  C   UNL     1      34.849 -21.719 -17.920  0.00  0.00    +0.210 C 
ATOM     13  C   UNL     1      32.009 -23.112 -15.656  0.00  0.00    +0.251 C 
ATOM     14  C   UNL     1      35.764 -23.293 -15.409  0.00  0.00    +0.008 C 
ATOM     15  C   UNL     1      34.365 -24.597 -13.305  0.00  0.00    +0.015 C 
ATOM     16  C   UNL     1      35.450 -20.389 -20.056  0.00  0.00    +0.004 C 
ATOM     17  C   UNL     1      32.621 -20.195 -20.334  0.00  0.00    +0.015 C 
ATOM     18  C   UNL     1      36.454 -23.941 -14.380  0.00  0.00    +0.035 C 
ATOM     19  C   UNL     1      35.762 -24.587 -13.338  0.00  0.00    +0.008 C 
ATOM     20  C   UNL     1      34.882 -19.712 -21.135  0.00  0.00    +0.000 C 
ATOM     21  C   UNL     1      33.483 -19.616 -21.274  0.00  0.00    +0.001 C 
ATOM     22  H   UNL     1      31.583 -21.586 -18.094  0.00  0.00    +0.152 HD
ATOM     23  H   UNL     1      31.651 -24.215 -13.885  0.00  0.00    +0.155 HD
ENDROOT
TORSDOF 0
ENDMDL
MODEL 9
REMARK VINA RESULT:     -10.4      3.186      4.482
REMARK  Name = 5287845
REMARK  0 active torsions:
REMARK  status: ('A' for Active; 'I' for Inactive)
REMARK                            x       y       z     vdW  Elec       q    Type
REMARK                         _______ _______ _______ _____ _____    ______ ____
ROOT
ATOM      1 BR   UNL     1      39.438 -23.913 -14.339  0.00  0.00    -0.049 Br
ATOM      2  O   UNL     1      36.469 -22.232 -17.069  0.00  0.00    -0.285 OA
ATOM      3  O   UNL     1      31.772 -23.458 -15.025  0.00  0.00    -0.270 OA
ATOM      4  N   UNL     1      32.989 -22.048 -17.340  0.00  0.00    -0.310 N 
ATOM      5  N   UNL     1      33.466 -24.322 -13.623  0.00  0.00    -0.280 N 
ATOM      6  C   UNL     1      34.146 -23.185 -15.489  0.00  0.00    +0.071 C 
ATOM      7  C   UNL     1      34.074 -22.490 -16.626  0.00  0.00    +0.092 C 
ATOM      8  C   UNL     1      35.335 -23.630 -14.770  0.00  0.00    +0.020 C 
ATOM      9  C   UNL     1      34.865 -24.315 -13.645  0.00  0.00    +0.051 C 
ATOM     10  C   UNL     1      34.804 -21.320 -18.544  0.00  0.00    +0.054 C 
ATOM     11  C   UNL     1      33.405 -21.358 -18.471  0.00  0.00    +0.051 C 
ATOM     12  C   UNL     1      35.307 -22.045 -17.364  0.00  0.00    +0.210 C 
ATOM     13  C   UNL     1      32.937 -23.645 -14.727  0.00  0.00    +0.251 C 
ATOM     14  C   UNL     1      36.692 -23.497 -14.999  0.00  0.00    +0.008 C 
ATOM     15  C   UNL     1      35.715 -24.885 -12.719  0.00  0.00    +0.015 C 
ATOM     16  C   UNL     1      35.491 -20.699 -19.566  0.00  0.00    +0.004 C 
ATOM     17  C   UNL     1      32.645 -20.756 -19.452  0.00  0.00    +0.015 C 
ATOM     18  C   UNL     1      37.571 -24.067 -14.072  0.00  0.00    +0.035 C 
ATOM     19  C   UNL     1      37.087 -24.755 -12.944  0.00  0.00    +0.008 C 
ATOM     20  C   UNL     1      34.723 -20.090 -20.558  0.00  0.00    +0.000 C 
ATOM     21  C   UNL     1      33.315 -20.118 -20.503  0.00  0.00    +0.001 C 
ATOM     22  H   UNL     1      32.049 -22.199 -17.087  0.00  0.00    +0.152 HD
ATOM     23  H   UNL     1      32.924 -24.749 -12.920  0.00  0.00    +0.155 HD
ENDROOT
TORSDOF 0
ENDMDL
