MODEL 1
REMARK VINA RESULT:     -12.0      0.000      0.000
REMARK  Name = 11267350
REMARK  6 active torsions:
REMARK  status: ('A' for Active; 'I' for Inactive)
REMARK    1  A    between atoms: CA_5  and  CB_11
REMARK    2  A    between atoms: CA_6  and  CB_20
REMARK    3  A    between atoms: CB_11  and  CG_12
REMARK    4  A    between atoms: CZ_17  and  OH_18
REMARK    5  A    between atoms: CB_20  and  CG_21
REMARK    6  A    between atoms: CZ_26  and  OH_27
REMARK                            x       y       z     vdW  Elec       q    Type
REMARK                         _______ _______ _______ _____ _____    ______ ____
ROOT
ATOM      1  O   TYR A   2      36.779 -18.300 -20.288  0.00  0.00    -0.273 OA
ATOM      2  O   TYR A   1      33.345 -18.276 -24.317  0.00  0.00    -0.273 OA
ATOM      3  N   TYR A   1      35.660 -17.155 -21.942  0.00  0.00    -0.297 N 
ATOM      4  N   TYR A   2      34.253 -19.330 -22.483  0.00  0.00    -0.297 N 
ATOM      5  CA  TYR A   1      34.388 -16.908 -22.606  0.00  0.00    +0.153 C 
ATOM      6  CA  TYR A   2      34.679 -19.210 -21.096  0.00  0.00    +0.153 C 
ATOM      7  C   TYR A   2      35.838 -18.223 -21.074  0.00  0.00    +0.241 C 
ATOM      8  C   TYR A   1      33.972 -18.217 -23.261  0.00  0.00    +0.241 C 
ATOM      9  H   TYR A   1      36.415 -16.548 -22.113  0.00  0.00    +0.150 HD
ATOM     10  H   TYR A   2      34.163 -20.226 -22.880  0.00  0.00    +0.150 HD
ENDROOT
BRANCH   5  11
ATOM     11  CB  TYR A   1      34.504 -15.778 -23.616  0.00  0.00    +0.055 C 
BRANCH  11  12
ATOM     12  CG  TYR A   1      33.780 -14.539 -23.157  0.00  0.00    -0.020 C 
ATOM     13  CD1 TYR A   1      33.129 -13.744 -24.090  0.00  0.00    -0.001 C 
ATOM     14  CD2 TYR A   1      33.773 -14.213 -21.809  0.00  0.00    -0.001 C 
ATOM     15  CE1 TYR A   1      32.459 -12.597 -23.665  0.00  0.00    +0.036 C 
ATOM     16  CE2 TYR A   1      33.103 -13.066 -21.384  0.00  0.00    +0.036 C 
ATOM     17  CZ  TYR A   1      32.445 -12.258 -22.313  0.00  0.00    +0.134 C 
BRANCH  17  18
ATOM     18  OH  TYR A   1      31.790 -11.138 -21.898  0.00  0.00    -0.506 OA
ATOM     19  HH  TYR A   1      30.952 -11.212 -21.485  0.00  0.00    +0.292 HD
ENDBRANCH  17  18
ENDBRANCH  11  12
ENDBRANCH   5  11
BRANCH   6  20
ATOM     20  CB  TYR A   2      35.073 -20.561 -20.522  0.00  0.00    +0.055 C 
BRANCH  20  21
ATOM     21  CG  TYR A   2      34.068 -21.057 -19.514  0.00  0.00    -0.020 C 
ATOM     22  CD1 TYR A   2      32.746 -20.647 -19.610  0.00  0.00    -0.001 C 
ATOM     23  CD2 TYR A   2      34.480 -21.915 -18.507  0.00  0.00    -0.001 C 
ATOM     24  CE1 TYR A   2      31.816 -21.106 -18.677  0.00  0.00    +0.036 C 
ATOM     25  CE2 TYR A   2      33.550 -22.374 -17.573  0.00  0.00    +0.036 C 
ATOM     26  CZ  TYR A   2      32.219 -21.970 -17.659  0.00  0.00    +0.134 C 
BRANCH  26  27
ATOM     27  OH  TYR A   2      31.310 -22.416 -16.748  0.00  0.00    -0.506 OA
ATOM     28  HH  TYR A   2      31.602 -22.797 -15.944  0.00  0.00    +0.292 HD
ENDBRANCH  26  27
ENDBRANCH  20  21
ENDBRANCH   6  20
TORSDOF 6
ENDMDL
MODEL 2
REMARK VINA RESULT:     -12.0      0.042      7.935
REMARK  Name = 11267350
REMARK  6 active torsions:
REMARK  status: ('A' for Active; 'I' for Inactive)
REMARK    1  A    between atoms: CA_5  and  CB_11
REMARK    2  A    between atoms: CA_6  and  CB_20
REMARK    3  A    between atoms: CB_11  and  CG_12
REMARK    4  A    between atoms: CZ_17  and  OH_18
REMARK    5  A    between atoms: CB_20  and  CG_21
REMARK    6  A    between atoms: CZ_26  and  OH_27
REMARK                            x       y       z     vdW  Elec       q    Type
REMARK                         _______ _______ _______ _____ _____    ______ ____
ROOT
ATOM      1  O   TYR A   2      33.392 -18.305 -24.307  0.00  0.00    -0.273 OA
ATOM      2  O   TYR A   1      36.778 -18.322 -20.238  0.00  0.00    -0.273 OA
ATOM      3  N   TYR A   1      34.281 -19.357 -22.462  0.00  0.00    -0.297 N 
ATOM      4  N   TYR A   2      35.676 -17.179 -21.905  0.00  0.00    -0.297 N 
ATOM      5  CA  TYR A   1      34.690 -19.235 -21.070  0.00  0.00    +0.153 C 
ATOM      6  CA  TYR A   2      34.412 -16.935 -22.584  0.00  0.00    +0.153 C 
ATOM      7  C   TYR A   2      34.005 -18.245 -23.244  0.00  0.00    +0.241 C 
ATOM      8  C   TYR A   1      35.846 -18.246 -21.036  0.00  0.00    +0.241 C 
ATOM      9  H   TYR A   1      34.197 -20.253 -22.860  0.00  0.00    +0.150 HD
ATOM     10  H   TYR A   2      36.432 -16.571 -22.068  0.00  0.00    +0.150 HD
ENDROOT
BRANCH   5  11
ATOM     11  CB  TYR A   1      35.079 -20.586 -20.491  0.00  0.00    +0.055 C 
BRANCH  11  12
ATOM     12  CG  TYR A   1      34.071 -21.077 -19.485  0.00  0.00    -0.020 C 
ATOM     13  CD1 TYR A   1      32.748 -20.675 -19.592  0.00  0.00    -0.001 C 
ATOM     14  CD2 TYR A   1      34.481 -21.924 -18.466  0.00  0.00    -0.001 C 
ATOM     15  CE1 TYR A   1      31.815 -21.129 -18.661  0.00  0.00    +0.036 C 
ATOM     16  CE2 TYR A   1      33.548 -22.379 -17.534  0.00  0.00    +0.036 C 
ATOM     17  CZ  TYR A   1      32.215 -21.982 -17.632  0.00  0.00    +0.134 C 
BRANCH  17  18
ATOM     18  OH  TYR A   1      31.303 -22.425 -16.722  0.00  0.00    -0.506 OA
ATOM     19  HH  TYR A   1      30.579 -21.881 -16.482  0.00  0.00    +0.292 HD
ENDBRANCH  17  18
ENDBRANCH  11  12
ENDBRANCH   5  11
BRANCH   6  20
ATOM     20  CB  TYR A   2      34.538 -15.805 -23.593  0.00  0.00    +0.055 C 
BRANCH  20  21
ATOM     21  CG  TYR A   2      33.808 -14.566 -23.142  0.00  0.00    -0.020 C 
ATOM     22  CD1 TYR A   2      33.819 -14.218 -21.798  0.00  0.00    -0.001 C 
ATOM     23  CD2 TYR A   2      33.138 -13.792 -24.076  0.00  0.00    -0.001 C 
ATOM     24  CE1 TYR A   2      33.143 -13.071 -21.381  0.00  0.00    +0.036 C 
ATOM     25  CE2 TYR A   2      32.463 -12.645 -23.659  0.00  0.00    +0.036 C 
ATOM     26  CZ  TYR A   2      32.466 -12.285 -22.312  0.00  0.00    +0.134 C 
BRANCH  26  27
ATOM     27  OH  TYR A   2      31.806 -11.166 -21.903  0.00  0.00    -0.506 OA
ATOM     28  HH  TYR A   2      31.721 -10.980 -20.989  0.00  0.00    +0.292 HD
ENDBRANCH  26  27
ENDBRANCH  20  21
ENDBRANCH   6  20
TORSDOF 6
ENDMDL
MODEL 3
REMARK VINA RESULT:     -11.7      1.515      2.391
REMARK  Name = 11267350
REMARK  6 active torsions:
REMARK  status: ('A' for Active; 'I' for Inactive)
REMARK    1  A    between atoms: CA_5  and  CB_11
REMARK    2  A    between atoms: CA_6  and  CB_20
REMARK    3  A    between atoms: CB_11  and  CG_12
REMARK    4  A    between atoms: CZ_17  and  OH_18
REMARK    5  A    between atoms: CB_20  and  CG_21
REMARK    6  A    between atoms: CZ_26  and  OH_27
REMARK                            x       y       z     vdW  Elec       q    Type
REMARK                         _______ _______ _______ _____ _____    ______ ____
ROOT
ATOM      1  O   TYR A   2      34.968 -16.481 -20.203  0.00  0.00    -0.273 OA
ATOM      2  O   TYR A   1      34.206 -15.776 -25.394  0.00  0.00    -0.273 OA
ATOM      3  N   TYR A   1      34.247 -15.164 -21.948  0.00  0.00    -0.297 N 
ATOM      4  N   TYR A   2      34.648 -17.174 -23.620  0.00  0.00    -0.297 N 
ATOM      5  CA  TYR A   1      33.480 -15.090 -23.182  0.00  0.00    +0.153 C 
ATOM      6  CA  TYR A   2      34.295 -17.571 -22.264  0.00  0.00    +0.153 C 
ATOM      7  C   TYR A   2      34.585 -16.376 -21.365  0.00  0.00    +0.241 C 
ATOM      8  C   TYR A   1      34.173 -16.001 -24.186  0.00  0.00    +0.241 C 
ATOM      9  H   TYR A   1      34.535 -14.329 -21.513  0.00  0.00    +0.150 HD
ATOM     10  H   TYR A   2      35.241 -17.754 -24.149  0.00  0.00    +0.150 HD
ENDROOT
BRANCH   5  11
ATOM     11  CB  TYR A   1      33.382 -13.659 -23.686  0.00  0.00    +0.055 C 
BRANCH  11  12
ATOM     12  CG  TYR A   1      32.706 -12.758 -22.686  0.00  0.00    -0.020 C 
ATOM     13  CD1 TYR A   1      32.427 -11.443 -23.031  0.00  0.00    -0.001 C 
ATOM     14  CD2 TYR A   1      32.372 -13.256 -21.435  0.00  0.00    -0.001 C 
ATOM     15  CE1 TYR A   1      31.801 -10.609 -22.104  0.00  0.00    +0.036 C 
ATOM     16  CE2 TYR A   1      31.746 -12.422 -20.509  0.00  0.00    +0.036 C 
ATOM     17  CZ  TYR A   1      31.461 -11.098 -20.844  0.00  0.00    +0.134 C 
BRANCH  17  18
ATOM     18  OH  TYR A   1      30.850 -10.283 -19.940  0.00  0.00    -0.506 OA
ATOM     19  HH  TYR A   1      31.056  -9.369 -19.919  0.00  0.00    +0.292 HD
ENDBRANCH  17  18
ENDBRANCH  11  12
ENDBRANCH   5  11
BRANCH   6  20
ATOM     20  CB  TYR A   2      35.069 -18.807 -21.833  0.00  0.00    +0.055 C 
BRANCH  20  21
ATOM     21  CG  TYR A   2      34.281 -19.652 -20.866  0.00  0.00    -0.020 C 
ATOM     22  CD1 TYR A   2      34.952 -20.496 -19.992  0.00  0.00    -0.001 C 
ATOM     23  CD2 TYR A   2      32.897 -19.572 -20.862  0.00  0.00    -0.001 C 
ATOM     24  CE1 TYR A   2      34.222 -21.278 -19.097  0.00  0.00    +0.036 C 
ATOM     25  CE2 TYR A   2      32.167 -20.355 -19.967  0.00  0.00    +0.036 C 
ATOM     26  CZ  TYR A   2      32.830 -21.207 -19.084  0.00  0.00    +0.134 C 
BRANCH  26  27
ATOM     27  OH  TYR A   2      32.119 -21.972 -18.211  0.00  0.00    -0.506 OA
ATOM     28  HH  TYR A   2      32.483 -22.192 -17.376  0.00  0.00    +0.292 HD
ENDBRANCH  26  27
ENDBRANCH  20  21
ENDBRANCH   6  20
TORSDOF 6
ENDMDL
MODEL 4
REMARK VINA RESULT:     -10.6      3.111      5.792
REMARK  Name = 11267350
REMARK  6 active torsions:
REMARK  status: ('A' for Active; 'I' for Inactive)
REMARK    1  A    between atoms: CA_5  and  CB_11
REMARK    2  A    between atoms: CA_6  and  CB_20
REMARK    3  A    between atoms: CB_11  and  CG_12
REMARK    4  A    between atoms: CZ_17  and  OH_18
REMARK    5  A    between atoms: CB_20  and  CG_21
REMARK    6  A    between atoms: CZ_26  and  OH_27
REMARK                            x       y       z     vdW  Elec       q    Type
REMARK                         _______ _______ _______ _____ _____    ______ ____
ROOT
ATOM      1  O   TYR A   2      32.823 -13.581 -25.305  0.00  0.00    -0.273 OA
ATOM      2  O   TYR A   1      32.147 -13.793 -20.058  0.00  0.00    -0.273 OA
ATOM      3  N   TYR A   1      31.901 -12.717 -23.380  0.00  0.00    -0.297 N 
ATOM      4  N   TYR A   2      33.282 -14.459 -21.947  0.00  0.00    -0.297 N 
ATOM      5  CA  TYR A   1      32.116 -12.329 -21.994  0.00  0.00    +0.153 C 
ATOM      6  CA  TYR A   2      33.919 -14.055 -23.192  0.00  0.00    +0.153 C 
ATOM      7  C   TYR A   2      32.825 -13.479 -24.081  0.00  0.00    +0.241 C 
ATOM      8  C   TYR A   1      32.463 -13.600 -21.231  0.00  0.00    +0.241 C 
ATOM      9  H   TYR A   1      31.077 -12.430 -23.835  0.00  0.00    +0.150 HD
ATOM     10  H   TYR A   2      33.437 -15.368 -21.604  0.00  0.00    +0.150 HD
ENDROOT
BRANCH   5  11
ATOM     11  CB  TYR A   1      30.891 -11.637 -21.419  0.00  0.00    +0.055 C 
BRANCH  11  12
ATOM     12  CG  TYR A   1      31.222 -10.271 -20.876  0.00  0.00    -0.020 C 
ATOM     13  CD1 TYR A   1      31.331 -10.090 -19.505  0.00  0.00    -0.001 C 
ATOM     14  CD2 TYR A   1      31.414  -9.216 -21.755  0.00  0.00    -0.001 C 
ATOM     15  CE1 TYR A   1      31.637  -8.825 -19.002  0.00  0.00    +0.036 C 
ATOM     16  CE2 TYR A   1      31.720  -7.951 -21.253  0.00  0.00    +0.036 C 
ATOM     17  CZ  TYR A   1      31.832  -7.756 -19.876  0.00  0.00    +0.134 C 
BRANCH  17  18
ATOM     18  OH  TYR A   1      32.131  -6.521 -19.385  0.00  0.00    -0.506 OA
ATOM     19  HH  TYR A   1      31.668  -5.769 -19.699  0.00  0.00    +0.292 HD
ENDBRANCH  17  18
ENDBRANCH  11  12
ENDBRANCH   5  11
BRANCH   6  20
ATOM     20  CB  TYR A   2      34.630 -15.225 -23.853  0.00  0.00    +0.055 C 
BRANCH  20  21
ATOM     21  CG  TYR A   2      34.538 -16.479 -23.022  0.00  0.00    -0.020 C 
ATOM     22  CD1 TYR A   2      33.985 -17.625 -23.575  0.00  0.00    -0.001 C 
ATOM     23  CD2 TYR A   2      35.007 -16.468 -21.717  0.00  0.00    -0.001 C 
ATOM     24  CE1 TYR A   2      33.900 -18.786 -22.805  0.00  0.00    +0.036 C 
ATOM     25  CE2 TYR A   2      34.922 -17.628 -20.948  0.00  0.00    +0.036 C 
ATOM     26  CZ  TYR A   2      34.368 -18.787 -21.492  0.00  0.00    +0.134 C 
BRANCH  26  27
ATOM     27  OH  TYR A   2      34.283 -19.920 -20.742  0.00  0.00    -0.506 OA
ATOM     28  HH  TYR A   2      33.817 -19.910 -19.930  0.00  0.00    +0.292 HD
ENDBRANCH  26  27
ENDBRANCH  20  21
ENDBRANCH   6  20
TORSDOF 6
ENDMDL
MODEL 5
REMARK VINA RESULT:     -10.6      3.106      8.702
REMARK  Name = 11267350
REMARK  6 active torsions:
REMARK  status: ('A' for Active; 'I' for Inactive)
REMARK    1  A    between atoms: CA_5  and  CB_11
REMARK    2  A    between atoms: CA_6  and  CB_20
REMARK    3  A    between atoms: CB_11  and  CG_12
REMARK    4  A    between atoms: CZ_17  and  OH_18
REMARK    5  A    between atoms: CB_20  and  CG_21
REMARK    6  A    between atoms: CZ_26  and  OH_27
REMARK                            x       y       z     vdW  Elec       q    Type
REMARK                         _______ _______ _______ _____ _____    ______ ____
ROOT
ATOM      1  O   TYR A   2      32.137 -13.800 -20.086  0.00  0.00    -0.273 OA
ATOM      2  O   TYR A   1      32.837 -13.607 -25.330  0.00  0.00    -0.273 OA
ATOM      3  N   TYR A   1      33.280 -14.474 -21.968  0.00  0.00    -0.297 N 
ATOM      4  N   TYR A   2      31.907 -12.735 -23.413  0.00  0.00    -0.297 N 
ATOM      5  CA  TYR A   1      33.923 -14.075 -23.211  0.00  0.00    +0.153 C 
ATOM      6  CA  TYR A   2      32.116 -12.344 -22.027  0.00  0.00    +0.153 C 
ATOM      7  C   TYR A   2      32.458 -13.612 -21.256  0.00  0.00    +0.241 C 
ATOM      8  C   TYR A   1      32.833 -13.501 -24.105  0.00  0.00    +0.241 C 
ATOM      9  H   TYR A   1      33.432 -15.382 -21.621  0.00  0.00    +0.150 HD
ATOM     10  H   TYR A   2      31.085 -12.450 -23.872  0.00  0.00    +0.150 HD
ENDROOT
BRANCH   5  11
ATOM     11  CB  TYR A   1      34.636 -15.247 -23.864  0.00  0.00    +0.055 C 
BRANCH  11  12
ATOM     12  CG  TYR A   1      34.544 -16.497 -23.027  0.00  0.00    -0.020 C 
ATOM     13  CD1 TYR A   1      33.981 -17.643 -23.569  0.00  0.00    -0.001 C 
ATOM     14  CD2 TYR A   1      35.025 -16.482 -21.726  0.00  0.00    -0.001 C 
ATOM     15  CE1 TYR A   1      33.897 -18.799 -22.793  0.00  0.00    +0.036 C 
ATOM     16  CE2 TYR A   1      34.941 -17.638 -20.950  0.00  0.00    +0.036 C 
ATOM     17  CZ  TYR A   1      34.377 -18.797 -21.484  0.00  0.00    +0.134 C 
BRANCH  17  18
ATOM     18  OH  TYR A   1      34.294 -19.926 -20.727  0.00  0.00    -0.506 OA
ATOM     19  HH  TYR A   1      34.672 -20.726 -21.037  0.00  0.00    +0.292 HD
ENDBRANCH  17  18
ENDBRANCH  11  12
ENDBRANCH   5  11
BRANCH   6  20
ATOM     20  CB  TYR A   2      30.889 -11.648 -21.459  0.00  0.00    +0.055 C 
BRANCH  20  21
ATOM     21  CG  TYR A   2      31.222 -10.288 -20.904  0.00  0.00    -0.020 C 
ATOM     22  CD1 TYR A   2      31.411  -9.223 -21.774  0.00  0.00    -0.001 C 
ATOM     23  CD2 TYR A   2      31.334 -10.120 -19.533  0.00  0.00    -0.001 C 
ATOM     24  CE1 TYR A   2      31.720  -7.963 -21.259  0.00  0.00    +0.036 C 
ATOM     25  CE2 TYR A   2      31.642  -8.860 -19.018  0.00  0.00    +0.036 C 
ATOM     26  CZ  TYR A   2      31.835  -7.782 -19.882  0.00  0.00    +0.134 C 
BRANCH  26  27
ATOM     27  OH  TYR A   2      32.137  -6.553 -19.381  0.00  0.00    -0.506 OA
ATOM     28  HH  TYR A   2      31.450  -5.962 -19.144  0.00  0.00    +0.292 HD
ENDBRANCH  26  27
ENDBRANCH  20  21
ENDBRANCH   6  20
TORSDOF 6
ENDMDL
MODEL 6
REMARK VINA RESULT:     -10.5      1.726      2.822
REMARK  Name = 11267350
REMARK  6 active torsions:
REMARK  status: ('A' for Active; 'I' for Inactive)
REMARK    1  A    between atoms: CA_5  and  CB_11
REMARK    2  A    between atoms: CA_6  and  CB_20
REMARK    3  A    between atoms: CB_11  and  CG_12
REMARK    4  A    between atoms: CZ_17  and  OH_18
REMARK    5  A    between atoms: CB_20  and  CG_21
REMARK    6  A    between atoms: CZ_26  and  OH_27
REMARK                            x       y       z     vdW  Elec       q    Type
REMARK                         _______ _______ _______ _____ _____    ______ ____
ROOT
ATOM      1  O   TYR A   2      36.344 -21.223 -18.786  0.00  0.00    -0.273 OA
ATOM      2  O   TYR A   1      33.290 -19.004 -22.498  0.00  0.00    -0.273 OA
ATOM      3  N   TYR A   1      35.912 -19.480 -20.228  0.00  0.00    -0.297 N 
ATOM      4  N   TYR A   2      33.590 -20.585 -20.852  0.00  0.00    -0.297 N 
ATOM      5  CA  TYR A   1      34.921 -18.555 -20.758  0.00  0.00    +0.153 C 
ATOM      6  CA  TYR A   2      34.052 -20.863 -19.500  0.00  0.00    +0.153 C 
ATOM      7  C   TYR A   2      35.551 -20.593 -19.481  0.00  0.00    +0.241 C 
ATOM      8  C   TYR A   1      33.887 -19.394 -21.497  0.00  0.00    +0.241 C 
ATOM      9  H   TYR A   1      36.865 -19.312 -20.403  0.00  0.00    +0.150 HD
ATOM     10  H   TYR A   2      33.053 -21.261 -21.323  0.00  0.00    +0.150 HD
ENDROOT
BRANCH   5  11
ATOM     11  CB  TYR A   1      35.564 -17.518 -21.664  0.00  0.00    +0.055 C 
BRANCH  11  12
ATOM     12  CG  TYR A   1      34.773 -16.236 -21.700  0.00  0.00    -0.020 C 
ATOM     13  CD1 TYR A   1      34.234 -15.734 -20.525  0.00  0.00    -0.001 C 
ATOM     14  CD2 TYR A   1      34.597 -15.577 -22.908  0.00  0.00    -0.001 C 
ATOM     15  CE1 TYR A   1      33.502 -14.547 -20.559  0.00  0.00    +0.036 C 
ATOM     16  CE2 TYR A   1      33.865 -14.391 -22.942  0.00  0.00    +0.036 C 
ATOM     17  CZ  TYR A   1      33.318 -13.875 -21.767  0.00  0.00    +0.134 C 
BRANCH  17  18
ATOM     18  OH  TYR A   1      32.603 -12.717 -21.800  0.00  0.00    -0.506 OA
ATOM     19  HH  TYR A   1      32.027 -12.503 -21.092  0.00  0.00    +0.292 HD
ENDBRANCH  17  18
ENDBRANCH  11  12
ENDBRANCH   5  11
BRANCH   6  20
ATOM     20  CB  TYR A   2      33.728 -22.291 -19.090  0.00  0.00    +0.055 C 
BRANCH  20  21
ATOM     21  CG  TYR A   2      33.299 -22.375 -17.647  0.00  0.00    -0.020 C 
ATOM     22  CD1 TYR A   2      34.263 -22.475 -16.653  0.00  0.00    -0.001 C 
ATOM     23  CD2 TYR A   2      31.949 -22.352 -17.335  0.00  0.00    -0.001 C 
ATOM     24  CE1 TYR A   2      33.866 -22.553 -15.318  0.00  0.00    +0.036 C 
ATOM     25  CE2 TYR A   2      31.552 -22.431 -16.000  0.00  0.00    +0.036 C 
ATOM     26  CZ  TYR A   2      32.510 -22.531 -14.992  0.00  0.00    +0.134 C 
BRANCH  26  27
ATOM     27  OH  TYR A   2      32.124 -22.608 -13.689  0.00  0.00    -0.506 OA
ATOM     28  HH  TYR A   2      31.708 -23.384 -13.369  0.00  0.00    +0.292 HD
ENDBRANCH  26  27
ENDBRANCH  20  21
ENDBRANCH   6  20
TORSDOF 6
ENDMDL
MODEL 7
REMARK VINA RESULT:     -10.2      3.813      9.115
REMARK  Name = 11267350
REMARK  6 active torsions:
REMARK  status: ('A' for Active; 'I' for Inactive)
REMARK    1  A    between atoms: CA_5  and  CB_11
REMARK    2  A    between atoms: CA_6  and  CB_20
REMARK    3  A    between atoms: CB_11  and  CG_12
REMARK    4  A    between atoms: CZ_17  and  OH_18
REMARK    5  A    between atoms: CB_20  and  CG_21
REMARK    6  A    between atoms: CZ_26  and  OH_27
REMARK                            x       y       z     vdW  Elec       q    Type
REMARK                         _______ _______ _______ _____ _____    ______ ____
ROOT
ATOM      1  O   TYR A   2      33.495 -23.071 -19.713  0.00  0.00    -0.273 OA
ATOM      2  O   TYR A   1      35.015 -22.328 -14.697  0.00  0.00    -0.273 OA
ATOM      3  N   TYR A   1      33.055 -23.215 -17.458  0.00  0.00    -0.297 N 
ATOM      4  N   TYR A   2      35.309 -21.930 -16.945  0.00  0.00    -0.297 N 
ATOM      5  CA  TYR A   1      33.095 -22.550 -16.164  0.00  0.00    +0.153 C 
ATOM      6  CA  TYR A   2      34.684 -21.580 -18.212  0.00  0.00    +0.153 C 
ATOM      7  C   TYR A   2      33.730 -22.714 -18.561  0.00  0.00    +0.241 C 
ATOM      8  C   TYR A   1      34.562 -22.307 -15.839  0.00  0.00    +0.241 C 
ATOM      9  H   TYR A   1      32.534 -24.045 -17.554  0.00  0.00    +0.150 HD
ATOM     10  H   TYR A   2      36.290 -21.899 -16.870  0.00  0.00    +0.150 HD
ENDROOT
BRANCH   5  11
ATOM     11  CB  TYR A   1      32.407 -23.383 -15.094  0.00  0.00    +0.055 C 
BRANCH  11  12
ATOM     12  CG  TYR A   1      30.906 -23.329 -15.221  0.00  0.00    -0.020 C 
ATOM     13  CD1 TYR A   1      30.132 -24.283 -14.576  0.00  0.00    -0.001 C 
ATOM     14  CD2 TYR A   1      30.322 -22.327 -15.981  0.00  0.00    -0.001 C 
ATOM     15  CE1 TYR A   1      28.743 -24.233 -14.694  0.00  0.00    +0.036 C 
ATOM     16  CE2 TYR A   1      28.933 -22.277 -16.099  0.00  0.00    +0.036 C 
ATOM     17  CZ  TYR A   1      28.143 -23.230 -15.454  0.00  0.00    +0.134 C 
BRANCH  17  18
ATOM     18  OH  TYR A   1      26.787 -23.181 -15.569  0.00  0.00    -0.506 OA
ATOM     19  HH  TYR A   1      26.301 -23.971 -15.701  0.00  0.00    +0.292 HD
ENDBRANCH  17  18
ENDBRANCH  11  12
ENDBRANCH   5  11
BRANCH   6  20
ATOM     20  CB  TYR A   2      35.726 -21.360 -19.298  0.00  0.00    +0.055 C 
BRANCH  20  21
ATOM     21  CG  TYR A   2      35.433 -20.126 -20.113  0.00  0.00    -0.020 C 
ATOM     22  CD1 TYR A   2      34.133 -19.873 -20.526  0.00  0.00    -0.001 C 
ATOM     23  CD2 TYR A   2      36.468 -19.263 -20.437  0.00  0.00    -0.001 C 
ATOM     24  CE1 TYR A   2      33.862 -18.731 -21.280  0.00  0.00    +0.036 C 
ATOM     25  CE2 TYR A   2      36.198 -18.121 -21.191  0.00  0.00    +0.036 C 
ATOM     26  CZ  TYR A   2      34.895 -17.855 -21.612  0.00  0.00    +0.134 C 
BRANCH  26  27
ATOM     27  OH  TYR A   2      34.630 -16.742 -22.349  0.00  0.00    -0.506 OA
ATOM     28  HH  TYR A   2      33.910 -16.188 -22.120  0.00  0.00    +0.292 HD
ENDBRANCH  26  27
ENDBRANCH  20  21
ENDBRANCH   6  20
TORSDOF 6
ENDMDL
MODEL 8
REMARK VINA RESULT:     -10.2      3.841      6.260
REMARK  Name = 11267350
REMARK  6 active torsions:
REMARK  status: ('A' for Active; 'I' for Inactive)
REMARK    1  A    between atoms: CA_5  and  CB_11
REMARK    2  A    between atoms: CA_6  and  CB_20
REMARK    3  A    between atoms: CB_11  and  CG_12
REMARK    4  A    between atoms: CZ_17  and  OH_18
REMARK    5  A    between atoms: CB_20  and  CG_21
REMARK    6  A    between atoms: CZ_26  and  OH_27
REMARK                            x       y       z     vdW  Elec       q    Type
REMARK                         _______ _______ _______ _____ _____    ______ ____
ROOT
ATOM      1  O   TYR A   2      34.935 -22.421 -14.643  0.00  0.00    -0.273 OA
ATOM      2  O   TYR A   1      33.495 -23.035 -19.700  0.00  0.00    -0.273 OA
ATOM      3  N   TYR A   1      35.273 -21.977 -16.876  0.00  0.00    -0.297 N 
ATOM      4  N   TYR A   2      33.014 -23.225 -17.457  0.00  0.00    -0.297 N 
ATOM      5  CA  TYR A   1      34.674 -21.591 -18.146  0.00  0.00    +0.153 C 
ATOM      6  CA  TYR A   2      33.039 -22.589 -16.148  0.00  0.00    +0.153 C 
ATOM      7  C   TYR A   2      34.503 -22.369 -15.791  0.00  0.00    +0.241 C 
ATOM      8  C   TYR A   1      33.714 -22.707 -18.536  0.00  0.00    +0.241 C 
ATOM      9  H   TYR A   1      36.253 -21.958 -16.784  0.00  0.00    +0.150 HD
ATOM     10  H   TYR A   2      32.486 -24.046 -17.581  0.00  0.00    +0.150 HD
ENDROOT
BRANCH   5  11
ATOM     11  CB  TYR A   1      35.736 -21.358 -19.208  0.00  0.00    +0.055 C 
BRANCH  11  12
ATOM     12  CG  TYR A   1      35.428 -20.149 -20.054  0.00  0.00    -0.020 C 
ATOM     13  CD1 TYR A   1      34.127 -19.931 -20.483  0.00  0.00    -0.001 C 
ATOM     14  CD2 TYR A   1      36.450 -19.273 -20.389  0.00  0.00    -0.001 C 
ATOM     15  CE1 TYR A   1      33.843 -18.812 -21.266  0.00  0.00    +0.036 C 
ATOM     16  CE2 TYR A   1      36.165 -18.155 -21.171  0.00  0.00    +0.036 C 
ATOM     17  CZ  TYR A   1      34.861 -17.924 -21.610  0.00  0.00    +0.134 C 
BRANCH  17  18
ATOM     18  OH  TYR A   1      34.583 -16.831 -22.374  0.00  0.00    -0.506 OA
ATOM     19  HH  TYR A   1      35.276 -16.381 -22.816  0.00  0.00    +0.292 HD
ENDBRANCH  17  18
ENDBRANCH  11  12
ENDBRANCH   5  11
BRANCH   6  20
ATOM     20  CB  TYR A   2      32.323 -23.438 -15.110  0.00  0.00    +0.055 C 
BRANCH  20  21
ATOM     21  CG  TYR A   2      30.825 -23.340 -15.241  0.00  0.00    -0.020 C 
ATOM     22  CD1 TYR A   2      30.272 -22.321 -16.004  0.00  0.00    -0.001 C 
ATOM     23  CD2 TYR A   2      30.022 -24.268 -14.597  0.00  0.00    -0.001 C 
ATOM     24  CE1 TYR A   2      28.885 -22.231 -16.125  0.00  0.00    +0.036 C 
ATOM     25  CE2 TYR A   2      28.635 -24.177 -14.718  0.00  0.00    +0.036 C 
ATOM     26  CZ  TYR A   2      28.067 -23.159 -15.482  0.00  0.00    +0.134 C 
BRANCH  26  27
ATOM     27  OH  TYR A   2      26.714 -23.068 -15.600  0.00  0.00    -0.506 OA
ATOM     28  HH  TYR A   2      26.160 -23.518 -14.994  0.00  0.00    +0.292 HD
ENDBRANCH  26  27
ENDBRANCH  20  21
ENDBRANCH   6  20
TORSDOF 6
ENDMDL
MODEL 9
REMARK VINA RESULT:      -9.9      2.146      3.556
REMARK  Name = 11267350
REMARK  6 active torsions:
REMARK  status: ('A' for Active; 'I' for Inactive)
REMARK    1  A    between atoms: CA_5  and  CB_11
REMARK    2  A    between atoms: CA_6  and  CB_20
REMARK    3  A    between atoms: CB_11  and  CG_12
REMARK    4  A    between atoms: CZ_17  and  OH_18
REMARK    5  A    between atoms: CB_20  and  CG_21
REMARK    6  A    between atoms: CZ_26  and  OH_27
REMARK                            x       y       z     vdW  Elec       q    Type
REMARK                         _______ _______ _______ _____ _____    ______ ____
ROOT
ATOM      1  O   TYR A   2      31.965 -20.430 -19.895  0.00  0.00    -0.273 OA
ATOM      2  O   TYR A   1      36.946 -18.644 -20.042  0.00  0.00    -0.273 OA
ATOM      3  N   TYR A   1      33.469 -18.768 -20.421  0.00  0.00    -0.297 N 
ATOM      4  N   TYR A   2      35.465 -20.388 -19.795  0.00  0.00    -0.297 N 
ATOM      5  CA  TYR A   1      34.744 -18.429 -21.036  0.00  0.00    +0.153 C 
ATOM      6  CA  TYR A   2      34.275 -21.056 -20.301  0.00  0.00    +0.153 C 
ATOM      7  C   TYR A   2      33.117 -20.080 -20.139  0.00  0.00    +0.241 C 
ATOM      8  C   TYR A   1      35.825 -19.117 -20.215  0.00  0.00    +0.241 C 
ATOM      9  H   TYR A   1      32.837 -18.047 -20.200  0.00  0.00    +0.150 HD
ATOM     10  H   TYR A   2      36.029 -20.850 -19.135  0.00  0.00    +0.150 HD
ENDROOT
BRANCH   5  11
ATOM     11  CB  TYR A   1      34.944 -16.923 -21.094  0.00  0.00    +0.055 C 
BRANCH  11  12
ATOM     12  CG  TYR A   1      34.406 -16.334 -22.372  0.00  0.00    -0.020 C 
ATOM     13  CD1 TYR A   1      34.126 -14.976 -22.433  0.00  0.00    -0.001 C 
ATOM     14  CD2 TYR A   1      34.201 -17.158 -23.469  0.00  0.00    -0.001 C 
ATOM     15  CE1 TYR A   1      33.628 -14.431 -23.617  0.00  0.00    +0.036 C 
ATOM     16  CE2 TYR A   1      33.703 -16.612 -24.652  0.00  0.00    +0.036 C 
ATOM     17  CZ  TYR A   1      33.417 -15.249 -24.726  0.00  0.00    +0.134 C 
BRANCH  17  18
ATOM     18  OH  TYR A   1      32.931 -14.716 -25.882  0.00  0.00    -0.506 OA
ATOM     19  HH  TYR A   1      33.244 -15.028 -26.708  0.00  0.00    +0.292 HD
ENDBRANCH  17  18
ENDBRANCH  11  12
ENDBRANCH   5  11
BRANCH   6  20
ATOM     20  CB  TYR A   2      34.022 -22.363 -19.568  0.00  0.00    +0.055 C 
BRANCH  20  21
ATOM     21  CG  TYR A   2      34.366 -22.260 -18.104  0.00  0.00    -0.020 C 
ATOM     22  CD1 TYR A   2      35.621 -21.802 -17.728  0.00  0.00    -0.001 C 
ATOM     23  CD2 TYR A   2      33.424 -22.624 -17.155  0.00  0.00    -0.001 C 
ATOM     24  CE1 TYR A   2      35.939 -21.706 -16.373  0.00  0.00    +0.036 C 
ATOM     25  CE2 TYR A   2      33.741 -22.528 -15.800  0.00  0.00    +0.036 C 
ATOM     26  CZ  TYR A   2      34.999 -22.069 -15.409  0.00  0.00    +0.134 C 
BRANCH  26  27
ATOM     27  OH  TYR A   2      35.311 -21.977 -14.088  0.00  0.00    -0.506 OA
ATOM     28  HH  TYR A   2      34.640 -21.800 -13.459  0.00  0.00    +0.292 HD
ENDBRANCH  26  27
ENDBRANCH  20  21
ENDBRANCH   6  20
TORSDOF 6
ENDMDL
