MODEL 1
REMARK VINA RESULT:     -12.5      0.000      0.000
REMARK  Name = 4369285
REMARK  9 active torsions:
REMARK  status: ('A' for Active; 'I' for Inactive)
REMARK    1  A    between atoms: N_1  and  C_18
REMARK    2  A    between atoms: N_2  and  C_8
REMARK    3  A    between atoms: C_11  and  C_17
REMARK    4  A    between atoms: C_18  and  C_19
REMARK    5  A    between atoms: C_19  and  C_21
REMARK    6  A    between atoms: C_21  and  C_22
REMARK    7  A    between atoms: C_25  and  N_30
REMARK    8  A    between atoms: C_26  and  O_31
REMARK    9  A    between atoms: C_27  and  O_33
REMARK                            x       y       z     vdW  Elec       q    Type
REMARK                         _______ _______ _______ _____ _____    ______ ____
ROOT
ATOM      1  N   UNL     1      35.473 -20.373 -20.260  0.00  0.00    +0.390 N 
ATOM      2  N   UNL     1      34.774 -17.947 -21.596  0.00  0.00    -0.312 N 
ATOM      3  C   UNL     1      36.334 -19.190 -20.151  0.00  0.00    -0.055 C 
ATOM      4  C   UNL     1      34.067 -19.960 -20.362  0.00  0.00    -0.055 C 
ATOM      5  C   UNL     1      36.184 -18.285 -21.377  0.00  0.00    +0.068 C 
ATOM      6  C   UNL     1      33.841 -19.081 -21.594  0.00  0.00    +0.068 C 
ATOM      7  H   UNL     1      35.727 -20.888 -21.103  0.00  0.00    -0.080 HD
ENDROOT
BRANCH   2   8
ATOM      8  C   UNL     1      34.440 -16.823 -22.360  0.00  0.00    +0.048 C 
ATOM      9  C   UNL     1      34.186 -15.579 -21.748  0.00  0.00    +0.018 C 
ATOM     10  C   UNL     1      34.347 -16.901 -23.764  0.00  0.00    +0.015 C 
ATOM     11  C   UNL     1      33.853 -14.459 -22.510  0.00  0.00    +0.073 C 
ATOM     12  C   UNL     1      34.014 -15.781 -24.526  0.00  0.00    +0.001 C 
ATOM     13  C   UNL     1      33.767 -14.560 -23.898  0.00  0.00    +0.004 C 
BRANCH  11  17
ATOM     14  F   UNL     1      33.898 -12.069 -22.611  0.00  0.00    -0.166 F 
ATOM     15  F   UNL     1      32.281 -12.976 -21.486  0.00  0.00    -0.166 F 
ATOM     16  F   UNL     1      34.303 -13.000 -20.687  0.00  0.00    -0.166 F 
ATOM     17  C   UNL     1      33.587 -13.154 -21.840  0.00  0.00    +0.419 C 
ENDBRANCH  11  17
ENDBRANCH   2   8
BRANCH   1  18
ATOM     18  C   UNL     1      35.666 -21.256 -19.111  0.00  0.00    -0.069 C 
BRANCH  18  19
ATOM     19  C   UNL     1      34.332 -21.817 -18.617  0.00  0.00    +0.046 C 
BRANCH  19  21
ATOM     20  O   UNL     1      35.489 -22.475 -16.606  0.00  0.00    -0.291 OA
ATOM     21  C   UNL     1      34.414 -22.302 -17.177  0.00  0.00    +0.171 C 
BRANCH  21  22
ATOM     22  C   UNL     1      33.146 -22.577 -16.439  0.00  0.00    +0.039 C 
ATOM     23  C   UNL     1      33.219 -23.170 -15.200  0.00  0.00    +0.030 C 
ATOM     24  C   UNL     1      31.952 -22.225 -17.028  0.00  0.00    +0.043 C 
ATOM     25  C   UNL     1      32.033 -23.427 -14.512  0.00  0.00    +0.179 C 
ATOM     26  C   UNL     1      30.767 -22.481 -16.339  0.00  0.00    +0.169 C 
ATOM     27  C   UNL     1      30.807 -23.082 -15.081  0.00  0.00    +0.190 C 
BRANCH  25  30
ATOM     28  O   UNL     1      31.210 -24.870 -12.913  0.00  0.00    -0.126 OA
ATOM     29  O   UNL     1      33.030 -23.731 -12.455  0.00  0.00    -0.126 OA
ATOM     30  N   UNL     1      32.094 -24.040 -13.230  0.00  0.00    +0.061 N 
ENDBRANCH  25  30
BRANCH  26  31
ATOM     31  O   UNL     1      29.577 -22.140 -16.908  0.00  0.00    -0.503 OA
ATOM     32  H   UNL     1      28.859 -21.872 -16.367  0.00  0.00    +0.292 HD
ENDBRANCH  26  31
BRANCH  27  33
ATOM     33  O   UNL     1      29.641 -23.329 -14.417  0.00  0.00    -0.502 OA
ATOM     34  H   UNL     1      29.617 -23.290 -13.481  0.00  0.00    +0.292 HD
ENDBRANCH  27  33
ENDBRANCH  21  22
ENDBRANCH  19  21
ENDBRANCH  18  19
ENDBRANCH   1  18
TORSDOF 9
ENDMDL
MODEL 2
REMARK VINA RESULT:     -12.4      6.144     10.408
REMARK  Name = 4369285
REMARK  9 active torsions:
REMARK  status: ('A' for Active; 'I' for Inactive)
REMARK    1  A    between atoms: N_1  and  C_18
REMARK    2  A    between atoms: N_2  and  C_8
REMARK    3  A    between atoms: C_11  and  C_17
REMARK    4  A    between atoms: C_18  and  C_19
REMARK    5  A    between atoms: C_19  and  C_21
REMARK    6  A    between atoms: C_21  and  C_22
REMARK    7  A    between atoms: C_25  and  N_30
REMARK    8  A    between atoms: C_26  and  O_31
REMARK    9  A    between atoms: C_27  and  O_33
REMARK                            x       y       z     vdW  Elec       q    Type
REMARK                         _______ _______ _______ _____ _____    ______ ____
ROOT
ATOM      1  N   UNL     1      34.333 -19.767 -21.455  0.00  0.00    +0.390 N 
ATOM      2  N   UNL     1      34.408 -21.055 -18.906  0.00  0.00    -0.312 N 
ATOM      3  C   UNL     1      33.131 -19.821 -20.614  0.00  0.00    -0.055 C 
ATOM      4  C   UNL     1      35.530 -19.671 -20.609  0.00  0.00    -0.055 C 
ATOM      5  C   UNL     1      33.165 -21.037 -19.684  0.00  0.00    +0.068 C 
ATOM      6  C   UNL     1      35.644 -20.882 -19.679  0.00  0.00    +0.068 C 
ATOM      7  H   UNL     1      34.387 -20.623 -22.007  0.00  0.00    -0.080 HD
ENDROOT
BRANCH   2   8
ATOM      8  C   UNL     1      34.473 -21.793 -17.719  0.00  0.00    +0.048 C 
ATOM      9  C   UNL     1      35.690 -21.947 -17.025  0.00  0.00    +0.018 C 
ATOM     10  C   UNL     1      33.323 -22.405 -17.181  0.00  0.00    +0.015 C 
ATOM     11  C   UNL     1      35.755 -22.682 -15.842  0.00  0.00    +0.073 C 
ATOM     12  C   UNL     1      33.387 -23.141 -15.997  0.00  0.00    +0.001 C 
ATOM     13  C   UNL     1      34.604 -23.280 -15.328  0.00  0.00    +0.004 C 
BRANCH  11  17
ATOM     14  F   UNL     1      37.103 -22.168 -13.933  0.00  0.00    -0.166 F 
ATOM     15  F   UNL     1      37.368 -24.127 -14.826  0.00  0.00    -0.166 F 
ATOM     16  F   UNL     1      38.110 -22.359 -15.852  0.00  0.00    -0.166 F 
ATOM     17  C   UNL     1      37.054 -22.832 -15.127  0.00  0.00    +0.419 C 
ENDBRANCH  11  17
ENDBRANCH   2   8
BRANCH   1  18
ATOM     18  C   UNL     1      34.264 -18.634 -22.375  0.00  0.00    -0.069 C 
BRANCH  18  19
ATOM     19  C   UNL     1      35.280 -17.555 -21.998  0.00  0.00    +0.046 C 
BRANCH  19  21
ATOM     20  O   UNL     1      34.565 -16.092 -20.220  0.00  0.00    -0.291 OA
ATOM     21  C   UNL     1      34.610 -16.313 -21.428  0.00  0.00    +0.171 C 
BRANCH  21  22
ATOM     22  C   UNL     1      33.991 -15.335 -22.372  0.00  0.00    +0.039 C 
ATOM     23  C   UNL     1      33.496 -14.155 -21.867  0.00  0.00    +0.030 C 
ATOM     24  C   UNL     1      33.939 -15.654 -23.710  0.00  0.00    +0.043 C 
ATOM     25  C   UNL     1      32.916 -13.243 -22.748  0.00  0.00    +0.179 C 
ATOM     26  C   UNL     1      33.360 -14.741 -24.591  0.00  0.00    +0.169 C 
ATOM     27  C   UNL     1      32.849 -13.535 -24.111  0.00  0.00    +0.190 C 
BRANCH  25  30
ATOM     28  O   UNL     1      31.757 -12.033 -21.164  0.00  0.00    -0.126 OA
ATOM     29  O   UNL     1      32.604 -10.962 -22.883  0.00  0.00    -0.126 OA
ATOM     30  N   UNL     1      32.400 -12.019 -22.240  0.00  0.00    +0.061 N 
ENDBRANCH  25  30
BRANCH  26  31
ATOM     31  O   UNL     1      33.301 -15.040 -25.919  0.00  0.00    -0.503 OA
ATOM     32  H   UNL     1      33.127 -15.919 -26.194  0.00  0.00    +0.292 HD
ENDBRANCH  26  31
BRANCH  27  33
ATOM     33  O   UNL     1      32.284 -12.650 -24.982  0.00  0.00    -0.502 OA
ATOM     34  H   UNL     1      31.798 -11.917 -24.658  0.00  0.00    +0.292 HD
ENDBRANCH  27  33
ENDBRANCH  21  22
ENDBRANCH  19  21
ENDBRANCH  18  19
ENDBRANCH   1  18
TORSDOF 9
ENDMDL
MODEL 3
REMARK VINA RESULT:     -12.4      5.994     10.199
REMARK  Name = 4369285
REMARK  9 active torsions:
REMARK  status: ('A' for Active; 'I' for Inactive)
REMARK    1  A    between atoms: N_1  and  C_18
REMARK    2  A    between atoms: N_2  and  C_8
REMARK    3  A    between atoms: C_11  and  C_17
REMARK    4  A    between atoms: C_18  and  C_19
REMARK    5  A    between atoms: C_19  and  C_21
REMARK    6  A    between atoms: C_21  and  C_22
REMARK    7  A    between atoms: C_25  and  N_30
REMARK    8  A    between atoms: C_26  and  O_31
REMARK    9  A    between atoms: C_27  and  O_33
REMARK                            x       y       z     vdW  Elec       q    Type
REMARK                         _______ _______ _______ _____ _____    ______ ____
ROOT
ATOM      1  N   UNL     1      34.266 -19.683 -20.820  0.00  0.00    +0.390 N 
ATOM      2  N   UNL     1      33.508 -21.372 -18.644  0.00  0.00    -0.312 N 
ATOM      3  C   UNL     1      35.206 -20.677 -20.288  0.00  0.00    -0.055 C 
ATOM      4  C   UNL     1      32.892 -20.190 -20.718  0.00  0.00    -0.055 C 
ATOM      5  C   UNL     1      34.911 -20.982 -18.817  0.00  0.00    +0.068 C 
ATOM      6  C   UNL     1      32.519 -20.479 -19.261  0.00  0.00    +0.068 C 
ATOM      7  H   UNL     1      34.344 -18.829 -20.268  0.00  0.00    -0.080 HD
ENDROOT
BRANCH   2   8
ATOM      8  C   UNL     1      33.123 -22.095 -17.509  0.00  0.00    +0.048 C 
ATOM      9  C   UNL     1      31.763 -22.257 -17.178  0.00  0.00    +0.018 C 
ATOM     10  C   UNL     1      34.085 -22.681 -16.662  0.00  0.00    +0.015 C 
ATOM     11  C   UNL     1      31.380 -22.977 -16.047  0.00  0.00    +0.073 C 
ATOM     12  C   UNL     1      33.702 -23.402 -15.530  0.00  0.00    +0.001 C 
ATOM     13  C   UNL     1      32.349 -23.549 -15.223  0.00  0.00    +0.004 C 
BRANCH  11  17
ATOM     14  F   UNL     1      29.097 -22.592 -16.650  0.00  0.00    -0.166 F 
ATOM     15  F   UNL     1      29.538 -24.435 -15.596  0.00  0.00    -0.166 F 
ATOM     16  F   UNL     1      29.599 -22.539 -14.535  0.00  0.00    -0.166 F 
ATOM     17  C   UNL     1      29.935 -23.134 -15.717  0.00  0.00    +0.419 C 
ENDBRANCH  11  17
ENDBRANCH   2   8
BRANCH   1  18
ATOM     18  C   UNL     1      34.592 -19.360 -22.208  0.00  0.00    -0.069 C 
BRANCH  18  19
ATOM     19  C   UNL     1      35.538 -18.162 -22.287  0.00  0.00    +0.046 C 
BRANCH  19  21
ATOM     20  O   UNL     1      35.074 -16.799 -20.353  0.00  0.00    -0.291 OA
ATOM     21  C   UNL     1      34.978 -16.942 -21.570  0.00  0.00    +0.171 C 
BRANCH  21  22
ATOM     22  C   UNL     1      34.292 -15.889 -22.376  0.00  0.00    +0.039 C 
ATOM     23  C   UNL     1      33.874 -14.742 -21.742  0.00  0.00    +0.030 C 
ATOM     24  C   UNL     1      34.104 -16.108 -23.721  0.00  0.00    +0.043 C 
ATOM     25  C   UNL     1      33.231 -13.760 -22.495  0.00  0.00    +0.179 C 
ATOM     26  C   UNL     1      33.462 -15.125 -24.475  0.00  0.00    +0.169 C 
ATOM     27  C   UNL     1      33.027 -13.950 -23.861  0.00  0.00    +0.190 C 
BRANCH  25  30
ATOM     28  O   UNL     1      32.938 -11.473 -22.446  0.00  0.00    -0.126 OA
ATOM     29  O   UNL     1      32.280 -12.648 -20.712  0.00  0.00    -0.126 OA
ATOM     30  N   UNL     1      32.795 -12.568 -21.852  0.00  0.00    +0.061 N 
ENDBRANCH  25  30
BRANCH  26  31
ATOM     31  O   UNL     1      33.268 -15.325 -25.808  0.00  0.00    -0.503 OA
ATOM     32  H   UNL     1      32.465 -15.055 -26.210  0.00  0.00    +0.292 HD
ENDBRANCH  26  31
BRANCH  27  33
ATOM     33  O   UNL     1      32.399 -12.995 -24.608  0.00  0.00    -0.502 OA
ATOM     34  H   UNL     1      31.465 -12.924 -24.588  0.00  0.00    +0.292 HD
ENDBRANCH  27  33
ENDBRANCH  21  22
ENDBRANCH  19  21
ENDBRANCH  18  19
ENDBRANCH   1  18
TORSDOF 9
ENDMDL
MODEL 4
REMARK VINA RESULT:     -12.3      1.049      2.279
REMARK  Name = 4369285
REMARK  9 active torsions:
REMARK  status: ('A' for Active; 'I' for Inactive)
REMARK    1  A    between atoms: N_1  and  C_18
REMARK    2  A    between atoms: N_2  and  C_8
REMARK    3  A    between atoms: C_11  and  C_17
REMARK    4  A    between atoms: C_18  and  C_19
REMARK    5  A    between atoms: C_19  and  C_21
REMARK    6  A    between atoms: C_21  and  C_22
REMARK    7  A    between atoms: C_25  and  N_30
REMARK    8  A    between atoms: C_26  and  O_31
REMARK    9  A    between atoms: C_27  and  O_33
REMARK                            x       y       z     vdW  Elec       q    Type
REMARK                         _______ _______ _______ _____ _____    ______ ____
ROOT
ATOM      1  N   UNL     1      35.267 -20.764 -19.877  0.00  0.00    +0.390 N 
ATOM      2  N   UNL     1      34.739 -18.292 -21.208  0.00  0.00    -0.312 N 
ATOM      3  C   UNL     1      36.223 -19.653 -19.790  0.00  0.00    -0.055 C 
ATOM      4  C   UNL     1      33.898 -20.239 -19.953  0.00  0.00    -0.055 C 
ATOM      5  C   UNL     1      36.122 -18.741 -21.015  0.00  0.00    +0.068 C 
ATOM      6  C   UNL     1      33.718 -19.347 -21.184  0.00  0.00    +0.068 C 
ATOM      7  H   UNL     1      35.462 -21.299 -20.723  0.00  0.00    -0.080 HD
ENDROOT
BRANCH   2   8
ATOM      8  C   UNL     1      34.481 -17.146 -21.969  0.00  0.00    +0.048 C 
ATOM      9  C   UNL     1      34.222 -15.906 -21.350  0.00  0.00    +0.018 C 
ATOM     10  C   UNL     1      34.472 -17.197 -23.377  0.00  0.00    +0.015 C 
ATOM     11  C   UNL     1      33.966 -14.765 -22.109  0.00  0.00    +0.073 C 
ATOM     12  C   UNL     1      34.216 -16.055 -24.137  0.00  0.00    +0.001 C 
ATOM     13  C   UNL     1      33.962 -14.839 -23.502  0.00  0.00    +0.004 C 
BRANCH  11  17
ATOM     14  F   UNL     1      32.397 -13.321 -21.022  0.00  0.00    -0.166 F 
ATOM     15  F   UNL     1      34.446 -13.263 -20.310  0.00  0.00    -0.166 F 
ATOM     16  F   UNL     1      33.942 -12.391 -22.237  0.00  0.00    -0.166 F 
ATOM     17  C   UNL     1      33.693 -13.465 -21.432  0.00  0.00    +0.419 C 
ENDBRANCH  11  17
ENDBRANCH   2   8
BRANCH   1  18
ATOM     18  C   UNL     1      35.412 -21.657 -18.729  0.00  0.00    -0.069 C 
BRANCH  18  19
ATOM     19  C   UNL     1      34.074 -21.858 -18.016  0.00  0.00    +0.046 C 
BRANCH  19  21
ATOM     20  O   UNL     1      35.354 -22.632 -16.125  0.00  0.00    -0.291 OA
ATOM     21  C   UNL     1      34.248 -22.485 -16.641  0.00  0.00    +0.171 C 
BRANCH  21  22
ATOM     22  C   UNL     1      33.033 -22.935 -15.899  0.00  0.00    +0.039 C 
ATOM     23  C   UNL     1      31.796 -22.679 -16.444  0.00  0.00    +0.030 C 
ATOM     24  C   UNL     1      33.199 -23.587 -14.698  0.00  0.00    +0.043 C 
ATOM     25  C   UNL     1      30.662 -23.098 -15.750  0.00  0.00    +0.179 C 
ATOM     26  C   UNL     1      32.064 -24.007 -14.005  0.00  0.00    +0.169 C 
ATOM     27  C   UNL     1      30.795 -23.763 -14.531  0.00  0.00    +0.190 C 
BRANCH  25  30
ATOM     28  O   UNL     1      29.167 -21.739 -16.861  0.00  0.00    -0.126 OA
ATOM     29  O   UNL     1      28.491 -23.724 -16.213  0.00  0.00    -0.126 OA
ATOM     30  N   UNL     1      29.376 -22.841 -16.302  0.00  0.00    +0.061 N 
ENDBRANCH  25  30
BRANCH  26  31
ATOM     31  O   UNL     1      32.209 -24.654 -12.815  0.00  0.00    -0.503 OA
ATOM     32  H   UNL     1      32.712 -24.263 -12.127  0.00  0.00    +0.292 HD
ENDBRANCH  26  31
BRANCH  27  33
ATOM     33  O   UNL     1      29.691 -24.178 -13.842  0.00  0.00    -0.502 OA
ATOM     34  H   UNL     1      28.839 -23.897 -14.111  0.00  0.00    +0.292 HD
ENDBRANCH  27  33
ENDBRANCH  21  22
ENDBRANCH  19  21
ENDBRANCH  18  19
ENDBRANCH   1  18
TORSDOF 9
ENDMDL
MODEL 5
REMARK VINA RESULT:     -12.3      5.802     10.233
REMARK  Name = 4369285
REMARK  9 active torsions:
REMARK  status: ('A' for Active; 'I' for Inactive)
REMARK    1  A    between atoms: N_1  and  C_18
REMARK    2  A    between atoms: N_2  and  C_8
REMARK    3  A    between atoms: C_11  and  C_17
REMARK    4  A    between atoms: C_18  and  C_19
REMARK    5  A    between atoms: C_19  and  C_21
REMARK    6  A    between atoms: C_21  and  C_22
REMARK    7  A    between atoms: C_25  and  N_30
REMARK    8  A    between atoms: C_26  and  O_31
REMARK    9  A    between atoms: C_27  and  O_33
REMARK                            x       y       z     vdW  Elec       q    Type
REMARK                         _______ _______ _______ _____ _____    ______ ____
ROOT
ATOM      1  N   UNL     1      34.957 -21.607 -18.886  0.00  0.00    +0.390 N 
ATOM      2  N   UNL     1      33.142 -22.332 -16.803  0.00  0.00    -0.312 N 
ATOM      3  C   UNL     1      33.533 -21.265 -18.988  0.00  0.00    -0.055 C 
ATOM      4  C   UNL     1      35.382 -21.560 -17.481  0.00  0.00    -0.055 C 
ATOM      5  C   UNL     1      32.672 -22.247 -18.190  0.00  0.00    +0.068 C 
ATOM      6  C   UNL     1      34.583 -22.552 -16.632  0.00  0.00    +0.068 C 
ATOM      7  H   UNL     1      35.094 -22.554 -19.240  0.00  0.00    -0.080 HD
ENDROOT
BRANCH   2   8
ATOM      8  C   UNL     1      32.281 -22.808 -15.806  0.00  0.00    +0.048 C 
ATOM      9  C   UNL     1      30.892 -22.897 -16.027  0.00  0.00    +0.018 C 
ATOM     10  C   UNL     1      32.779 -23.213 -14.552  0.00  0.00    +0.015 C 
ATOM     11  C   UNL     1      30.036 -23.372 -15.034  0.00  0.00    +0.073 C 
ATOM     12  C   UNL     1      31.923 -23.689 -13.558  0.00  0.00    +0.001 C 
ATOM     13  C   UNL     1      30.551 -23.767 -13.799  0.00  0.00    +0.004 C 
BRANCH  11  17
ATOM     14  F   UNL     1      28.254 -23.659 -16.605  0.00  0.00    -0.166 F 
ATOM     15  F   UNL     1      27.952 -24.467 -14.615  0.00  0.00    -0.166 F 
ATOM     16  F   UNL     1      27.908 -22.316 -14.929  0.00  0.00    -0.166 F 
ATOM     17  C   UNL     1      28.570 -23.454 -15.291  0.00  0.00    +0.419 C 
ENDBRANCH  11  17
ENDBRANCH   2   8
BRANCH   1  18
ATOM     18  C   UNL     1      35.763 -20.696 -19.696  0.00  0.00    -0.069 C 
BRANCH  18  19
ATOM     19  C   UNL     1      34.876 -19.784 -20.545  0.00  0.00    +0.046 C 
BRANCH  19  21
ATOM     20  O   UNL     1      36.683 -18.189 -20.461  0.00  0.00    -0.291 OA
ATOM     21  C   UNL     1      35.578 -18.484 -20.911  0.00  0.00    +0.171 C 
BRANCH  21  22
ATOM     22  C   UNL     1      34.897 -17.541 -21.848  0.00  0.00    +0.039 C 
ATOM     23  C   UNL     1      34.740 -16.230 -21.463  0.00  0.00    +0.030 C 
ATOM     24  C   UNL     1      34.453 -18.022 -23.059  0.00  0.00    +0.043 C 
ATOM     25  C   UNL     1      34.102 -15.350 -22.338  0.00  0.00    +0.179 C 
ATOM     26  C   UNL     1      33.817 -17.141 -23.934  0.00  0.00    +0.169 C 
ATOM     27  C   UNL     1      33.642 -15.805 -23.574  0.00  0.00    +0.190 C 
BRANCH  25  30
ATOM     28  O   UNL     1      33.615 -13.732 -20.769  0.00  0.00    -0.126 OA
ATOM     29  O   UNL     1      34.107 -13.093 -22.811  0.00  0.00    -0.126 OA
ATOM     30  N   UNL     1      33.933 -13.990 -21.953  0.00  0.00    +0.061 N 
ENDBRANCH  25  30
BRANCH  26  31
ATOM     31  O   UNL     1      33.372 -17.600 -25.136  0.00  0.00    -0.503 OA
ATOM     32  H   UNL     1      33.582 -18.470 -25.413  0.00  0.00    +0.292 HD
ENDBRANCH  26  31
BRANCH  27  33
ATOM     33  O   UNL     1      33.017 -14.953 -24.437  0.00  0.00    -0.502 OA
ATOM     34  H   UNL     1      33.376 -14.102 -24.598  0.00  0.00    +0.292 HD
ENDBRANCH  27  33
ENDBRANCH  21  22
ENDBRANCH  19  21
ENDBRANCH  18  19
ENDBRANCH   1  18
TORSDOF 9
ENDMDL
MODEL 6
REMARK VINA RESULT:     -12.3      2.908      4.058
REMARK  Name = 4369285
REMARK  9 active torsions:
REMARK  status: ('A' for Active; 'I' for Inactive)
REMARK    1  A    between atoms: N_1  and  C_18
REMARK    2  A    between atoms: N_2  and  C_8
REMARK    3  A    between atoms: C_11  and  C_17
REMARK    4  A    between atoms: C_18  and  C_19
REMARK    5  A    between atoms: C_19  and  C_21
REMARK    6  A    between atoms: C_21  and  C_22
REMARK    7  A    between atoms: C_25  and  N_30
REMARK    8  A    between atoms: C_26  and  O_31
REMARK    9  A    between atoms: C_27  and  O_33
REMARK                            x       y       z     vdW  Elec       q    Type
REMARK                         _______ _______ _______ _____ _____    ______ ____
ROOT
ATOM      1  N   UNL     1      35.473 -19.932 -19.787  0.00  0.00    +0.390 N 
ATOM      2  N   UNL     1      34.703 -17.954 -21.699  0.00  0.00    -0.312 N 
ATOM      3  C   UNL     1      34.227 -20.080 -20.549  0.00  0.00    -0.055 C 
ATOM      4  C   UNL     1      36.486 -19.263 -20.613  0.00  0.00    -0.055 C 
ATOM      5  C   UNL     1      33.678 -18.716 -20.977  0.00  0.00    +0.068 C 
ATOM      6  C   UNL     1      36.014 -17.872 -21.044  0.00  0.00    +0.068 C 
ATOM      7  H   UNL     1      35.289 -19.360 -18.964  0.00  0.00    -0.080 HD
ENDROOT
BRANCH   2   8
ATOM      8  C   UNL     1      34.321 -16.902 -22.540  0.00  0.00    +0.048 C 
ATOM      9  C   UNL     1      34.137 -15.599 -22.035  0.00  0.00    +0.018 C 
ATOM     10  C   UNL     1      34.111 -17.114 -23.917  0.00  0.00    +0.015 C 
ATOM     11  C   UNL     1      33.757 -14.551 -22.873  0.00  0.00    +0.073 C 
ATOM     12  C   UNL     1      33.731 -16.065 -24.756  0.00  0.00    +0.001 C 
ATOM     13  C   UNL     1      33.554 -14.784 -24.233  0.00  0.00    +0.004 C 
BRANCH  11  17
ATOM     14  F   UNL     1      34.212 -12.978 -21.128  0.00  0.00    -0.166 F 
ATOM     15  F   UNL     1      34.012 -12.188 -23.139  0.00  0.00    -0.166 F 
ATOM     16  F   UNL     1      32.254 -12.893 -22.071  0.00  0.00    -0.166 F 
ATOM     17  C   UNL     1      33.566 -13.182 -22.316  0.00  0.00    +0.419 C 
ENDBRANCH  11  17
ENDBRANCH   2   8
BRANCH   1  18
ATOM     18  C   UNL     1      35.957 -21.236 -19.338  0.00  0.00    -0.069 C 
BRANCH  18  19
ATOM     19  C   UNL     1      35.444 -21.560 -17.935  0.00  0.00    +0.046 C 
BRANCH  19  21
ATOM     20  O   UNL     1      37.103 -20.139 -16.912  0.00  0.00    -0.291 OA
ATOM     21  C   UNL     1      36.449 -21.179 -16.857  0.00  0.00    +0.171 C 
BRANCH  21  22
ATOM     22  C   UNL     1      36.643 -22.101 -15.699  0.00  0.00    +0.039 C 
ATOM     23  C   UNL     1      37.769 -22.891 -15.667  0.00  0.00    +0.030 C 
ATOM     24  C   UNL     1      35.687 -22.125 -14.709  0.00  0.00    +0.043 C 
ATOM     25  C   UNL     1      37.948 -23.754 -14.586  0.00  0.00    +0.179 C 
ATOM     26  C   UNL     1      35.868 -22.986 -13.627  0.00  0.00    +0.169 C 
ATOM     27  C   UNL     1      36.999 -23.800 -13.565  0.00  0.00    +0.190 C 
BRANCH  25  30
ATOM     28  O   UNL     1      40.226 -24.037 -14.362  0.00  0.00    -0.126 OA
ATOM     29  O   UNL     1      38.978 -25.815 -14.677  0.00  0.00    -0.126 OA
ATOM     30  N   UNL     1      39.108 -24.576 -14.539  0.00  0.00    +0.061 N 
ENDBRANCH  25  30
BRANCH  26  31
ATOM     31  O   UNL     1      34.932 -23.022 -12.638  0.00  0.00    -0.503 OA
ATOM     32  H   UNL     1      34.055 -22.741 -12.812  0.00  0.00    +0.292 HD
ENDBRANCH  26  31
BRANCH  27  33
ATOM     33  O   UNL     1      37.164 -24.640 -12.502  0.00  0.00    -0.502 OA
ATOM     34  H   UNL     1      37.645 -24.355 -11.749  0.00  0.00    +0.292 HD
ENDBRANCH  27  33
ENDBRANCH  21  22
ENDBRANCH  19  21
ENDBRANCH  18  19
ENDBRANCH   1  18
TORSDOF 9
ENDMDL
MODEL 7
REMARK VINA RESULT:     -12.2      6.399     10.736
REMARK  Name = 4369285
REMARK  9 active torsions:
REMARK  status: ('A' for Active; 'I' for Inactive)
REMARK    1  A    between atoms: N_1  and  C_18
REMARK    2  A    between atoms: N_2  and  C_8
REMARK    3  A    between atoms: C_11  and  C_17
REMARK    4  A    between atoms: C_18  and  C_19
REMARK    5  A    between atoms: C_19  and  C_21
REMARK    6  A    between atoms: C_21  and  C_22
REMARK    7  A    between atoms: C_25  and  N_30
REMARK    8  A    between atoms: C_26  and  O_31
REMARK    9  A    between atoms: C_27  and  O_33
REMARK                            x       y       z     vdW  Elec       q    Type
REMARK                         _______ _______ _______ _____ _____    ______ ____
ROOT
ATOM      1  N   UNL     1      34.772 -20.896 -18.932  0.00  0.00    +0.390 N 
ATOM      2  N   UNL     1      35.168 -22.350 -16.506  0.00  0.00    -0.312 N 
ATOM      3  C   UNL     1      36.124 -21.095 -18.397  0.00  0.00    -0.055 C 
ATOM      4  C   UNL     1      33.935 -22.061 -18.621  0.00  0.00    -0.055 C 
ATOM      5  C   UNL     1      36.093 -21.275 -16.877  0.00  0.00    +0.068 C 
ATOM      6  C   UNL     1      33.831 -22.274 -17.108  0.00  0.00    +0.068 C 
ATOM      7  H   UNL     1      34.363 -20.070 -18.495  0.00  0.00    -0.080 HD
ENDROOT
BRANCH   2   8
ATOM      8  C   UNL     1      35.292 -22.974 -15.259  0.00  0.00    +0.048 C 
ATOM      9  C   UNL     1      36.553 -23.370 -14.768  0.00  0.00    +0.018 C 
ATOM     10  C   UNL     1      34.161 -23.225 -14.458  0.00  0.00    +0.015 C 
ATOM     11  C   UNL     1      36.676 -23.991 -13.525  0.00  0.00    +0.073 C 
ATOM     12  C   UNL     1      34.284 -23.847 -13.214  0.00  0.00    +0.001 C 
ATOM     13  C   UNL     1      35.542 -24.230 -12.749  0.00  0.00    +0.004 C 
BRANCH  11  17
ATOM     14  F   UNL     1      38.471 -23.648 -11.981  0.00  0.00    -0.166 F 
ATOM     15  F   UNL     1      38.068 -25.693 -12.583  0.00  0.00    -0.166 F 
ATOM     16  F   UNL     1      38.986 -24.310 -13.988  0.00  0.00    -0.166 F 
ATOM     17  C   UNL     1      38.019 -24.402 -13.027  0.00  0.00    +0.419 C 
ENDBRANCH  11  17
ENDBRANCH   2   8
BRANCH   1  18
ATOM     18  C   UNL     1      34.819 -20.670 -20.376  0.00  0.00    -0.069 C 
BRANCH  18  19
ATOM     19  C   UNL     1      34.124 -19.362 -20.752  0.00  0.00    +0.046 C 
BRANCH  19  21
ATOM     20  O   UNL     1      36.267 -18.278 -20.536  0.00  0.00    -0.291 OA
ATOM     21  C   UNL     1      35.116 -18.227 -20.964  0.00  0.00    +0.171 C 
BRANCH  21  22
ATOM     22  C   UNL     1      34.671 -17.017 -21.716  0.00  0.00    +0.039 C 
ATOM     23  C   UNL     1      34.319 -15.892 -21.006  0.00  0.00    +0.030 C 
ATOM     24  C   UNL     1      34.630 -17.074 -23.090  0.00  0.00    +0.043 C 
ATOM     25  C   UNL     1      33.903 -14.762 -21.709  0.00  0.00    +0.179 C 
ATOM     26  C   UNL     1      34.214 -15.943 -23.794  0.00  0.00    +0.169 C 
ATOM     27  C   UNL     1      33.851 -14.787 -23.103  0.00  0.00    +0.190 C 
BRANCH  25  30
ATOM     28  O   UNL     1      34.350 -13.109 -20.165  0.00  0.00    -0.126 OA
ATOM     29  O   UNL     1      32.412 -13.078 -21.197  0.00  0.00    -0.126 OA
ATOM     30  N   UNL     1      33.537 -13.592 -20.988  0.00  0.00    +0.061 N 
ENDBRANCH  25  30
BRANCH  26  31
ATOM     31  O   UNL     1      34.167 -15.982 -25.155  0.00  0.00    -0.503 OA
ATOM     32  H   UNL     1      34.120 -16.807 -25.598  0.00  0.00    +0.292 HD
ENDBRANCH  26  31
BRANCH  27  33
ATOM     33  O   UNL     1      33.445 -13.687 -23.802  0.00  0.00    -0.502 OA
ATOM     34  H   UNL     1      32.680 -13.731 -24.342  0.00  0.00    +0.292 HD
ENDBRANCH  27  33
ENDBRANCH  21  22
ENDBRANCH  19  21
ENDBRANCH  18  19
ENDBRANCH   1  18
TORSDOF 9
ENDMDL
MODEL 8
REMARK VINA RESULT:     -12.0      3.453      5.202
REMARK  Name = 4369285
REMARK  9 active torsions:
REMARK  status: ('A' for Active; 'I' for Inactive)
REMARK    1  A    between atoms: N_1  and  C_18
REMARK    2  A    between atoms: N_2  and  C_8
REMARK    3  A    between atoms: C_11  and  C_17
REMARK    4  A    between atoms: C_18  and  C_19
REMARK    5  A    between atoms: C_19  and  C_21
REMARK    6  A    between atoms: C_21  and  C_22
REMARK    7  A    between atoms: C_25  and  N_30
REMARK    8  A    between atoms: C_26  and  O_31
REMARK    9  A    between atoms: C_27  and  O_33
REMARK                            x       y       z     vdW  Elec       q    Type
REMARK                         _______ _______ _______ _____ _____    ______ ____
ROOT
ATOM      1  N   UNL     1      32.866 -22.536 -17.813  0.00  0.00    +0.390 N 
ATOM      2  N   UNL     1      34.073 -20.633 -19.569  0.00  0.00    -0.312 N 
ATOM      3  C   UNL     1      34.265 -22.134 -17.625  0.00  0.00    -0.055 C 
ATOM      4  C   UNL     1      32.087 -21.404 -18.330  0.00  0.00    -0.055 C 
ATOM      5  C   UNL     1      34.890 -21.681 -18.947  0.00  0.00    +0.068 C 
ATOM      6  C   UNL     1      32.638 -20.925 -19.675  0.00  0.00    +0.068 C 
ATOM      7  H   UNL     1      32.830 -23.297 -18.491  0.00  0.00    -0.080 HD
ENDROOT
BRANCH   2   8
ATOM      8  C   UNL     1      34.643 -19.783 -20.523  0.00  0.00    +0.048 C 
ATOM      9  C   UNL     1      33.977 -19.496 -21.731  0.00  0.00    +0.018 C 
ATOM     10  C   UNL     1      35.902 -19.188 -20.304  0.00  0.00    +0.015 C 
ATOM     11  C   UNL     1      34.545 -18.649 -22.682  0.00  0.00    +0.073 C 
ATOM     12  C   UNL     1      36.471 -18.340 -21.255  0.00  0.00    +0.001 C 
ATOM     13  C   UNL     1      35.793 -18.071 -22.444  0.00  0.00    +0.004 C 
BRANCH  11  17
ATOM     14  F   UNL     1      34.140 -19.217 -24.970  0.00  0.00    -0.166 F 
ATOM     15  F   UNL     1      32.463 -18.435 -23.839  0.00  0.00    -0.166 F 
ATOM     16  F   UNL     1      34.081 -17.110 -24.433  0.00  0.00    -0.166 F 
ATOM     17  C   UNL     1      33.822 -18.362 -23.953  0.00  0.00    +0.419 C 
ENDBRANCH  11  17
ENDBRANCH   2   8
BRANCH   1  18
ATOM     18  C   UNL     1      32.298 -23.018 -16.555  0.00  0.00    -0.069 C 
BRANCH  18  19
ATOM     19  C   UNL     1      33.159 -22.597 -15.365  0.00  0.00    +0.046 C 
BRANCH  19  21
ATOM     20  O   UNL     1      32.381 -24.181 -13.721  0.00  0.00    -0.291 OA
ATOM     21  C   UNL     1      33.329 -23.723 -14.356  0.00  0.00    +0.171 C 
BRANCH  21  22
ATOM     22  C   UNL     1      34.694 -24.287 -14.133  0.00  0.00    +0.039 C 
ATOM     23  C   UNL     1      35.421 -23.848 -13.051  0.00  0.00    +0.030 C 
ATOM     24  C   UNL     1      35.172 -25.224 -15.021  0.00  0.00    +0.043 C 
ATOM     25  C   UNL     1      36.696 -24.373 -12.845  0.00  0.00    +0.179 C 
ATOM     26  C   UNL     1      36.447 -25.751 -14.814  0.00  0.00    +0.169 C 
ATOM     27  C   UNL     1      37.208 -25.326 -13.726  0.00  0.00    +0.190 C 
BRANCH  25  30
ATOM     28  O   UNL     1      37.020 -24.140 -10.574  0.00  0.00    -0.126 OA
ATOM     29  O   UNL     1      38.544 -23.338 -11.935  0.00  0.00    -0.126 OA
ATOM     30  N   UNL     1      37.458 -23.928 -11.729  0.00  0.00    +0.061 N 
ENDBRANCH  25  30
BRANCH  26  31
ATOM     31  O   UNL     1      36.935 -26.680 -15.683  0.00  0.00    -0.503 OA
ATOM     32  H   UNL     1      37.751 -26.530 -16.120  0.00  0.00    +0.292 HD
ENDBRANCH  26  31
BRANCH  27  33
ATOM     33  O   UNL     1      38.455 -25.848 -13.534  0.00  0.00    -0.502 OA
ATOM     34  H   UNL     1      39.188 -25.277 -13.411  0.00  0.00    +0.292 HD
ENDBRANCH  27  33
ENDBRANCH  21  22
ENDBRANCH  19  21
ENDBRANCH  18  19
ENDBRANCH   1  18
TORSDOF 9
ENDMDL
MODEL 9
REMARK VINA RESULT:     -11.9      2.109      3.431
REMARK  Name = 4369285
REMARK  9 active torsions:
REMARK  status: ('A' for Active; 'I' for Inactive)
REMARK    1  A    between atoms: N_1  and  C_18
REMARK    2  A    between atoms: N_2  and  C_8
REMARK    3  A    between atoms: C_11  and  C_17
REMARK    4  A    between atoms: C_18  and  C_19
REMARK    5  A    between atoms: C_19  and  C_21
REMARK    6  A    between atoms: C_21  and  C_22
REMARK    7  A    between atoms: C_25  and  N_30
REMARK    8  A    between atoms: C_26  and  O_31
REMARK    9  A    between atoms: C_27  and  O_33
REMARK                            x       y       z     vdW  Elec       q    Type
REMARK                         _______ _______ _______ _____ _____    ______ ____
ROOT
ATOM      1  N   UNL     1      35.424 -19.927 -19.846  0.00  0.00    +0.390 N 
ATOM      2  N   UNL     1      34.710 -17.863 -21.686  0.00  0.00    -0.312 N 
ATOM      3  C   UNL     1      34.168 -20.006 -20.601  0.00  0.00    -0.055 C 
ATOM      4  C   UNL     1      36.454 -19.267 -20.658  0.00  0.00    -0.055 C 
ATOM      5  C   UNL     1      33.665 -18.612 -20.981  0.00  0.00    +0.068 C 
ATOM      6  C   UNL     1      36.028 -17.848 -21.040  0.00  0.00    +0.068 C 
ATOM      7  H   UNL     1      35.267 -19.375 -19.002  0.00  0.00    -0.080 HD
ENDROOT
BRANCH   2   8
ATOM      8  C   UNL     1      34.359 -16.771 -22.490  0.00  0.00    +0.048 C 
ATOM      9  C   UNL     1      34.136 -15.498 -21.929  0.00  0.00    +0.018 C 
ATOM     10  C   UNL     1      34.219 -16.914 -23.885  0.00  0.00    +0.015 C 
ATOM     11  C   UNL     1      33.787 -14.411 -22.730  0.00  0.00    +0.073 C 
ATOM     12  C   UNL     1      33.870 -15.826 -24.687  0.00  0.00    +0.001 C 
ATOM     13  C   UNL     1      33.654 -14.575 -24.109  0.00  0.00    +0.004 C 
BRANCH  11  17
ATOM     14  F   UNL     1      32.248 -12.842 -21.785  0.00  0.00    -0.166 F 
ATOM     15  F   UNL     1      34.253 -12.875 -20.957  0.00  0.00    -0.166 F 
ATOM     16  F   UNL     1      33.912 -12.046 -22.938  0.00  0.00    -0.166 F 
ATOM     17  C   UNL     1      33.554 -13.074 -22.113  0.00  0.00    +0.419 C 
ENDBRANCH  11  17
ENDBRANCH   2   8
BRANCH   1  18
ATOM     18  C   UNL     1      35.866 -21.261 -19.442  0.00  0.00    -0.069 C 
BRANCH  18  19
ATOM     19  C   UNL     1      35.286 -21.644 -18.080  0.00  0.00    +0.046 C 
BRANCH  19  21
ATOM     20  O   UNL     1      36.900 -20.260 -16.942  0.00  0.00    -0.291 OA
ATOM     21  C   UNL     1      36.227 -21.289 -16.938  0.00  0.00    +0.171 C 
BRANCH  21  22
ATOM     22  C   UNL     1      36.332 -22.223 -15.778  0.00  0.00    +0.039 C 
ATOM     23  C   UNL     1      35.198 -22.502 -15.052  0.00  0.00    +0.030 C 
ATOM     24  C   UNL     1      37.560 -22.768 -15.481  0.00  0.00    +0.043 C 
ATOM     25  C   UNL     1      35.297 -23.374 -13.968  0.00  0.00    +0.179 C 
ATOM     26  C   UNL     1      37.659 -23.641 -14.398  0.00  0.00    +0.169 C 
ATOM     27  C   UNL     1      36.527 -23.944 -13.641  0.00  0.00    +0.190 C 
BRANCH  25  30
ATOM     28  O   UNL     1      33.123 -24.126 -13.800  0.00  0.00    -0.126 OA
ATOM     29  O   UNL     1      34.147 -23.473 -11.971  0.00  0.00    -0.126 OA
ATOM     30  N   UNL     1      34.131 -23.672 -13.209  0.00  0.00    +0.061 N 
ENDBRANCH  25  30
BRANCH  26  31
ATOM     31  O   UNL     1      38.867 -24.189 -14.089  0.00  0.00    -0.503 OA
ATOM     32  H   UNL     1      39.157 -24.214 -13.198  0.00  0.00    +0.292 HD
ENDBRANCH  26  31
BRANCH  27  33
ATOM     33  O   UNL     1      36.636 -24.799 -12.582  0.00  0.00    -0.502 OA
ATOM     34  H   UNL     1      37.225 -24.603 -11.881  0.00  0.00    +0.292 HD
ENDBRANCH  27  33
ENDBRANCH  21  22
ENDBRANCH  19  21
ENDBRANCH  18  19
ENDBRANCH   1  18
TORSDOF 9
ENDMDL
