MODEL 1
REMARK VINA RESULT:     -12.5      0.000      0.000
REMARK  Name = 11998575
REMARK  7 active torsions:
REMARK  status: ('A' for Active; 'I' for Inactive)
REMARK    1  A    between atoms: C_6  and  C_18
REMARK    2  A    between atoms: C_14  and  O_22
REMARK    3  A    between atoms: C_15  and  O_16
REMARK    4  A    between atoms: C_18  and  O_20
REMARK    5  A    between atoms: O_22  and  C_23
REMARK    6  A    between atoms: C_23  and  C_24
REMARK    7  A    between atoms: C_29  and  O_30
REMARK                            x       y       z     vdW  Elec       q    Type
REMARK                         _______ _______ _______ _____ _____    ______ ____
ROOT
ATOM      1  O   UNL     1      36.932 -21.671 -17.153  0.00  0.00    -0.421 OA
ATOM      2  O   UNL     1      38.183 -22.326 -15.362  0.00  0.00    -0.244 OA
ATOM      3  C   UNL     1      34.602 -22.659 -15.890  0.00  0.00    +0.009 A 
ATOM      4  C   UNL     1      34.518 -22.037 -17.217  0.00  0.00    +0.038 A 
ATOM      5  C   UNL     1      35.852 -22.760 -15.253  0.00  0.00    +0.076 A 
ATOM      6  C   UNL     1      34.853 -23.845 -13.331  0.00  0.00    +0.004 C 
ATOM      7  C   UNL     1      35.688 -21.560 -17.810  0.00  0.00    +0.152 A 
ATOM      8  C   UNL     1      35.975 -23.348 -13.984  0.00  0.00    +0.004 C 
ATOM      9  C   UNL     1      33.484 -23.172 -15.204  0.00  0.00    +0.000 C 
ATOM     10  C   UNL     1      33.332 -21.879 -17.952  0.00  0.00    +0.043 C 
ATOM     11  C   UNL     1      33.608 -23.758 -13.940  0.00  0.00    -0.002 C 
ATOM     12  C   UNL     1      37.085 -22.248 -15.899  0.00  0.00    +0.346 A 
ATOM     13  C   UNL     1      35.711 -20.954 -19.070  0.00  0.00    +0.078 C 
ATOM     14  C   UNL     1      34.522 -20.812 -19.774  0.00  0.00    +0.176 C 
ATOM     15  C   UNL     1      33.333 -21.275 -19.217  0.00  0.00    +0.173 C 
ENDROOT
BRANCH  15  16
ATOM     16  O   UNL     1      32.158 -21.144 -19.895  0.00  0.00    -0.468 OA
ATOM     17  C   UNL     1      31.783 -19.827 -20.291  0.00  0.00    +0.253 C 
ENDBRANCH  15  16
BRANCH   6  18
ATOM     18  C   UNL     1      34.984 -24.471 -11.984  0.00  0.00    +0.133 C 
ATOM     19  C   UNL     1      36.423 -24.889 -11.663  0.00  0.00    +0.037 C 
BRANCH  18  20
ATOM     20  O   UNL     1      34.541 -23.557 -10.973  0.00  0.00    -0.380 OA
ATOM     21  H   UNL     1      34.974 -23.771 -10.132  0.00  0.00    +0.211 HD
ENDBRANCH  18  20
ENDBRANCH   6  18
BRANCH  14  22
ATOM     22  O   UNL     1      34.532 -20.225 -21.002  0.00  0.00    -0.467 OA
BRANCH  22  23
ATOM     23  C   UNL     1      35.347 -19.063 -21.158  0.00  0.00    +0.232 C 
BRANCH  23  24
ATOM     24  C   UNL     1      34.784 -18.217 -22.263  0.00  0.00    +0.021 C 
ATOM     25  C   UNL     1      34.093 -18.818 -23.307  0.00  0.00    +0.002 C 
ATOM     26  C   UNL     1      34.962 -16.837 -22.231  0.00  0.00    +0.002 C 
ATOM     27  C   UNL     1      33.570 -18.031 -24.334  0.00  0.00    +0.037 C 
ATOM     28  C   UNL     1      34.440 -16.050 -23.258  0.00  0.00    +0.037 C 
ATOM     29  C   UNL     1      33.745 -16.647 -24.309  0.00  0.00    +0.139 C 
BRANCH  29  30
ATOM     30  O   UNL     1      33.235 -15.879 -25.310  0.00  0.00    -0.471 OA
ATOM     31  C   UNL     1      33.147 -14.475 -25.073  0.00  0.00    +0.252 C 
ENDBRANCH  29  30
ENDBRANCH  23  24
ENDBRANCH  22  23
ENDBRANCH  14  22
TORSDOF 7
ENDMDL
MODEL 2
REMARK VINA RESULT:     -12.5      2.966      8.927
REMARK  Name = 11998575
REMARK  7 active torsions:
REMARK  status: ('A' for Active; 'I' for Inactive)
REMARK    1  A    between atoms: C_6  and  C_18
REMARK    2  A    between atoms: C_14  and  O_22
REMARK    3  A    between atoms: C_15  and  O_16
REMARK    4  A    between atoms: C_18  and  O_20
REMARK    5  A    between atoms: O_22  and  C_23
REMARK    6  A    between atoms: C_23  and  C_24
REMARK    7  A    between atoms: C_29  and  O_30
REMARK                            x       y       z     vdW  Elec       q    Type
REMARK                         _______ _______ _______ _____ _____    ______ ____
ROOT
ATOM      1  O   UNL     1      32.103 -21.741 -18.612  0.00  0.00    -0.421 OA
ATOM      2  O   UNL     1      31.593 -20.560 -20.495  0.00  0.00    -0.244 OA
ATOM      3  C   UNL     1      34.797 -20.903 -18.814  0.00  0.00    +0.009 A 
ATOM      4  C   UNL     1      34.374 -21.779 -17.714  0.00  0.00    +0.038 A 
ATOM      5  C   UNL     1      33.850 -20.485 -19.765  0.00  0.00    +0.076 A 
ATOM      6  C   UNL     1      35.528 -19.213 -20.965  0.00  0.00    +0.004 C 
ATOM      7  C   UNL     1      33.037 -22.173 -17.646  0.00  0.00    +0.152 A 
ATOM      8  C   UNL     1      34.213 -19.646 -20.832  0.00  0.00    +0.004 C 
ATOM      9  C   UNL     1      36.120 -20.448 -18.975  0.00  0.00    +0.000 C 
ATOM     10  C   UNL     1      35.224 -22.263 -16.706  0.00  0.00    +0.043 C 
ATOM     11  C   UNL     1      36.481 -19.613 -20.038  0.00  0.00    -0.002 C 
ATOM     12  C   UNL     1      32.433 -20.913 -19.677  0.00  0.00    +0.346 A 
ATOM     13  C   UNL     1      32.539 -23.006 -16.639  0.00  0.00    +0.078 C 
ATOM     14  C   UNL     1      33.404 -23.469 -15.656  0.00  0.00    +0.176 C 
ATOM     15  C   UNL     1      34.745 -23.099 -15.688  0.00  0.00    +0.173 C 
ENDROOT
BRANCH  15  16
ATOM     16  O   UNL     1      35.606 -23.546 -14.731  0.00  0.00    -0.468 OA
ATOM     17  C   UNL     1      36.983 -23.214 -14.895  0.00  0.00    +0.253 C 
ENDBRANCH  15  16
BRANCH   6  18
ATOM     18  C   UNL     1      35.913 -18.324 -22.098  0.00  0.00    +0.133 C 
ATOM     19  C   UNL     1      35.112 -17.018 -22.126  0.00  0.00    +0.037 C 
BRANCH  18  20
ATOM     20  O   UNL     1      37.306 -18.000 -22.016  0.00  0.00    -0.380 OA
ATOM     21  H   UNL     1      37.788 -18.468 -22.716  0.00  0.00    +0.211 HD
ENDBRANCH  18  20
ENDBRANCH   6  18
BRANCH  14  22
ATOM     22  O   UNL     1      32.930 -24.282 -14.671  0.00  0.00    -0.467 OA
BRANCH  22  23
ATOM     23  C   UNL     1      32.113 -23.678 -13.669  0.00  0.00    +0.232 C 
BRANCH  23  24
ATOM     24  C   UNL     1      30.725 -23.501 -14.211  0.00  0.00    +0.021 C 
ATOM     25  C   UNL     1      30.209 -22.221 -14.378  0.00  0.00    +0.002 C 
ATOM     26  C   UNL     1      29.966 -24.619 -14.540  0.00  0.00    +0.002 C 
ATOM     27  C   UNL     1      28.918 -22.056 -14.882  0.00  0.00    +0.037 C 
ATOM     28  C   UNL     1      28.675 -24.455 -15.043  0.00  0.00    +0.037 C 
ATOM     29  C   UNL     1      28.152 -23.173 -15.214  0.00  0.00    +0.139 C 
BRANCH  29  30
ATOM     30  O   UNL     1      26.893 -23.012 -15.706  0.00  0.00    -0.471 OA
ATOM     31  C   UNL     1      26.657 -21.868 -16.525  0.00  0.00    +0.252 C 
ENDBRANCH  29  30
ENDBRANCH  23  24
ENDBRANCH  22  23
ENDBRANCH  14  22
TORSDOF 7
ENDMDL
MODEL 3
REMARK VINA RESULT:     -11.6      6.690     11.792
REMARK  Name = 11998575
REMARK  7 active torsions:
REMARK  status: ('A' for Active; 'I' for Inactive)
REMARK    1  A    between atoms: C_6  and  C_18
REMARK    2  A    between atoms: C_14  and  O_22
REMARK    3  A    between atoms: C_15  and  O_16
REMARK    4  A    between atoms: C_18  and  O_20
REMARK    5  A    between atoms: O_22  and  C_23
REMARK    6  A    between atoms: C_23  and  C_24
REMARK    7  A    between atoms: C_29  and  O_30
REMARK                            x       y       z     vdW  Elec       q    Type
REMARK                         _______ _______ _______ _____ _____    ______ ____
ROOT
ATOM      1  O   UNL     1      32.865 -12.841 -24.221  0.00  0.00    -0.421 OA
ATOM      2  O   UNL     1      33.851 -14.593 -25.298  0.00  0.00    -0.244 OA
ATOM      3  C   UNL     1      33.356 -14.093 -21.733  0.00  0.00    +0.009 A 
ATOM      4  C   UNL     1      32.679 -12.791 -21.786  0.00  0.00    +0.038 A 
ATOM      5  C   UNL     1      33.757 -14.712 -22.930  0.00  0.00    +0.076 A 
ATOM      6  C   UNL     1      34.666 -16.603 -21.719  0.00  0.00    +0.004 C 
ATOM      7  C   UNL     1      32.453 -12.203 -23.032  0.00  0.00    +0.152 A 
ATOM      8  C   UNL     1      34.408 -15.956 -22.922  0.00  0.00    +0.004 C 
ATOM      9  C   UNL     1      33.631 -14.773 -20.530  0.00  0.00    +0.000 C 
ATOM     10  C   UNL     1      32.231 -12.077 -20.663  0.00  0.00    +0.043 C 
ATOM     11  C   UNL     1      34.278 -16.013 -20.523  0.00  0.00    -0.002 C 
ATOM     12  C   UNL     1      33.509 -14.072 -24.244  0.00  0.00    +0.346 A 
ATOM     13  C   UNL     1      31.817 -10.968 -23.186  0.00  0.00    +0.078 C 
ATOM     14  C   UNL     1      31.384 -10.284 -22.057  0.00  0.00    +0.176 C 
ATOM     15  C   UNL     1      31.590 -10.837 -20.796  0.00  0.00    +0.173 C 
ENDROOT
BRANCH  15  16
ATOM     16  O   UNL     1      31.171 -10.180 -19.678  0.00  0.00    -0.468 OA
ATOM     17  C   UNL     1      31.905  -9.018 -19.298  0.00  0.00    +0.253 C 
ENDBRANCH  15  16
BRANCH   6  18
ATOM     18  C   UNL     1      35.355 -17.925 -21.711  0.00  0.00    +0.133 C 
ATOM     19  C   UNL     1      34.739 -18.920 -22.700  0.00  0.00    +0.037 C 
BRANCH  18  20
ATOM     20  O   UNL     1      36.741 -17.758 -22.038  0.00  0.00    -0.380 OA
ATOM     21  H   UNL     1      37.261 -17.710 -21.221  0.00  0.00    +0.211 HD
ENDBRANCH  18  20
ENDBRANCH   6  18
BRANCH  14  22
ATOM     22  O   UNL     1      30.762  -9.081 -22.195  0.00  0.00    -0.467 OA
BRANCH  22  23
ATOM     23  C   UNL     1      31.104  -8.302 -23.341  0.00  0.00    +0.232 C 
BRANCH  23  24
ATOM     24  C   UNL     1      30.835  -6.855 -23.046  0.00  0.00    +0.021 C 
ATOM     25  C   UNL     1      30.758  -6.424 -21.727  0.00  0.00    +0.002 C 
ATOM     26  C   UNL     1      30.662  -5.959 -24.096  0.00  0.00    +0.002 C 
ATOM     27  C   UNL     1      30.507  -5.078 -21.453  0.00  0.00    +0.037 C 
ATOM     28  C   UNL     1      30.411  -4.614 -23.822  0.00  0.00    +0.037 C 
ATOM     29  C   UNL     1      30.333  -4.175 -22.501  0.00  0.00    +0.139 C 
BRANCH  29  30
ATOM     30  O   UNL     1      30.089  -2.863 -22.234  0.00  0.00    -0.471 OA
ATOM     31  C   UNL     1      30.907  -1.901 -22.897  0.00  0.00    +0.252 C 
ENDBRANCH  29  30
ENDBRANCH  23  24
ENDBRANCH  22  23
ENDBRANCH  14  22
TORSDOF 7
ENDMDL
MODEL 4
REMARK VINA RESULT:     -11.6      1.968      2.678
REMARK  Name = 11998575
REMARK  7 active torsions:
REMARK  status: ('A' for Active; 'I' for Inactive)
REMARK    1  A    between atoms: C_6  and  C_18
REMARK    2  A    between atoms: C_14  and  O_22
REMARK    3  A    between atoms: C_15  and  O_16
REMARK    4  A    between atoms: C_18  and  O_20
REMARK    5  A    between atoms: O_22  and  C_23
REMARK    6  A    between atoms: C_23  and  C_24
REMARK    7  A    between atoms: C_29  and  O_30
REMARK                            x       y       z     vdW  Elec       q    Type
REMARK                         _______ _______ _______ _____ _____    ______ ____
ROOT
ATOM      1  O   UNL     1      35.511 -22.532 -16.170  0.00  0.00    -0.421 OA
ATOM      2  O   UNL     1      35.437 -23.581 -14.147  0.00  0.00    -0.244 OA
ATOM      3  C   UNL     1      32.697 -22.719 -16.372  0.00  0.00    +0.009 A 
ATOM      4  C   UNL     1      33.476 -22.087 -17.445  0.00  0.00    +0.038 A 
ATOM      5  C   UNL     1      33.362 -23.230 -15.245  0.00  0.00    +0.076 A 
ATOM      6  C   UNL     1      31.269 -23.952 -14.261  0.00  0.00    +0.004 C 
ATOM      7  C   UNL     1      34.864 -22.012 -17.311  0.00  0.00    +0.152 A 
ATOM      8  C   UNL     1      32.654 -23.841 -14.198  0.00  0.00    +0.004 C 
ATOM      9  C   UNL     1      31.294 -22.846 -16.408  0.00  0.00    +0.000 C 
ATOM     10  C   UNL     1      32.927 -21.542 -18.617  0.00  0.00    +0.043 C 
ATOM     11  C   UNL     1      30.589 -23.455 -15.365  0.00  0.00    -0.002 C 
ATOM     12  C   UNL     1      34.837 -23.142 -15.120  0.00  0.00    +0.346 A 
ATOM     13  C   UNL     1      35.691 -21.432 -18.277  0.00  0.00    +0.078 C 
ATOM     14  C   UNL     1      35.120 -20.901 -19.426  0.00  0.00    +0.176 C 
ATOM     15  C   UNL     1      33.739 -20.955 -19.597  0.00  0.00    +0.173 C 
ENDROOT
BRANCH  15  16
ATOM     16  O   UNL     1      33.163 -20.440 -20.720  0.00  0.00    -0.468 OA
ATOM     17  C   UNL     1      31.905 -19.789 -20.560  0.00  0.00    +0.253 C 
ENDBRANCH  15  16
BRANCH   6  18
ATOM     18  C   UNL     1      30.518 -24.602 -13.149  0.00  0.00    +0.133 C 
ATOM     19  C   UNL     1      29.986 -23.595 -12.125  0.00  0.00    +0.037 C 
BRANCH  18  20
ATOM     20  O   UNL     1      29.410 -25.345 -13.674  0.00  0.00    -0.380 OA
ATOM     21  H   UNL     1      28.633 -25.206 -13.111  0.00  0.00    +0.211 HD
ENDBRANCH  18  20
ENDBRANCH   6  18
BRANCH  14  22
ATOM     22  O   UNL     1      35.916 -20.334 -20.374  0.00  0.00    -0.467 OA
BRANCH  22  23
ATOM     23  C   UNL     1      36.089 -18.919 -20.315  0.00  0.00    +0.232 C 
BRANCH  23  24
ATOM     24  C   UNL     1      35.394 -18.292 -21.489  0.00  0.00    +0.021 C 
ATOM     25  C   UNL     1      35.135 -16.927 -21.487  0.00  0.00    +0.002 C 
ATOM     26  C   UNL     1      35.015 -19.085 -22.568  0.00  0.00    +0.002 C 
ATOM     27  C   UNL     1      34.489 -16.344 -22.579  0.00  0.00    +0.037 C 
ATOM     28  C   UNL     1      34.369 -18.503 -23.658  0.00  0.00    +0.037 C 
ATOM     29  C   UNL     1      34.107 -17.133 -23.663  0.00  0.00    +0.139 C 
BRANCH  29  30
ATOM     30  O   UNL     1      33.477 -16.565 -24.728  0.00  0.00    -0.471 OA
ATOM     31  C   UNL     1      33.349 -15.144 -24.725  0.00  0.00    +0.252 C 
ENDBRANCH  29  30
ENDBRANCH  23  24
ENDBRANCH  22  23
ENDBRANCH  14  22
TORSDOF 7
ENDMDL
MODEL 5
REMARK VINA RESULT:     -11.5      1.810      3.186
REMARK  Name = 11998575
REMARK  7 active torsions:
REMARK  status: ('A' for Active; 'I' for Inactive)
REMARK    1  A    between atoms: C_6  and  C_18
REMARK    2  A    between atoms: C_14  and  O_22
REMARK    3  A    between atoms: C_15  and  O_16
REMARK    4  A    between atoms: C_18  and  O_20
REMARK    5  A    between atoms: O_22  and  C_23
REMARK    6  A    between atoms: C_23  and  C_24
REMARK    7  A    between atoms: C_29  and  O_30
REMARK                            x       y       z     vdW  Elec       q    Type
REMARK                         _______ _______ _______ _____ _____    ______ ____
ROOT
ATOM      1  O   UNL     1      32.001 -21.685 -18.363  0.00  0.00    -0.421 OA
ATOM      2  O   UNL     1      31.265 -22.879 -16.565  0.00  0.00    -0.244 OA
ATOM      3  C   UNL     1      34.656 -21.883 -17.410  0.00  0.00    +0.009 A 
ATOM      4  C   UNL     1      34.369 -21.167 -18.659  0.00  0.00    +0.038 A 
ATOM      5  C   UNL     1      33.599 -22.469 -16.692  0.00  0.00    +0.076 A 
ATOM      6  C   UNL     1      35.124 -23.281 -14.993  0.00  0.00    +0.004 C 
ATOM      7  C   UNL     1      33.046 -21.089 -19.100  0.00  0.00    +0.152 A 
ATOM      8  C   UNL     1      33.832 -23.162 -15.493  0.00  0.00    +0.004 C 
ATOM      9  C   UNL     1      35.953 -22.020 -16.878  0.00  0.00    +0.000 C 
ATOM     10  C   UNL     1      35.336 -20.541 -19.463  0.00  0.00    +0.043 C 
ATOM     11  C   UNL     1      36.184 -22.710 -15.684  0.00  0.00    -0.002 C 
ATOM     12  C   UNL     1      32.200 -22.376 -17.174  0.00  0.00    +0.346 A 
ATOM     13  C   UNL     1      32.672 -20.430 -20.274  0.00  0.00    +0.078 C 
ATOM     14  C   UNL     1      33.651 -19.819 -21.048  0.00  0.00    +0.176 C 
ATOM     15  C   UNL     1      34.982 -19.874 -20.644  0.00  0.00    +0.173 C 
ENDROOT
BRANCH  15  16
ATOM     16  O   UNL     1      35.954 -19.280 -21.392  0.00  0.00    -0.468 OA
ATOM     17  C   UNL     1      36.802 -18.347 -20.727  0.00  0.00    +0.253 C 
ENDBRANCH  15  16
BRANCH   6  18
ATOM     18  C   UNL     1      35.370 -24.016 -13.719  0.00  0.00    +0.133 C 
ATOM     19  C   UNL     1      34.264 -23.793 -12.683  0.00  0.00    +0.037 C 
BRANCH  18  20
ATOM     20  O   UNL     1      35.474 -25.422 -13.977  0.00  0.00    -0.380 OA
ATOM     21  H   UNL     1      36.176 -25.800 -13.424  0.00  0.00    +0.211 HD
ENDBRANCH  18  20
ENDBRANCH   6  18
BRANCH  14  22
ATOM     22  O   UNL     1      33.298 -19.173 -22.193  0.00  0.00    -0.467 OA
BRANCH  22  23
ATOM     23  C   UNL     1      34.356 -18.652 -22.997  0.00  0.00    +0.232 C 
BRANCH  23  24
ATOM     24  C   UNL     1      34.121 -17.187 -23.224  0.00  0.00    +0.021 C 
ATOM     25  C   UNL     1      33.603 -16.752 -24.437  0.00  0.00    +0.002 C 
ATOM     26  C   UNL     1      34.427 -16.277 -22.217  0.00  0.00    +0.002 C 
ATOM     27  C   UNL     1      33.385 -15.390 -24.648  0.00  0.00    +0.037 C 
ATOM     28  C   UNL     1      34.210 -14.915 -22.427  0.00  0.00    +0.037 C 
ATOM     29  C   UNL     1      33.689 -14.472 -23.643  0.00  0.00    +0.139 C 
BRANCH  29  30
ATOM     30  O   UNL     1      33.477 -13.143 -23.849  0.00  0.00    -0.471 OA
ATOM     31  C   UNL     1      32.605 -12.476 -22.938  0.00  0.00    +0.252 C 
ENDBRANCH  29  30
ENDBRANCH  23  24
ENDBRANCH  22  23
ENDBRANCH  14  22
TORSDOF 7
ENDMDL
MODEL 6
REMARK VINA RESULT:     -11.4      6.462     11.274
REMARK  Name = 11998575
REMARK  7 active torsions:
REMARK  status: ('A' for Active; 'I' for Inactive)
REMARK    1  A    between atoms: C_6  and  C_18
REMARK    2  A    between atoms: C_14  and  O_22
REMARK    3  A    between atoms: C_15  and  O_16
REMARK    4  A    between atoms: C_18  and  O_20
REMARK    5  A    between atoms: O_22  and  C_23
REMARK    6  A    between atoms: C_23  and  C_24
REMARK    7  A    between atoms: C_29  and  O_30
REMARK                            x       y       z     vdW  Elec       q    Type
REMARK                         _______ _______ _______ _____ _____    ______ ____
ROOT
ATOM      1  O   UNL     1      32.803 -12.729 -24.139  0.00  0.00    -0.421 OA
ATOM      2  O   UNL     1      33.877 -14.481 -25.127  0.00  0.00    -0.244 OA
ATOM      3  C   UNL     1      33.212 -13.908 -21.601  0.00  0.00    +0.009 A 
ATOM      4  C   UNL     1      32.507 -12.625 -21.717  0.00  0.00    +0.038 A 
ATOM      5  C   UNL     1      33.681 -14.545 -22.763  0.00  0.00    +0.076 A 
ATOM      6  C   UNL     1      34.580 -16.383 -21.465  0.00  0.00    +0.004 C 
ATOM      7  C   UNL     1      32.323 -12.072 -22.986  0.00  0.00    +0.152 A 
ATOM      8  C   UNL     1      34.360 -15.772 -22.695  0.00  0.00    +0.004 C 
ATOM      9  C   UNL     1      33.449 -14.550 -20.370  0.00  0.00    +0.000 C 
ATOM     10  C   UNL     1      31.992 -11.894 -20.634  0.00  0.00    +0.043 C 
ATOM     11  C   UNL     1      34.125 -15.773 -20.303  0.00  0.00    -0.002 C 
ATOM     12  C   UNL     1      33.476 -13.944 -24.103  0.00  0.00    +0.346 A 
ATOM     13  C   UNL     1      31.665 -10.858 -23.200  0.00  0.00    +0.078 C 
ATOM     14  C   UNL     1      31.166 -10.158 -22.109  0.00  0.00    +0.176 C 
ATOM     15  C   UNL     1      31.329 -10.675 -20.827  0.00  0.00    +0.173 C 
ENDROOT
BRANCH  15  16
ATOM     16  O   UNL     1      30.844 -10.001 -19.746  0.00  0.00    -0.468 OA
ATOM     17  C   UNL     1      31.781  -9.647 -18.731  0.00  0.00    +0.253 C 
ENDBRANCH  15  16
BRANCH   6  18
ATOM     18  C   UNL     1      35.299 -17.687 -21.393  0.00  0.00    +0.133 C 
ATOM     19  C   UNL     1      34.449 -18.861 -21.890  0.00  0.00    +0.037 C 
BRANCH  18  20
ATOM     20  O   UNL     1      36.497 -17.630 -22.177  0.00  0.00    -0.380 OA
ATOM     21  H   UNL     1      37.257 -17.865 -21.622  0.00  0.00    +0.211 HD
ENDBRANCH  18  20
ENDBRANCH   6  18
BRANCH  14  22
ATOM     22  O   UNL     1      30.522  -8.975 -22.305  0.00  0.00    -0.467 OA
BRANCH  22  23
ATOM     23  C   UNL     1      31.202  -7.789 -21.894  0.00  0.00    +0.232 C 
BRANCH  23  24
ATOM     24  C   UNL     1      31.896  -7.186 -23.080  0.00  0.00    +0.021 C 
ATOM     25  C   UNL     1      33.275  -7.020 -23.060  0.00  0.00    +0.002 C 
ATOM     26  C   UNL     1      31.150  -6.798 -24.189  0.00  0.00    +0.002 C 
ATOM     27  C   UNL     1      33.920  -6.459 -24.164  0.00  0.00    +0.037 C 
ATOM     28  C   UNL     1      31.794  -6.237 -25.292  0.00  0.00    +0.037 C 
ATOM     29  C   UNL     1      33.179  -6.068 -25.279  0.00  0.00    +0.139 C 
BRANCH  29  30
ATOM     30  O   UNL     1      33.808  -5.521 -26.355  0.00  0.00    -0.471 OA
ATOM     31  C   UNL     1      33.080  -5.480 -27.581  0.00  0.00    +0.252 C 
ENDBRANCH  29  30
ENDBRANCH  23  24
ENDBRANCH  22  23
ENDBRANCH  14  22
TORSDOF 7
ENDMDL
MODEL 7
REMARK VINA RESULT:     -11.4      7.901     15.297
REMARK  Name = 11998575
REMARK  7 active torsions:
REMARK  status: ('A' for Active; 'I' for Inactive)
REMARK    1  A    between atoms: C_6  and  C_18
REMARK    2  A    between atoms: C_14  and  O_22
REMARK    3  A    between atoms: C_15  and  O_16
REMARK    4  A    between atoms: C_18  and  O_20
REMARK    5  A    between atoms: O_22  and  C_23
REMARK    6  A    between atoms: C_23  and  C_24
REMARK    7  A    between atoms: C_29  and  O_30
REMARK                            x       y       z     vdW  Elec       q    Type
REMARK                         _______ _______ _______ _____ _____    ______ ____
ROOT
ATOM      1  O   UNL     1      31.442  -8.066 -24.419  0.00  0.00    -0.421 OA
ATOM      2  O   UNL     1      31.280  -6.236 -25.768  0.00  0.00    -0.244 OA
ATOM      3  C   UNL     1      31.015  -6.434 -22.149  0.00  0.00    +0.009 A 
ATOM      4  C   UNL     1      31.218  -7.880 -21.994  0.00  0.00    +0.038 A 
ATOM      5  C   UNL     1      31.036  -5.869 -23.436  0.00  0.00    +0.076 A 
ATOM      6  C   UNL     1      30.633  -3.655 -22.536  0.00  0.00    +0.004 C 
ATOM      7  C   UNL     1      31.425  -8.655 -23.137  0.00  0.00    +0.152 A 
ATOM      8  C   UNL     1      30.846  -4.491 -23.627  0.00  0.00    +0.004 C 
ATOM      9  C   UNL     1      30.797  -5.563 -21.064  0.00  0.00    +0.000 C 
ATOM     10  C   UNL     1      31.219  -8.560 -20.765  0.00  0.00    +0.043 C 
ATOM     11  C   UNL     1      30.609  -4.191 -21.255  0.00  0.00    -0.002 C 
ATOM     12  C   UNL     1      31.258  -6.708 -24.638  0.00  0.00    +0.346 A 
ATOM     13  C   UNL     1      31.629 -10.037 -23.092  0.00  0.00    +0.078 C 
ATOM     14  C   UNL     1      31.626 -10.682 -21.862  0.00  0.00    +0.176 C 
ATOM     15  C   UNL     1      31.422  -9.945 -20.699  0.00  0.00    +0.173 C 
ENDROOT
BRANCH  15  16
ATOM     16  O   UNL     1      31.416 -10.563 -19.484  0.00  0.00    -0.468 OA
ATOM     17  C   UNL     1      31.465  -9.724 -18.332  0.00  0.00    +0.253 C 
ENDBRANCH  15  16
BRANCH   6  18
ATOM     18  C   UNL     1      30.433  -2.192 -22.740  0.00  0.00    +0.133 C 
ATOM     19  C   UNL     1      30.469  -1.789 -24.217  0.00  0.00    +0.037 C 
BRANCH  18  20
ATOM     20  O   UNL     1      29.173  -1.788 -22.189  0.00  0.00    -0.380 OA
ATOM     21  H   UNL     1      29.259  -0.902 -21.805  0.00  0.00    +0.211 HD
ENDBRANCH  18  20
ENDBRANCH   6  18
BRANCH  14  22
ATOM     22  O   UNL     1      31.824 -12.028 -21.807  0.00  0.00    -0.467 OA
BRANCH  22  23
ATOM     23  C   UNL     1      32.685 -12.598 -22.792  0.00  0.00    +0.232 C 
BRANCH  23  24
ATOM     24  C   UNL     1      33.348 -13.816 -22.216  0.00  0.00    +0.021 C 
ATOM     25  C   UNL     1      33.966 -14.728 -23.063  0.00  0.00    +0.002 C 
ATOM     26  C   UNL     1      33.336 -14.021 -20.840  0.00  0.00    +0.002 C 
ATOM     27  C   UNL     1      34.582 -15.861 -22.528  0.00  0.00    +0.037 C 
ATOM     28  C   UNL     1      33.951 -15.152 -20.305  0.00  0.00    +0.037 C 
ATOM     29  C   UNL     1      34.573 -16.072 -21.149  0.00  0.00    +0.139 C 
BRANCH  29  30
ATOM     30  O   UNL     1      35.174 -17.176 -20.627  0.00  0.00    -0.471 OA
ATOM     31  C   UNL     1      35.066 -18.388 -21.372  0.00  0.00    +0.252 C 
ENDBRANCH  29  30
ENDBRANCH  23  24
ENDBRANCH  22  23
ENDBRANCH  14  22
TORSDOF 7
ENDMDL
MODEL 8
REMARK VINA RESULT:     -11.1      5.648     12.786
REMARK  Name = 11998575
REMARK  7 active torsions:
REMARK  status: ('A' for Active; 'I' for Inactive)
REMARK    1  A    between atoms: C_6  and  C_18
REMARK    2  A    between atoms: C_14  and  O_22
REMARK    3  A    between atoms: C_15  and  O_16
REMARK    4  A    between atoms: C_18  and  O_20
REMARK    5  A    between atoms: O_22  and  C_23
REMARK    6  A    between atoms: C_23  and  C_24
REMARK    7  A    between atoms: C_29  and  O_30
REMARK                            x       y       z     vdW  Elec       q    Type
REMARK                         _______ _______ _______ _____ _____    ______ ____
ROOT
ATOM      1  O   UNL     1      31.749 -11.477 -20.370  0.00  0.00    -0.421 OA
ATOM      2  O   UNL     1      31.088  -9.925 -18.835  0.00  0.00    -0.244 OA
ATOM      3  C   UNL     1      31.835  -9.471 -22.363  0.00  0.00    +0.009 A 
ATOM      4  C   UNL     1      32.179 -10.860 -22.694  0.00  0.00    +0.038 A 
ATOM      5  C   UNL     1      31.462  -9.148 -21.047  0.00  0.00    +0.076 A 
ATOM      6  C   UNL     1      31.157  -6.819 -21.640  0.00  0.00    +0.004 C 
ATOM      7  C   UNL     1      32.125 -11.824 -21.685  0.00  0.00    +0.152 A 
ATOM      8  C   UNL     1      31.126  -7.833 -20.689  0.00  0.00    +0.004 C 
ATOM      9  C   UNL     1      31.856  -8.424 -23.304  0.00  0.00    +0.000 C 
ATOM     10  C   UNL     1      32.564 -11.306 -23.969  0.00  0.00    +0.043 C 
ATOM     11  C   UNL     1      31.521  -7.114 -22.947  0.00  0.00    -0.002 C 
ATOM     12  C   UNL     1      31.410 -10.185 -19.988  0.00  0.00    +0.346 A 
ATOM     13  C   UNL     1      32.433 -13.170 -21.902  0.00  0.00    +0.078 C 
ATOM     14  C   UNL     1      32.810 -13.582 -23.174  0.00  0.00    +0.176 C 
ATOM     15  C   UNL     1      32.876 -12.651 -24.207  0.00  0.00    +0.173 C 
ENDROOT
BRANCH  15  16
ATOM     16  O   UNL     1      33.245 -13.039 -25.461  0.00  0.00    -0.468 OA
ATOM     17  C   UNL     1      32.360 -12.704 -26.527  0.00  0.00    +0.253 C 
ENDBRANCH  15  16
BRANCH   6  18
ATOM     18  C   UNL     1      30.799  -5.422 -21.260  0.00  0.00    +0.133 C 
ATOM     19  C   UNL     1      31.880  -4.408 -21.645  0.00  0.00    +0.037 C 
BRANCH  18  20
ATOM     20  O   UNL     1      29.572  -5.041 -21.894  0.00  0.00    -0.380 OA
ATOM     21  H   UNL     1      29.358  -5.678 -22.593  0.00  0.00    +0.211 HD
ENDBRANCH  18  20
ENDBRANCH   6  18
BRANCH  14  22
ATOM     22  O   UNL     1      33.111 -14.891 -23.396  0.00  0.00    -0.467 OA
BRANCH  22  23
ATOM     23  C   UNL     1      34.473 -15.282 -23.228  0.00  0.00    +0.232 C 
BRANCH  23  24
ATOM     24  C   UNL     1      34.517 -16.648 -22.609  0.00  0.00    +0.021 C 
ATOM     25  C   UNL     1      34.105 -17.752 -23.346  0.00  0.00    +0.002 C 
ATOM     26  C   UNL     1      34.967 -16.797 -21.301  0.00  0.00    +0.002 C 
ATOM     27  C   UNL     1      34.145 -19.022 -22.770  0.00  0.00    +0.037 C 
ATOM     28  C   UNL     1      35.007 -18.067 -20.725  0.00  0.00    +0.037 C 
ATOM     29  C   UNL     1      34.596 -19.179 -21.459  0.00  0.00    +0.139 C 
BRANCH  29  30
ATOM     30  O   UNL     1      34.635 -20.418 -20.898  0.00  0.00    -0.471 OA
ATOM     31  C   UNL     1      35.436 -20.576 -19.728  0.00  0.00    +0.252 C 
ENDBRANCH  29  30
ENDBRANCH  23  24
ENDBRANCH  22  23
ENDBRANCH  14  22
TORSDOF 7
ENDMDL
MODEL 9
REMARK VINA RESULT:     -10.9      4.451     11.769
REMARK  Name = 11998575
REMARK  7 active torsions:
REMARK  status: ('A' for Active; 'I' for Inactive)
REMARK    1  A    between atoms: C_6  and  C_18
REMARK    2  A    between atoms: C_14  and  O_22
REMARK    3  A    between atoms: C_15  and  O_16
REMARK    4  A    between atoms: C_18  and  O_20
REMARK    5  A    between atoms: O_22  and  C_23
REMARK    6  A    between atoms: C_23  and  C_24
REMARK    7  A    between atoms: C_29  and  O_30
REMARK                            x       y       z     vdW  Elec       q    Type
REMARK                         _______ _______ _______ _____ _____    ______ ____
ROOT
ATOM      1  O   UNL     1      32.399 -12.628 -19.757  0.00  0.00    -0.421 OA
ATOM      2  O   UNL     1      31.297 -10.745 -19.096  0.00  0.00    -0.244 OA
ATOM      3  C   UNL     1      32.561 -11.611 -22.391  0.00  0.00    +0.009 A 
ATOM      4  C   UNL     1      33.131 -12.925 -22.069  0.00  0.00    +0.038 A 
ATOM      5  C   UNL     1      31.934 -10.864 -21.379  0.00  0.00    +0.076 A 
ATOM      6  C   UNL     1      31.435  -9.069 -22.929  0.00  0.00    +0.004 C 
ATOM      7  C   UNL     1      33.033 -13.396 -20.758  0.00  0.00    +0.152 A 
ATOM      8  C   UNL     1      31.376  -9.603 -21.646  0.00  0.00    +0.004 C 
ATOM      9  C   UNL     1      32.605 -11.044 -23.680  0.00  0.00    +0.000 C 
ATOM     10  C   UNL     1      33.780 -13.763 -22.990  0.00  0.00    +0.043 C 
ATOM     11  C   UNL     1      32.049  -9.789 -23.945  0.00  0.00    -0.002 C 
ATOM     12  C   UNL     1      31.838 -11.380 -19.992  0.00  0.00    +0.346 A 
ATOM     13  C   UNL     1      33.543 -14.633 -20.353  0.00  0.00    +0.078 C 
ATOM     14  C   UNL     1      34.179 -15.441 -21.287  0.00  0.00    +0.176 C 
ATOM     15  C   UNL     1      34.297 -15.007 -22.605  0.00  0.00    +0.173 C 
ENDROOT
BRANCH  15  16
ATOM     16  O   UNL     1      34.918 -15.788 -23.534  0.00  0.00    -0.468 OA
ATOM     17  C   UNL     1      34.224 -16.012 -24.758  0.00  0.00    +0.253 C 
ENDBRANCH  15  16
BRANCH   6  18
ATOM     18  C   UNL     1      30.842  -7.731 -23.212  0.00  0.00    +0.133 C 
ATOM     19  C   UNL     1      31.181  -6.693 -22.137  0.00  0.00    +0.037 C 
BRANCH  18  20
ATOM     20  O   UNL     1      31.309  -7.245 -24.477  0.00  0.00    -0.380 OA
ATOM     21  H   UNL     1      31.793  -7.950 -24.934  0.00  0.00    +0.211 HD
ENDBRANCH  18  20
ENDBRANCH   6  18
BRANCH  14  22
ATOM     22  O   UNL     1      34.678 -16.648 -20.904  0.00  0.00    -0.467 OA
BRANCH  22  23
ATOM     23  C   UNL     1      34.329 -17.778 -21.704  0.00  0.00    +0.232 C 
BRANCH  23  24
ATOM     24  C   UNL     1      34.350 -19.009 -20.846  0.00  0.00    +0.021 C 
ATOM     25  C   UNL     1      33.155 -19.627 -20.499  0.00  0.00    +0.002 C 
ATOM     26  C   UNL     1      35.567 -19.519 -20.403  0.00  0.00    +0.002 C 
ATOM     27  C   UNL     1      33.174 -20.772 -19.701  0.00  0.00    +0.037 C 
ATOM     28  C   UNL     1      35.587 -20.663 -19.605  0.00  0.00    +0.037 C 
ATOM     29  C   UNL     1      34.390 -21.289 -19.255  0.00  0.00    +0.139 C 
BRANCH  29  30
ATOM     30  O   UNL     1      34.410 -22.405 -18.476  0.00  0.00    -0.471 OA
ATOM     31  C   UNL     1      33.565 -22.411 -17.327  0.00  0.00    +0.252 C 
ENDBRANCH  29  30
ENDBRANCH  23  24
ENDBRANCH  22  23
ENDBRANCH  14  22
TORSDOF 7
ENDMDL
