MODEL 1
REMARK VINA RESULT:     -13.3      0.000      0.000
REMARK  Name = 446129
REMARK  7 active torsions:
REMARK  status: ('A' for Active; 'I' for Inactive)
REMARK    1  A    between atoms: C_1  and  O_2
REMARK    2  A    between atoms: C_1  and  C_4
REMARK    3  A    between atoms: C_1  and  C_18
REMARK    4  A    between atoms: C_4  and  N_5
REMARK    5  A    between atoms: C_18  and  O_19
REMARK    6  A    between atoms: O_19  and  C_23
REMARK    7  A    between atoms: C_20  and  C_26
REMARK                            x       y       z     vdW  Elec       q    Type
REMARK                         _______ _______ _______ _____ _____    ______ ____
ROOT
ATOM      1  C   UNL     1      35.117 -17.528 -21.993  0.00  0.00    +0.133 C 
ENDROOT
BRANCH   1   2
ATOM      2  O   UNL     1      36.526 -17.759 -22.062  0.00  0.00    -0.383 OA
ATOM      3  H   UNL     1      36.990 -17.104 -21.517  0.00  0.00    +0.210 HD
ENDBRANCH   1   2
BRANCH   1   4
ATOM      4  C   UNL     1      34.677 -16.867 -23.301  0.00  0.00    -0.043 C 
BRANCH   4   5
ATOM      5  N   UNL     1      34.442 -15.432 -23.142  0.00  0.00    +0.391 N 
ATOM      6  N   UNL     1      32.923 -13.089 -22.543  0.00  0.00    -0.298 N 
ATOM      7  C   UNL     1      34.072 -15.121 -21.756  0.00  0.00    -0.055 C 
ATOM      8  C   UNL     1      33.387 -14.979 -24.055  0.00  0.00    -0.055 C 
ATOM      9  C   UNL     1      33.878 -13.615 -21.563  0.00  0.00    +0.069 C 
ATOM     10  C   UNL     1      33.170 -13.468 -23.940  0.00  0.00    +0.069 C 
ATOM     11  H   UNL     1      35.308 -14.941 -23.370  0.00  0.00    -0.079 HD
ATOM     12  N   UNL     1      32.425 -10.829 -23.168  0.00  0.00    -0.229 NA
ATOM     13  C   UNL     1      32.274 -11.873 -22.297  0.00  0.00    +0.132 C 
ATOM     14  C   UNL     1      31.478 -11.762 -21.149  0.00  0.00    +0.034 C 
ATOM     15  C   UNL     1      30.827 -10.560 -20.890  0.00  0.00    +0.004 C 
ATOM     16  C   UNL     1      31.777  -9.676 -22.884  0.00  0.00    +0.100 C 
ATOM     17  C   UNL     1      30.974  -9.493 -21.769  0.00  0.00    +0.021 C 
ENDBRANCH   4   5
ENDBRANCH   1   4
BRANCH   1  18
ATOM     18  C   UNL     1      34.415 -18.858 -21.722  0.00  0.00    +0.232 C 
BRANCH  18  19
ATOM     19  O   UNL     1      35.258 -19.664 -20.905  0.00  0.00    -0.473 OA
BRANCH  19  23
ATOM     20  C   UNL     1      33.392 -21.953 -17.988  0.00  0.00    -0.022 C 
ATOM     21  C   UNL     1      32.626 -21.251 -18.919  0.00  0.00    -0.001 C 
ATOM     22  C   UNL     1      34.784 -21.885 -18.036  0.00  0.00    -0.001 C 
ATOM     23  C   UNL     1      34.642 -20.419 -19.942  0.00  0.00    +0.139 C 
ATOM     24  C   UNL     1      33.253 -20.483 -19.899  0.00  0.00    +0.037 C 
ATOM     25  C   UNL     1      35.411 -21.115 -19.016  0.00  0.00    +0.037 C 
BRANCH  20  26
ATOM     26  C   UNL     1      32.709 -22.788 -16.921  0.00  0.00    +0.022 C 
ATOM     27  C   UNL     1      33.481 -22.762 -15.590  0.00  0.00    +0.004 C 
ATOM     28  C   UNL     1      31.244 -22.369 -16.716  0.00  0.00    +0.004 C 
ATOM     29  C   UNL     1      32.790 -23.614 -14.526  0.00  0.00    +0.000 C 
ATOM     30  C   UNL     1      30.562 -23.222 -15.647  0.00  0.00    +0.000 C 
ATOM     31  C   UNL     1      31.334 -23.200 -14.332  0.00  0.00    +0.000 C 
ENDBRANCH  20  26
ENDBRANCH  19  23
ENDBRANCH  18  19
ENDBRANCH   1  18
TORSDOF 7
ENDMDL
MODEL 2
REMARK VINA RESULT:     -12.9      3.000     11.171
REMARK  Name = 446129
REMARK  7 active torsions:
REMARK  status: ('A' for Active; 'I' for Inactive)
REMARK    1  A    between atoms: C_1  and  O_2
REMARK    2  A    between atoms: C_1  and  C_4
REMARK    3  A    between atoms: C_1  and  C_18
REMARK    4  A    between atoms: C_4  and  N_5
REMARK    5  A    between atoms: C_18  and  O_19
REMARK    6  A    between atoms: O_19  and  C_23
REMARK    7  A    between atoms: C_20  and  C_26
REMARK                            x       y       z     vdW  Elec       q    Type
REMARK                         _______ _______ _______ _____ _____    ______ ____
ROOT
ATOM      1  C   UNL     1      33.268 -14.817 -23.928  0.00  0.00    +0.133 C 
ENDROOT
BRANCH   1   2
ATOM      2  O   UNL     1      32.519 -14.587 -25.125  0.00  0.00    -0.383 OA
ATOM      3  H   UNL     1      31.772 -14.001 -24.931  0.00  0.00    +0.210 HD
ENDBRANCH   1   2
BRANCH   1   4
ATOM      4  C   UNL     1      34.587 -15.492 -24.313  0.00  0.00    -0.043 C 
BRANCH   4   5
ATOM      5  N   UNL     1      34.825 -16.713 -23.544  0.00  0.00    +0.391 N 
ATOM      6  N   UNL     1      34.307 -18.668 -21.527  0.00  0.00    -0.298 N 
ATOM      7  C   UNL     1      33.692 -17.637 -23.678  0.00  0.00    -0.055 C 
ATOM      8  C   UNL     1      35.046 -16.395 -22.128  0.00  0.00    -0.055 C 
ATOM      9  C   UNL     1      33.955 -18.942 -22.924  0.00  0.00    +0.069 C 
ATOM     10  C   UNL     1      35.354 -17.659 -21.322  0.00  0.00    +0.069 C 
ATOM     11  H   UNL     1      35.663 -17.163 -23.915  0.00  0.00    -0.079 HD
ATOM     12  N   UNL     1      35.257 -20.100 -19.855  0.00  0.00    -0.229 NA
ATOM     13  C   UNL     1      34.167 -19.674 -20.565  0.00  0.00    +0.132 C 
ATOM     14  C   UNL     1      32.895 -20.225 -20.354  0.00  0.00    +0.034 C 
ATOM     15  C   UNL     1      32.740 -21.227 -19.402  0.00  0.00    +0.004 C 
ATOM     16  C   UNL     1      35.068 -21.075 -18.938  0.00  0.00    +0.100 C 
ATOM     17  C   UNL     1      33.841 -21.665 -18.676  0.00  0.00    +0.021 C 
ENDBRANCH   4   5
ENDBRANCH   1   4
BRANCH   1  18
ATOM     18  C   UNL     1      33.460 -13.484 -23.206  0.00  0.00    +0.232 C 
BRANCH  18  19
ATOM     19  O   UNL     1      32.308 -13.222 -22.411  0.00  0.00    -0.473 OA
BRANCH  19  23
ATOM     20  C   UNL     1      31.439  -9.235 -21.649  0.00  0.00    -0.022 C 
ATOM     21  C   UNL     1      31.085 -10.215 -20.722  0.00  0.00    -0.001 C 
ATOM     22  C   UNL     1      32.083  -9.595 -22.833  0.00  0.00    -0.001 C 
ATOM     23  C   UNL     1      32.020 -11.907 -22.160  0.00  0.00    +0.139 C 
ATOM     24  C   UNL     1      31.377 -11.555 -20.978  0.00  0.00    +0.037 C 
ATOM     25  C   UNL     1      32.374 -10.935 -23.089  0.00  0.00    +0.037 C 
BRANCH  20  26
ATOM     26  C   UNL     1      31.120  -7.778 -21.371  0.00  0.00    +0.022 C 
ATOM     27  C   UNL     1      32.205  -7.107 -20.510  0.00  0.00    +0.004 C 
ATOM     28  C   UNL     1      30.880  -6.987 -22.668  0.00  0.00    +0.004 C 
ATOM     29  C   UNL     1      31.870  -5.644 -20.228  0.00  0.00    +0.000 C 
ATOM     30  C   UNL     1      30.550  -5.524 -22.378  0.00  0.00    +0.000 C 
ATOM     31  C   UNL     1      31.623  -4.865 -21.517  0.00  0.00    +0.000 C 
ENDBRANCH  20  26
ENDBRANCH  19  23
ENDBRANCH  18  19
ENDBRANCH   1  18
TORSDOF 7
ENDMDL
MODEL 3
REMARK VINA RESULT:     -12.4      2.479      5.005
REMARK  Name = 446129
REMARK  7 active torsions:
REMARK  status: ('A' for Active; 'I' for Inactive)
REMARK    1  A    between atoms: C_1  and  O_2
REMARK    2  A    between atoms: C_1  and  C_4
REMARK    3  A    between atoms: C_1  and  C_18
REMARK    4  A    between atoms: C_4  and  N_5
REMARK    5  A    between atoms: C_18  and  O_19
REMARK    6  A    between atoms: O_19  and  C_23
REMARK    7  A    between atoms: C_20  and  C_26
REMARK                            x       y       z     vdW  Elec       q    Type
REMARK                         _______ _______ _______ _____ _____    ______ ____
ROOT
ATOM      1  C   UNL     1      33.107 -13.340 -23.767  0.00  0.00    +0.133 C 
ENDROOT
BRANCH   1   2
ATOM      2  O   UNL     1      32.409 -14.066 -24.783  0.00  0.00    -0.383 OA
ATOM      3  H   UNL     1      32.435 -15.013 -24.578  0.00  0.00    +0.210 HD
ENDBRANCH   1   2
BRANCH   1   4
ATOM      4  C   UNL     1      32.088 -12.892 -22.716  0.00  0.00    -0.043 C 
BRANCH   4   5
ATOM      5  N   UNL     1      32.261 -11.487 -22.345  0.00  0.00    +0.391 N 
ATOM      6  N   UNL     1      31.816  -8.671 -22.515  0.00  0.00    -0.298 N 
ATOM      7  C   UNL     1      30.986 -10.909 -21.906  0.00  0.00    -0.055 C 
ATOM      8  C   UNL     1      32.795 -10.719 -23.476  0.00  0.00    -0.055 C 
ATOM      9  C   UNL     1      31.165  -9.456 -21.461  0.00  0.00    +0.069 C 
ATOM     10  C   UNL     1      33.036  -9.259 -23.084  0.00  0.00    +0.069 C 
ATOM     11  H   UNL     1      32.927 -11.443 -21.573  0.00  0.00    -0.079 HD
ATOM     12  N   UNL     1      32.813  -6.493 -22.439  0.00  0.00    -0.229 NA
ATOM     13  C   UNL     1      31.695  -7.277 -22.519  0.00  0.00    +0.132 C 
ATOM     14  C   UNL     1      30.412  -6.718 -22.606  0.00  0.00    +0.034 C 
ATOM     15  C   UNL     1      30.275  -5.334 -22.609  0.00  0.00    +0.004 C 
ATOM     16  C   UNL     1      32.641  -5.151 -22.445  0.00  0.00    +0.100 C 
ATOM     17  C   UNL     1      31.406  -4.529 -22.529  0.00  0.00    +0.021 C 
ENDBRANCH   4   5
ENDBRANCH   1   4
BRANCH   1  18
ATOM     18  C   UNL     1      34.209 -14.231 -23.198  0.00  0.00    +0.232 C 
BRANCH  18  19
ATOM     19  O   UNL     1      34.191 -15.480 -23.882  0.00  0.00    -0.473 OA
BRANCH  19  23
ATOM     20  C   UNL     1      34.438 -18.896 -21.538  0.00  0.00    -0.022 C 
ATOM     21  C   UNL     1      34.817 -17.661 -21.013  0.00  0.00    -0.001 C 
ATOM     22  C   UNL     1      33.978 -18.983 -22.852  0.00  0.00    -0.001 C 
ATOM     23  C   UNL     1      34.273 -16.607 -23.109  0.00  0.00    +0.139 C 
ATOM     24  C   UNL     1      34.733 -16.513 -21.800  0.00  0.00    +0.037 C 
ATOM     25  C   UNL     1      33.896 -17.835 -23.640  0.00  0.00    +0.037 C 
BRANCH  20  26
ATOM     26  C   UNL     1      34.530 -20.145 -20.682  0.00  0.00    +0.022 C 
ATOM     27  C   UNL     1      35.742 -20.104 -19.734  0.00  0.00    +0.004 C 
ATOM     28  C   UNL     1      33.230 -20.400 -19.901  0.00  0.00    +0.004 C 
ATOM     29  C   UNL     1      35.830 -21.370 -18.884  0.00  0.00    +0.000 C 
ATOM     30  C   UNL     1      33.328 -21.665 -19.049  0.00  0.00    +0.000 C 
ATOM     31  C   UNL     1      34.535 -21.624 -18.117  0.00  0.00    +0.000 C 
ENDBRANCH  20  26
ENDBRANCH  19  23
ENDBRANCH  18  19
ENDBRANCH   1  18
TORSDOF 7
ENDMDL
MODEL 4
REMARK VINA RESULT:     -12.3      1.310      2.017
REMARK  Name = 446129
REMARK  7 active torsions:
REMARK  status: ('A' for Active; 'I' for Inactive)
REMARK    1  A    between atoms: C_1  and  O_2
REMARK    2  A    between atoms: C_1  and  C_4
REMARK    3  A    between atoms: C_1  and  C_18
REMARK    4  A    between atoms: C_4  and  N_5
REMARK    5  A    between atoms: C_18  and  O_19
REMARK    6  A    between atoms: O_19  and  C_23
REMARK    7  A    between atoms: C_20  and  C_26
REMARK                            x       y       z     vdW  Elec       q    Type
REMARK                         _______ _______ _______ _____ _____    ______ ____
ROOT
ATOM      1  C   UNL     1      35.195 -17.851 -21.356  0.00  0.00    +0.133 C 
ENDROOT
BRANCH   1   2
ATOM      2  O   UNL     1      36.529 -18.363 -21.323  0.00  0.00    -0.383 OA
ATOM      3  H   UNL     1      37.065 -17.914 -21.995  0.00  0.00    +0.210 HD
ENDBRANCH   1   2
BRANCH   1   4
ATOM      4  C   UNL     1      34.953 -17.237 -22.737  0.00  0.00    -0.043 C 
BRANCH   4   5
ATOM      5  N   UNL     1      34.701 -15.798 -22.663  0.00  0.00    +0.391 N 
ATOM      6  N   UNL     1      33.121 -13.440 -22.341  0.00  0.00    -0.298 N 
ATOM      7  C   UNL     1      34.171 -15.434 -21.344  0.00  0.00    -0.055 C 
ATOM      8  C   UNL     1      33.759 -15.387 -23.712  0.00  0.00    -0.055 C 
ATOM      9  C   UNL     1      33.956 -13.922 -21.236  0.00  0.00    +0.069 C 
ATOM     10  C   UNL     1      33.531 -13.873 -23.682  0.00  0.00    +0.069 C 
ATOM     11  H   UNL     1      35.587 -15.313 -22.809  0.00  0.00    -0.079 HD
ATOM     12  N   UNL     1      32.699 -11.209 -23.109  0.00  0.00    -0.229 NA
ATOM     13  C   UNL     1      32.448 -12.219 -22.221  0.00  0.00    +0.132 C 
ATOM     14  C   UNL     1      31.523 -12.065 -21.179  0.00  0.00    +0.034 C 
ATOM     15  C   UNL     1      30.847 -10.858 -21.046  0.00  0.00    +0.004 C 
ATOM     16  C   UNL     1      32.023 -10.049 -22.949  0.00  0.00    +0.100 C 
ATOM     17  C   UNL     1      31.095  -9.826 -21.944  0.00  0.00    +0.021 C 
ENDBRANCH   4   5
ENDBRANCH   1   4
BRANCH   1  18
ATOM     18  C   UNL     1      34.227 -18.985 -21.021  0.00  0.00    +0.232 C 
BRANCH  18  19
ATOM     19  O   UNL     1      34.967 -20.193 -20.875  0.00  0.00    -0.473 OA
BRANCH  19  23
ATOM     20  C   UNL     1      35.086 -21.863 -17.077  0.00  0.00    -0.022 C 
ATOM     21  C   UNL     1      33.945 -22.006 -17.866  0.00  0.00    -0.001 C 
ATOM     22  C   UNL     1      36.186 -21.158 -17.564  0.00  0.00    -0.001 C 
ATOM     23  C   UNL     1      35.006 -20.743 -19.622  0.00  0.00    +0.139 C 
ATOM     24  C   UNL     1      33.905 -21.445 -19.142  0.00  0.00    +0.037 C 
ATOM     25  C   UNL     1      36.146 -20.596 -18.840  0.00  0.00    +0.037 C 
BRANCH  20  26
ATOM     26  C   UNL     1      35.129 -22.472 -15.688  0.00  0.00    +0.022 C 
ATOM     27  C   UNL     1      34.040 -23.542 -15.497  0.00  0.00    +0.004 C 
ATOM     28  C   UNL     1      36.520 -23.037 -15.353  0.00  0.00    +0.004 C 
ATOM     29  C   UNL     1      34.086 -24.142 -14.093  0.00  0.00    +0.000 C 
ATOM     30  C   UNL     1      36.556 -23.639 -13.950  0.00  0.00    +0.000 C 
ATOM     31  C   UNL     1      35.470 -24.693 -13.761  0.00  0.00    +0.000 C 
ENDBRANCH  20  26
ENDBRANCH  19  23
ENDBRANCH  18  19
ENDBRANCH   1  18
TORSDOF 7
ENDMDL
MODEL 5
REMARK VINA RESULT:     -11.9      4.332     11.378
REMARK  Name = 446129
REMARK  7 active torsions:
REMARK  status: ('A' for Active; 'I' for Inactive)
REMARK    1  A    between atoms: C_1  and  O_2
REMARK    2  A    between atoms: C_1  and  C_4
REMARK    3  A    between atoms: C_1  and  C_18
REMARK    4  A    between atoms: C_4  and  N_5
REMARK    5  A    between atoms: C_18  and  O_19
REMARK    6  A    between atoms: O_19  and  C_23
REMARK    7  A    between atoms: C_20  and  C_26
REMARK                            x       y       z     vdW  Elec       q    Type
REMARK                         _______ _______ _______ _____ _____    ______ ____
ROOT
ATOM      1  C   UNL     1      34.146 -21.424 -19.036  0.00  0.00    +0.133 C 
ENDROOT
BRANCH   1   2
ATOM      2  O   UNL     1      34.223 -22.676 -19.721  0.00  0.00    -0.383 OA
ATOM      3  H   UNL     1      33.462 -22.767 -20.316  0.00  0.00    +0.210 HD
ENDBRANCH   1   2
BRANCH   1   4
ATOM      4  C   UNL     1      35.531 -21.107 -18.466  0.00  0.00    -0.043 C 
BRANCH   4   5
ATOM      5  N   UNL     1      35.871 -21.967 -17.333  0.00  0.00    +0.391 N 
ATOM      6  N   UNL     1      36.042 -22.708 -14.580  0.00  0.00    -0.298 N 
ATOM      7  C   UNL     1      34.663 -22.338 -16.587  0.00  0.00    -0.055 C 
ATOM      8  C   UNL     1      36.822 -21.293 -16.441  0.00  0.00    -0.055 C 
ATOM      9  C   UNL     1      34.998 -23.285 -15.432  0.00  0.00    +0.069 C 
ATOM     10  C   UNL     1      37.230 -22.205 -15.282  0.00  0.00    +0.069 C 
ATOM     11  H   UNL     1      36.307 -22.815 -17.698  0.00  0.00    -0.079 HD
ATOM     12  N   UNL     1      37.388 -23.718 -12.873  0.00  0.00    -0.229 NA
ATOM     13  C   UNL     1      36.200 -23.166 -13.267  0.00  0.00    +0.132 C 
ATOM     14  C   UNL     1      35.118 -23.046 -12.383  0.00  0.00    +0.034 C 
ATOM     15  C   UNL     1      35.259 -23.498 -11.075  0.00  0.00    +0.004 C 
ATOM     16  C   UNL     1      37.488 -24.146 -11.594  0.00  0.00    +0.100 C 
ATOM     17  C   UNL     1      36.463 -24.059 -10.666  0.00  0.00    +0.021 C 
ENDBRANCH   4   5
ENDBRANCH   1   4
BRANCH   1  18
ATOM     18  C   UNL     1      33.637 -20.363 -20.011  0.00  0.00    +0.232 C 
BRANCH  18  19
ATOM     19  O   UNL     1      34.700 -19.990 -20.882  0.00  0.00    -0.473 OA
BRANCH  19  23
ATOM     20  C   UNL     1      34.322 -16.350 -22.839  0.00  0.00    -0.022 C 
ATOM     21  C   UNL     1      34.709 -16.384 -21.500  0.00  0.00    -0.001 C 
ATOM     22  C   UNL     1      34.061 -17.538 -23.520  0.00  0.00    -0.001 C 
ATOM     23  C   UNL     1      34.575 -18.789 -21.527  0.00  0.00    +0.139 C 
ATOM     24  C   UNL     1      34.837 -17.607 -20.842  0.00  0.00    +0.037 C 
ATOM     25  C   UNL     1      34.187 -18.762 -22.862  0.00  0.00    +0.037 C 
BRANCH  20  26
ATOM     26  C   UNL     1      34.182 -15.019 -23.554  0.00  0.00    +0.022 C 
ATOM     27  C   UNL     1      33.225 -15.109 -24.755  0.00  0.00    +0.004 C 
ATOM     28  C   UNL     1      33.755 -13.895 -22.594  0.00  0.00    +0.004 C 
ATOM     29  C   UNL     1      33.100 -13.767 -25.473  0.00  0.00    +0.000 C 
ATOM     30  C   UNL     1      33.627 -12.557 -23.320  0.00  0.00    +0.000 C 
ATOM     31  C   UNL     1      32.684 -12.653 -24.515  0.00  0.00    +0.000 C 
ENDBRANCH  20  26
ENDBRANCH  19  23
ENDBRANCH  18  19
ENDBRANCH   1  18
TORSDOF 7
ENDMDL
MODEL 6
REMARK VINA RESULT:     -11.9      3.545     10.868
REMARK  Name = 446129
REMARK  7 active torsions:
REMARK  status: ('A' for Active; 'I' for Inactive)
REMARK    1  A    between atoms: C_1  and  O_2
REMARK    2  A    between atoms: C_1  and  C_4
REMARK    3  A    between atoms: C_1  and  C_18
REMARK    4  A    between atoms: C_4  and  N_5
REMARK    5  A    between atoms: C_18  and  O_19
REMARK    6  A    between atoms: O_19  and  C_23
REMARK    7  A    between atoms: C_20  and  C_26
REMARK                            x       y       z     vdW  Elec       q    Type
REMARK                         _______ _______ _______ _____ _____    ______ ____
ROOT
ATOM      1  C   UNL     1      34.127 -19.554 -20.624  0.00  0.00    +0.133 C 
ENDROOT
BRANCH   1   2
ATOM      2  O   UNL     1      32.741 -19.781 -20.355  0.00  0.00    -0.383 OA
ATOM      3  H   UNL     1      32.254 -18.947 -20.443  0.00  0.00    +0.210 HD
ENDBRANCH   1   2
BRANCH   1   4
ATOM      4  C   UNL     1      34.905 -20.802 -20.198  0.00  0.00    -0.043 C 
BRANCH   4   5
ATOM      5  N   UNL     1      34.842 -21.024 -18.754  0.00  0.00    +0.391 N 
ATOM      6  N   UNL     1      35.190 -22.480 -16.321  0.00  0.00    -0.298 N 
ATOM      7  C   UNL     1      36.185 -21.244 -18.206  0.00  0.00    -0.055 C 
ATOM      8  C   UNL     1      33.982 -22.174 -18.448  0.00  0.00    -0.055 C 
ATOM      9  C   UNL     1      36.137 -21.422 -16.687  0.00  0.00    +0.069 C 
ATOM     10  C   UNL     1      33.861 -22.383 -16.936  0.00  0.00    +0.069 C 
ATOM     11  H   UNL     1      34.441 -20.191 -18.322  0.00  0.00    -0.079 HD
ATOM     12  N   UNL     1      34.246 -23.052 -14.194  0.00  0.00    -0.229 NA
ATOM     13  C   UNL     1      35.293 -23.104 -15.073  0.00  0.00    +0.132 C 
ATOM     14  C   UNL     1      36.484 -23.771 -14.756  0.00  0.00    +0.034 C 
ATOM     15  C   UNL     1      36.602 -24.395 -13.518  0.00  0.00    +0.004 C 
ATOM     16  C   UNL     1      34.396 -23.670 -13.001  0.00  0.00    +0.100 C 
ATOM     17  C   UNL     1      35.543 -24.349 -12.619  0.00  0.00    +0.021 C 
ENDBRANCH   4   5
ENDBRANCH   1   4
BRANCH   1  18
ATOM     18  C   UNL     1      34.290 -19.218 -22.105  0.00  0.00    +0.232 C 
BRANCH  18  19
ATOM     19  O   UNL     1      35.239 -18.164 -22.236  0.00  0.00    -0.473 OA
BRANCH  19  23
ATOM     20  C   UNL     1      33.786 -14.290 -21.901  0.00  0.00    -0.022 C 
ATOM     21  C   UNL     1      34.022 -15.048 -20.754  0.00  0.00    -0.001 C 
ATOM     22  C   UNL     1      34.038 -14.834 -23.160  0.00  0.00    -0.001 C 
ATOM     23  C   UNL     1      34.759 -16.886 -22.125  0.00  0.00    +0.139 C 
ATOM     24  C   UNL     1      34.511 -16.349 -20.866  0.00  0.00    +0.037 C 
ATOM     25  C   UNL     1      34.525 -16.137 -23.273  0.00  0.00    +0.037 C 
BRANCH  20  26
ATOM     26  C   UNL     1      33.254 -12.875 -21.778  0.00  0.00    +0.022 C 
ATOM     27  C   UNL     1      32.942 -12.257 -23.153  0.00  0.00    +0.004 C 
ATOM     28  C   UNL     1      32.029 -12.802 -20.851  0.00  0.00    +0.004 C 
ATOM     29  C   UNL     1      32.415 -10.829 -23.018  0.00  0.00    +0.000 C 
ATOM     30  C   UNL     1      31.506 -11.372 -20.725  0.00  0.00    +0.000 C 
ATOM     31  C   UNL     1      31.205 -10.761 -22.090  0.00  0.00    +0.000 C 
ENDBRANCH  20  26
ENDBRANCH  19  23
ENDBRANCH  18  19
ENDBRANCH   1  18
TORSDOF 7
ENDMDL
MODEL 7
REMARK VINA RESULT:     -11.8      3.091     10.444
REMARK  Name = 446129
REMARK  7 active torsions:
REMARK  status: ('A' for Active; 'I' for Inactive)
REMARK    1  A    between atoms: C_1  and  O_2
REMARK    2  A    between atoms: C_1  and  C_4
REMARK    3  A    between atoms: C_1  and  C_18
REMARK    4  A    between atoms: C_4  and  N_5
REMARK    5  A    between atoms: C_18  and  O_19
REMARK    6  A    between atoms: O_19  and  C_23
REMARK    7  A    between atoms: C_20  and  C_26
REMARK                            x       y       z     vdW  Elec       q    Type
REMARK                         _______ _______ _______ _____ _____    ______ ____
ROOT
ATOM      1  C   UNL     1      36.308 -19.153 -21.035  0.00  0.00    +0.133 C 
ENDROOT
BRANCH   1   2
ATOM      2  O   UNL     1      36.761 -18.562 -19.814  0.00  0.00    -0.383 OA
ATOM      3  H   UNL     1      36.173 -18.825 -19.089  0.00  0.00    +0.210 HD
ENDBRANCH   1   2
BRANCH   1   4
ATOM      4  C   UNL     1      34.884 -19.670 -20.815  0.00  0.00    -0.043 C 
BRANCH   4   5
ATOM      5  N   UNL     1      34.843 -20.783 -19.867  0.00  0.00    +0.391 N 
ATOM      6  N   UNL     1      34.402 -22.045 -17.343  0.00  0.00    -0.298 N 
ATOM      7  C   UNL     1      33.479 -20.984 -19.366  0.00  0.00    -0.055 C 
ATOM      8  C   UNL     1      35.757 -20.537 -18.745  0.00  0.00    -0.055 C 
ATOM      9  C   UNL     1      33.412 -22.183 -18.416  0.00  0.00    +0.069 C 
ATOM     10  C   UNL     1      35.767 -21.721 -17.774  0.00  0.00    +0.069 C 
ATOM     11  H   UNL     1      35.143 -21.628 -20.356  0.00  0.00    -0.079 HD
ATOM     12  N   UNL     1      35.205 -23.651 -15.755  0.00  0.00    -0.229 NA
ATOM     13  C   UNL     1      34.242 -22.765 -16.154  0.00  0.00    +0.132 C 
ATOM     14  C   UNL     1      33.081 -22.554 -15.396  0.00  0.00    +0.034 C 
ATOM     15  C   UNL     1      32.907 -23.263 -14.212  0.00  0.00    +0.004 C 
ATOM     16  C   UNL     1      35.001 -24.322 -14.599  0.00  0.00    +0.100 C 
ATOM     17  C   UNL     1      33.881 -24.165 -13.799  0.00  0.00    +0.021 C 
ENDBRANCH   4   5
ENDBRANCH   1   4
BRANCH   1  18
ATOM     18  C   UNL     1      36.407 -18.111 -22.149  0.00  0.00    +0.232 C 
BRANCH  18  19
ATOM     19  O   UNL     1      35.098 -17.838 -22.641  0.00  0.00    -0.473 OA
BRANCH  19  23
ATOM     20  C   UNL     1      33.645 -13.996 -22.048  0.00  0.00    -0.022 C 
ATOM     21  C   UNL     1      33.830 -14.479 -23.343  0.00  0.00    -0.001 C 
ATOM     22  C   UNL     1      33.949 -14.804 -20.953  0.00  0.00    -0.001 C 
ATOM     23  C   UNL     1      34.619 -16.571 -22.446  0.00  0.00    +0.139 C 
ATOM     24  C   UNL     1      34.318 -15.770 -23.543  0.00  0.00    +0.037 C 
ATOM     25  C   UNL     1      34.438 -16.095 -21.152  0.00  0.00    +0.037 C 
BRANCH  20  26
ATOM     26  C   UNL     1      33.115 -12.591 -21.832  0.00  0.00    +0.022 C 
ATOM     27  C   UNL     1      32.744 -11.906 -23.159  0.00  0.00    +0.004 C 
ATOM     28  C   UNL     1      31.929 -12.571 -20.852  0.00  0.00    +0.004 C 
ATOM     29  C   UNL     1      32.220 -10.490 -22.931  0.00  0.00    +0.000 C 
ATOM     30  C   UNL     1      31.409 -11.151 -20.633  0.00  0.00    +0.000 C 
ATOM     31  C   UNL     1      31.050 -10.473 -21.951  0.00  0.00    +0.000 C 
ENDBRANCH  20  26
ENDBRANCH  19  23
ENDBRANCH  18  19
ENDBRANCH   1  18
TORSDOF 7
ENDMDL
MODEL 8
REMARK VINA RESULT:     -11.6      4.909     10.041
REMARK  Name = 446129
REMARK  7 active torsions:
REMARK  status: ('A' for Active; 'I' for Inactive)
REMARK    1  A    between atoms: C_1  and  O_2
REMARK    2  A    between atoms: C_1  and  C_4
REMARK    3  A    between atoms: C_1  and  C_18
REMARK    4  A    between atoms: C_4  and  N_5
REMARK    5  A    between atoms: C_18  and  O_19
REMARK    6  A    between atoms: O_19  and  C_23
REMARK    7  A    between atoms: C_20  and  C_26
REMARK                            x       y       z     vdW  Elec       q    Type
REMARK                         _______ _______ _______ _____ _____    ______ ____
ROOT
ATOM      1  C   UNL     1      36.834 -22.308 -15.787  0.00  0.00    +0.133 C 
ENDROOT
BRANCH   1   2
ATOM      2  O   UNL     1      37.229 -21.723 -14.543  0.00  0.00    -0.383 OA
ATOM      3  H   UNL     1      37.510 -20.807 -14.690  0.00  0.00    +0.210 HD
ENDBRANCH   1   2
BRANCH   1   4
ATOM      4  C   UNL     1      35.804 -23.401 -15.494  0.00  0.00    -0.043 C 
BRANCH   4   5
ATOM      5  N   UNL     1      34.434 -22.890 -15.528  0.00  0.00    +0.391 N 
ATOM      6  N   UNL     1      31.585 -23.069 -15.637  0.00  0.00    -0.298 N 
ATOM      7  C   UNL     1      33.675 -23.371 -14.368  0.00  0.00    -0.055 C 
ATOM      8  C   UNL     1      33.763 -23.298 -16.768  0.00  0.00    -0.055 C 
ATOM      9  C   UNL     1      32.256 -22.797 -14.362  0.00  0.00    +0.069 C 
ATOM     10  C   UNL     1      32.347 -22.722 -16.843  0.00  0.00    +0.069 C 
ATOM     11  H   UNL     1      34.474 -21.871 -15.496  0.00  0.00    -0.079 HD
ATOM     12  N   UNL     1      29.569 -22.156 -16.557  0.00  0.00    -0.229 NA
ATOM     13  C   UNL     1      30.188 -23.033 -15.709  0.00  0.00    +0.132 C 
ATOM     14  C   UNL     1      29.454 -23.908 -14.896  0.00  0.00    +0.034 C 
ATOM     15  C   UNL     1      28.065 -23.882 -14.955  0.00  0.00    +0.004 C 
ATOM     16  C   UNL     1      28.217 -22.159 -16.588  0.00  0.00    +0.100 C 
ATOM     17  C   UNL     1      27.427 -22.995 -15.815  0.00  0.00    +0.021 C 
ENDBRANCH   4   5
ENDBRANCH   1   4
BRANCH   1  18
ATOM     18  C   UNL     1      36.301 -21.204 -16.698  0.00  0.00    +0.232 C 
BRANCH  18  19
ATOM     19  O   UNL     1      36.126 -21.733 -18.009  0.00  0.00    -0.473 OA
BRANCH  19  23
ATOM     20  C   UNL     1      34.616 -19.147 -20.883  0.00  0.00    -0.022 C 
ATOM     21  C   UNL     1      35.957 -19.067 -20.509  0.00  0.00    -0.001 C 
ATOM     22  C   UNL     1      33.782 -20.095 -20.290  0.00  0.00    -0.001 C 
ATOM     23  C   UNL     1      35.628 -20.880 -18.956  0.00  0.00    +0.139 C 
ATOM     24  C   UNL     1      36.465 -19.937 -19.544  0.00  0.00    +0.037 C 
ATOM     25  C   UNL     1      34.290 -20.963 -19.323  0.00  0.00    +0.037 C 
BRANCH  20  26
ATOM     26  C   UNL     1      34.064 -18.201 -21.932  0.00  0.00    +0.022 C 
ATOM     27  C   UNL     1      34.828 -16.866 -21.961  0.00  0.00    +0.004 C 
ATOM     28  C   UNL     1      34.034 -18.848 -23.327  0.00  0.00    +0.004 C 
ATOM     29  C   UNL     1      34.258 -15.917 -23.014  0.00  0.00    +0.000 C 
ATOM     30  C   UNL     1      33.467 -17.892 -24.376  0.00  0.00    +0.000 C 
ATOM     31  C   UNL     1      34.223 -16.566 -24.395  0.00  0.00    +0.000 C 
ENDBRANCH  20  26
ENDBRANCH  19  23
ENDBRANCH  18  19
ENDBRANCH   1  18
TORSDOF 7
ENDMDL
MODEL 9
REMARK VINA RESULT:     -11.3      5.789     10.143
REMARK  Name = 446129
REMARK  7 active torsions:
REMARK  status: ('A' for Active; 'I' for Inactive)
REMARK    1  A    between atoms: C_1  and  O_2
REMARK    2  A    between atoms: C_1  and  C_4
REMARK    3  A    between atoms: C_1  and  C_18
REMARK    4  A    between atoms: C_4  and  N_5
REMARK    5  A    between atoms: C_18  and  O_19
REMARK    6  A    between atoms: O_19  and  C_23
REMARK    7  A    between atoms: C_20  and  C_26
REMARK                            x       y       z     vdW  Elec       q    Type
REMARK                         _______ _______ _______ _____ _____    ______ ____
ROOT
ATOM      1  C   UNL     1      34.684 -23.445 -13.524  0.00  0.00    +0.133 C 
ENDROOT
BRANCH   1   2
ATOM      2  O   UNL     1      35.201 -22.841 -12.335  0.00  0.00    -0.383 OA
ATOM      3  H   UNL     1      34.606 -22.130 -12.049  0.00  0.00    +0.210 HD
ENDBRANCH   1   2
BRANCH   1   4
ATOM      4  C   UNL     1      33.277 -23.964 -13.222  0.00  0.00    -0.043 C 
BRANCH   4   5
ATOM      5  N   UNL     1      32.266 -23.346 -14.080  0.00  0.00    +0.391 N 
ATOM      6  N   UNL     1      29.622 -22.738 -14.974  0.00  0.00    -0.298 N 
ATOM      7  C   UNL     1      31.406 -22.448 -13.300  0.00  0.00    -0.055 C 
ATOM      8  C   UNL     1      31.449 -24.375 -14.736  0.00  0.00    -0.055 C 
ATOM      9  C   UNL     1      30.380 -21.752 -14.197  0.00  0.00    +0.069 C 
ATOM     10  C   UNL     1      30.425 -23.743 -15.682  0.00  0.00    +0.069 C 
ATOM     11  H   UNL     1      32.748 -22.802 -14.797  0.00  0.00    -0.079 HD
ATOM     12  N   UNL     1      28.181 -22.448 -16.867  0.00  0.00    -0.229 NA
ATOM     13  C   UNL     1      28.380 -22.389 -15.515  0.00  0.00    +0.132 C 
ATOM     14  C   UNL     1      27.361 -21.984 -14.641  0.00  0.00    +0.034 C 
ATOM     15  C   UNL     1      26.121 -21.633 -15.164  0.00  0.00    +0.004 C 
ATOM     16  C   UNL     1      26.963 -22.100 -17.339  0.00  0.00    +0.100 C 
ATOM     17  C   UNL     1      25.910 -21.690 -16.537  0.00  0.00    +0.021 C 
ENDBRANCH   4   5
ENDBRANCH   1   4
BRANCH   1  18
ATOM     18  C   UNL     1      34.719 -22.415 -14.652  0.00  0.00    +0.232 C 
BRANCH  18  19
ATOM     19  O   UNL     1      34.427 -23.069 -15.882  0.00  0.00    -0.473 OA
BRANCH  19  23
ATOM     20  C   UNL     1      34.988 -20.856 -19.349  0.00  0.00    -0.022 C 
ATOM     21  C   UNL     1      33.758 -21.466 -19.102  0.00  0.00    -0.001 C 
ATOM     22  C   UNL     1      36.029 -20.992 -18.431  0.00  0.00    -0.001 C 
ATOM     23  C   UNL     1      34.612 -22.340 -17.026  0.00  0.00    +0.139 C 
ATOM     24  C   UNL     1      33.569 -22.209 -17.937  0.00  0.00    +0.037 C 
ATOM     25  C   UNL     1      35.841 -21.736 -17.267  0.00  0.00    +0.037 C 
BRANCH  20  26
ATOM     26  C   UNL     1      35.193 -20.049 -20.616  0.00  0.00    +0.022 C 
ATOM     27  C   UNL     1      33.892 -19.370 -21.082  0.00  0.00    +0.004 C 
ATOM     28  C   UNL     1      36.326 -19.019 -20.462  0.00  0.00    +0.004 C 
ATOM     29  C   UNL     1      34.108 -18.567 -22.364  0.00  0.00    +0.000 C 
ATOM     30  C   UNL     1      36.532 -18.218 -21.747  0.00  0.00    +0.000 C 
ATOM     31  C   UNL     1      35.238 -17.554 -22.209  0.00  0.00    +0.000 C 
ENDBRANCH  20  26
ENDBRANCH  19  23
ENDBRANCH  18  19
ENDBRANCH   1  18
TORSDOF 7
ENDMDL
