MODEL 1
REMARK VINA RESULT:     -14.8      0.000      0.000
REMARK  Name = 67335295
REMARK  6 active torsions:
REMARK  status: ('A' for Active; 'I' for Inactive)
REMARK    1  A    between atoms: N_2  and  C_14
REMARK    2  A    between atoms: C_7  and  O_20
REMARK    3  A    between atoms: O_20  and  C_21
REMARK    4  A    between atoms: C_21  and  C_23
REMARK    5  A    between atoms: C_22  and  C_28
REMARK    6  A    between atoms: C_28  and  N_30
REMARK                            x       y       z     vdW  Elec       q    Type
REMARK                         _______ _______ _______ _____ _____    ______ ____
ROOT
ATOM      1  O   UNL     1      33.473 -23.891 -12.284  0.00  0.00    -0.270 OA
ATOM      2  N   UNL     1      34.442 -23.756 -14.435  0.00  0.00    -0.265 N 
ATOM      3  C   UNL     1      34.001 -23.377 -15.772  0.00  0.00    +0.124 C 
ATOM      4  C   UNL     1      32.573 -23.019 -15.535  0.00  0.00    +0.036 C 
ATOM      5  C   UNL     1      33.439 -23.655 -13.478  0.00  0.00    +0.249 C 
ATOM      6  C   UNL     1      32.245 -23.183 -14.188  0.00  0.00    +0.054 C 
ATOM      7  C   UNL     1      31.622 -22.578 -16.436  0.00  0.00    +0.137 C 
ATOM      8  C   UNL     1      30.984 -22.922 -13.690  0.00  0.00    +0.004 C 
ATOM      9  C   UNL     1      30.337 -22.307 -15.958  0.00  0.00    +0.037 C 
ATOM     10  C   UNL     1      30.021 -22.477 -14.596  0.00  0.00    +0.003 C 
ENDROOT
BRANCH   2  14
ATOM     11  O   UNL     1      36.469 -21.986 -14.848  0.00  0.00    -0.273 OA
ATOM     12  O   UNL     1      39.608 -25.334 -15.231  0.00  0.00    -0.275 OA
ATOM     13  N   UNL     1      38.001 -23.691 -15.055  0.00  0.00    -0.254 N 
ATOM     14  C   UNL     1      35.781 -24.191 -14.136  0.00  0.00    +0.153 C 
ATOM     15  C   UNL     1      36.041 -25.587 -14.681  0.00  0.00    +0.039 C 
ATOM     16  C   UNL     1      37.471 -25.990 -14.372  0.00  0.00    +0.088 C 
ATOM     17  C   UNL     1      36.744 -23.180 -14.731  0.00  0.00    +0.246 C 
ATOM     18  C   UNL     1      38.459 -25.000 -14.941  0.00  0.00    +0.228 C 
ATOM     19  H   UNL     1      38.648 -23.039 -15.410  0.00  0.00    +0.158 HD
ENDBRANCH   2  14
BRANCH   7  20
ATOM     20  O   UNL     1      31.917 -22.413 -17.751  0.00  0.00    -0.471 OA
BRANCH  20  21
ATOM     21  C   UNL     1      33.241 -22.748 -18.169  0.00  0.00    +0.232 C 
BRANCH  21  23
ATOM     22  C   UNL     1      34.806 -19.544 -20.556  0.00  0.00    -0.043 C 
ATOM     23  C   UNL     1      33.789 -21.629 -19.005  0.00  0.00    +0.021 C 
ATOM     24  C   UNL     1      35.677 -20.396 -19.874  0.00  0.00    -0.007 C 
ATOM     25  C   UNL     1      33.428 -19.735 -20.462  0.00  0.00    -0.007 C 
ATOM     26  C   UNL     1      35.167 -21.439 -19.099  0.00  0.00    -0.001 C 
ATOM     27  C   UNL     1      32.919 -20.778 -19.687  0.00  0.00    -0.001 C 
BRANCH  22  28
ATOM     28  C   UNL     1      35.351 -18.430 -21.384  0.00  0.00    -0.050 C 
BRANCH  28  30
ATOM     29  O   UNL     1      33.628 -16.995 -24.932  0.00  0.00    -0.358 OA
ATOM     30  N   UNL     1      34.375 -17.924 -22.347  0.00  0.00    +0.393 N 
ATOM     31  C   UNL     1      34.758 -16.588 -22.824  0.00  0.00    -0.044 C 
ATOM     32  C   UNL     1      34.238 -18.845 -23.484  0.00  0.00    -0.044 C 
ATOM     33  C   UNL     1      33.225 -18.290 -24.481  0.00  0.00    +0.119 C 
ATOM     34  C   UNL     1      33.732 -16.086 -23.836  0.00  0.00    +0.119 C 
ATOM     35  H   UNL     1      33.475 -17.855 -21.873  0.00  0.00    -0.079 HD
ENDBRANCH  28  30
ENDBRANCH  22  28
ENDBRANCH  21  23
ENDBRANCH  20  21
ENDBRANCH   7  20
TORSDOF 6
ENDMDL
MODEL 2
REMARK VINA RESULT:     -14.2      1.386      1.993
REMARK  Name = 67335295
REMARK  6 active torsions:
REMARK  status: ('A' for Active; 'I' for Inactive)
REMARK    1  A    between atoms: N_2  and  C_14
REMARK    2  A    between atoms: C_7  and  O_20
REMARK    3  A    between atoms: O_20  and  C_21
REMARK    4  A    between atoms: C_21  and  C_23
REMARK    5  A    between atoms: C_22  and  C_28
REMARK    6  A    between atoms: C_28  and  N_30
REMARK                            x       y       z     vdW  Elec       q    Type
REMARK                         _______ _______ _______ _____ _____    ______ ____
ROOT
ATOM      1  O   UNL     1      32.782 -24.098 -12.956  0.00  0.00    -0.270 OA
ATOM      2  N   UNL     1      34.483 -24.091 -14.596  0.00  0.00    -0.265 N 
ATOM      3  C   UNL     1      34.617 -23.652 -15.979  0.00  0.00    +0.124 C 
ATOM      4  C   UNL     1      33.259 -23.103 -16.260  0.00  0.00    +0.036 C 
ATOM      5  C   UNL     1      33.220 -23.857 -14.066  0.00  0.00    +0.249 C 
ATOM      6  C   UNL     1      32.441 -23.224 -15.137  0.00  0.00    +0.054 C 
ATOM      7  C   UNL     1      32.770 -22.535 -17.422  0.00  0.00    +0.137 C 
ATOM      8  C   UNL     1      31.129 -22.794 -15.119  0.00  0.00    +0.004 C 
ATOM      9  C   UNL     1      31.444 -22.091 -17.431  0.00  0.00    +0.037 C 
ATOM     10  C   UNL     1      30.631 -22.220 -16.289  0.00  0.00    +0.003 C 
ENDROOT
BRANCH   2  14
ATOM     11  O   UNL     1      36.322 -22.453 -13.434  0.00  0.00    -0.273 OA
ATOM     12  O   UNL     1      39.518 -25.764 -13.308  0.00  0.00    -0.275 OA
ATOM     13  N   UNL     1      37.897 -24.130 -13.411  0.00  0.00    -0.254 N 
ATOM     14  C   UNL     1      35.552 -24.706 -13.853  0.00  0.00    +0.153 C 
ATOM     15  C   UNL     1      36.145 -25.882 -14.613  0.00  0.00    +0.039 C 
ATOM     16  C   UNL     1      37.287 -26.476 -13.809  0.00  0.00    +0.088 C 
ATOM     17  C   UNL     1      36.600 -23.643 -13.578  0.00  0.00    +0.246 C 
ATOM     18  C   UNL     1      38.347 -25.443 -13.507  0.00  0.00    +0.228 C 
ATOM     19  H   UNL     1      38.582 -23.456 -13.198  0.00  0.00    +0.158 HD
ENDBRANCH   2  14
BRANCH   7  20
ATOM     20  O   UNL     1      33.547 -22.408 -18.528  0.00  0.00    -0.471 OA
BRANCH  20  21
ATOM     21  C   UNL     1      34.706 -21.580 -18.420  0.00  0.00    +0.232 C 
BRANCH  21  23
ATOM     22  C   UNL     1      34.772 -18.832 -21.715  0.00  0.00    -0.043 C 
ATOM     23  C   UNL     1      34.729 -20.618 -19.571  0.00  0.00    +0.021 C 
ATOM     24  C   UNL     1      33.568 -19.416 -21.316  0.00  0.00    -0.007 C 
ATOM     25  C   UNL     1      35.953 -19.142 -21.041  0.00  0.00    -0.007 C 
ATOM     26  C   UNL     1      33.547 -20.308 -20.244  0.00  0.00    -0.001 C 
ATOM     27  C   UNL     1      35.932 -20.034 -19.969  0.00  0.00    -0.001 C 
BRANCH  22  28
ATOM     28  C   UNL     1      34.794 -17.878 -22.861  0.00  0.00    -0.050 C 
BRANCH  28  30
ATOM     29  O   UNL     1      34.001 -13.822 -22.128  0.00  0.00    -0.358 OA
ATOM     30  N   UNL     1      34.087 -16.634 -22.562  0.00  0.00    +0.393 N 
ATOM     31  C   UNL     1      34.593 -16.032 -21.321  0.00  0.00    -0.044 C 
ATOM     32  C   UNL     1      34.217 -15.681 -23.673  0.00  0.00    -0.044 C 
ATOM     33  C   UNL     1      33.482 -14.387 -23.334  0.00  0.00    +0.119 C 
ATOM     34  C   UNL     1      33.849 -14.730 -21.037  0.00  0.00    +0.119 C 
ATOM     35  H   UNL     1      33.100 -16.858 -22.437  0.00  0.00    -0.079 HD
ENDBRANCH  28  30
ENDBRANCH  22  28
ENDBRANCH  21  23
ENDBRANCH  20  21
ENDBRANCH   7  20
TORSDOF 6
ENDMDL
MODEL 3
REMARK VINA RESULT:     -13.9      5.463      9.793
REMARK  Name = 67335295
REMARK  6 active torsions:
REMARK  status: ('A' for Active; 'I' for Inactive)
REMARK    1  A    between atoms: N_2  and  C_14
REMARK    2  A    between atoms: C_7  and  O_20
REMARK    3  A    between atoms: O_20  and  C_21
REMARK    4  A    between atoms: C_21  and  C_23
REMARK    5  A    between atoms: C_22  and  C_28
REMARK    6  A    between atoms: C_28  and  N_30
REMARK                            x       y       z     vdW  Elec       q    Type
REMARK                         _______ _______ _______ _____ _____    ______ ____
ROOT
ATOM      1  O   UNL     1      34.345 -19.601 -23.833  0.00  0.00    -0.270 OA
ATOM      2  N   UNL     1      34.550 -18.722 -21.649  0.00  0.00    -0.265 N 
ATOM      3  C   UNL     1      34.518 -17.401 -21.034  0.00  0.00    +0.124 C 
ATOM      4  C   UNL     1      34.297 -16.517 -22.214  0.00  0.00    +0.036 C 
ATOM      5  C   UNL     1      34.373 -18.689 -23.028  0.00  0.00    +0.249 C 
ATOM      6  C   UNL     1      34.212 -17.274 -23.383  0.00  0.00    +0.054 C 
ATOM      7  C   UNL     1      34.177 -15.141 -22.264  0.00  0.00    +0.137 C 
ATOM      8  C   UNL     1      34.009 -16.708 -24.626  0.00  0.00    +0.004 C 
ATOM      9  C   UNL     1      33.971 -14.542 -23.510  0.00  0.00    +0.037 C 
ATOM     10  C   UNL     1      33.887 -15.319 -24.681  0.00  0.00    +0.003 C 
ENDROOT
BRANCH   2  14
ATOM     11  O   UNL     1      32.335 -19.995 -20.706  0.00  0.00    -0.273 OA
ATOM     12  O   UNL     1      34.712 -22.155 -17.407  0.00  0.00    -0.275 OA
ATOM     13  N   UNL     1      33.557 -21.036 -19.058  0.00  0.00    -0.254 N 
ATOM     14  C   UNL     1      34.743 -19.939 -20.905  0.00  0.00    +0.153 C 
ATOM     15  C   UNL     1      35.866 -19.789 -19.890  0.00  0.00    +0.039 C 
ATOM     16  C   UNL     1      36.012 -21.082 -19.108  0.00  0.00    +0.088 C 
ATOM     17  C   UNL     1      33.430 -20.285 -20.226  0.00  0.00    +0.246 C 
ATOM     18  C   UNL     1      34.720 -21.464 -18.426  0.00  0.00    +0.228 C 
ATOM     19  H   UNL     1      32.712 -21.298 -18.626  0.00  0.00    +0.158 HD
ENDBRANCH   2  14
BRANCH   7  20
ATOM     20  O   UNL     1      34.258 -14.383 -21.140  0.00  0.00    -0.471 OA
BRANCH  20  21
ATOM     21  C   UNL     1      33.035 -14.078 -20.469  0.00  0.00    +0.232 C 
BRANCH  21  23
ATOM     22  C   UNL     1      31.534 -10.333 -21.932  0.00  0.00    -0.043 C 
ATOM     23  C   UNL     1      32.508 -12.770 -20.981  0.00  0.00    +0.021 C 
ATOM     24  C   UNL     1      32.314 -11.144 -22.758  0.00  0.00    -0.007 C 
ATOM     25  C   UNL     1      31.242 -10.741 -20.631  0.00  0.00    -0.007 C 
ATOM     26  C   UNL     1      32.801 -12.362 -22.283  0.00  0.00    -0.001 C 
ATOM     27  C   UNL     1      31.729 -11.960 -20.155  0.00  0.00    -0.001 C 
BRANCH  22  28
ATOM     28  C   UNL     1      31.015  -9.032 -22.440  0.00  0.00    -0.050 C 
BRANCH  28  30
ATOM     29  O   UNL     1      32.989  -5.327 -22.442  0.00  0.00    -0.358 OA
ATOM     30  N   UNL     1      31.847  -7.902 -22.030  0.00  0.00    +0.393 N 
ATOM     31  C   UNL     1      32.947  -7.693 -22.981  0.00  0.00    -0.044 C 
ATOM     32  C   UNL     1      31.043  -6.678 -21.912  0.00  0.00    -0.044 C 
ATOM     33  C   UNL     1      31.934  -5.511 -21.495  0.00  0.00    +0.119 C 
ATOM     34  C   UNL     1      33.793  -6.503 -22.539  0.00  0.00    +0.119 C 
ATOM     35  H   UNL     1      32.243  -8.122 -21.116  0.00  0.00    -0.079 HD
ENDBRANCH  28  30
ENDBRANCH  22  28
ENDBRANCH  21  23
ENDBRANCH  20  21
ENDBRANCH   7  20
TORSDOF 6
ENDMDL
MODEL 4
REMARK VINA RESULT:     -13.7      7.523     14.817
REMARK  Name = 67335295
REMARK  6 active torsions:
REMARK  status: ('A' for Active; 'I' for Inactive)
REMARK    1  A    between atoms: N_2  and  C_14
REMARK    2  A    between atoms: C_7  and  O_20
REMARK    3  A    between atoms: O_20  and  C_21
REMARK    4  A    between atoms: C_21  and  C_23
REMARK    5  A    between atoms: C_22  and  C_28
REMARK    6  A    between atoms: C_28  and  N_30
REMARK                            x       y       z     vdW  Elec       q    Type
REMARK                         _______ _______ _______ _____ _____    ______ ____
ROOT
ATOM      1  O   UNL     1      31.999  -5.830 -21.071  0.00  0.00    -0.270 OA
ATOM      2  N   UNL     1      32.248  -7.234 -22.956  0.00  0.00    -0.265 N 
ATOM      3  C   UNL     1      32.149  -8.662 -23.230  0.00  0.00    +0.124 C 
ATOM      4  C   UNL     1      31.804  -9.211 -21.888  0.00  0.00    +0.036 C 
ATOM      5  C   UNL     1      32.000  -6.914 -21.626  0.00  0.00    +0.249 C 
ATOM      6  C   UNL     1      31.717  -8.184 -20.948  0.00  0.00    +0.054 C 
ATOM      7  C   UNL     1      31.581 -10.522 -21.512  0.00  0.00    +0.137 C 
ATOM      8  C   UNL     1      31.410  -8.411 -19.621  0.00  0.00    +0.004 C 
ATOM      9  C   UNL     1      31.269 -10.780 -20.174  0.00  0.00    +0.037 C 
ATOM     10  C   UNL     1      31.184  -9.733 -19.236  0.00  0.00    +0.003 C 
ENDROOT
BRANCH   2  14
ATOM     11  O   UNL     1      30.317  -6.603 -24.769  0.00  0.00    -0.273 OA
ATOM     12  O   UNL     1      33.393  -5.112 -27.854  0.00  0.00    -0.275 OA
ATOM     13  N   UNL     1      31.889  -5.889 -26.290  0.00  0.00    -0.254 N 
ATOM     14  C   UNL     1      32.568  -6.254 -23.960  0.00  0.00    +0.153 C 
ATOM     15  C   UNL     1      33.940  -6.512 -24.563  0.00  0.00    +0.039 C 
ATOM     16  C   UNL     1      34.221  -5.477 -25.637  0.00  0.00    +0.088 C 
ATOM     17  C   UNL     1      31.483  -6.301 -25.021  0.00  0.00    +0.246 C 
ATOM     18  C   UNL     1      33.155  -5.487 -26.706  0.00  0.00    +0.228 C 
ATOM     19  H   UNL     1      31.188  -5.881 -26.981  0.00  0.00    +0.158 HD
ENDBRANCH   2  14
BRANCH   7  20
ATOM     20  O   UNL     1      31.662 -11.538 -22.408  0.00  0.00    -0.471 OA
BRANCH  20  21
ATOM     21  C   UNL     1      32.871 -11.649 -23.161  0.00  0.00    +0.232 C 
BRANCH  21  23
ATOM     22  C   UNL     1      33.990 -15.785 -23.403  0.00  0.00    -0.043 C 
ATOM     23  C   UNL     1      33.265 -13.095 -23.246  0.00  0.00    +0.021 C 
ATOM     24  C   UNL     1      33.428 -15.147 -24.511  0.00  0.00    -0.007 C 
ATOM     25  C   UNL     1      34.188 -15.077 -22.218  0.00  0.00    -0.007 C 
ATOM     26  C   UNL     1      33.065 -13.802 -24.432  0.00  0.00    -0.001 C 
ATOM     27  C   UNL     1      33.826 -13.732 -22.140  0.00  0.00    -0.001 C 
BRANCH  22  28
ATOM     28  C   UNL     1      34.376 -17.222 -23.488  0.00  0.00    -0.050 C 
BRANCH  28  30
ATOM     29  O   UNL     1      35.570 -19.899 -20.484  0.00  0.00    -0.358 OA
ATOM     30  N   UNL     1      34.643 -17.805 -22.175  0.00  0.00    +0.393 N 
ATOM     31  C   UNL     1      33.869 -19.039 -21.985  0.00  0.00    -0.044 C 
ATOM     32  C   UNL     1      36.077 -18.080 -22.008  0.00  0.00    -0.044 C 
ATOM     33  C   UNL     1      36.330 -18.699 -20.636  0.00  0.00    +0.119 C 
ATOM     34  C   UNL     1      34.173 -19.634 -20.613  0.00  0.00    +0.119 C 
ATOM     35  H   UNL     1      34.357 -17.128 -21.468  0.00  0.00    -0.079 HD
ENDBRANCH  28  30
ENDBRANCH  22  28
ENDBRANCH  21  23
ENDBRANCH  20  21
ENDBRANCH   7  20
TORSDOF 6
ENDMDL
MODEL 5
REMARK VINA RESULT:     -13.5      8.022     15.023
REMARK  Name = 67335295
REMARK  6 active torsions:
REMARK  status: ('A' for Active; 'I' for Inactive)
REMARK    1  A    between atoms: N_2  and  C_14
REMARK    2  A    between atoms: C_7  and  O_20
REMARK    3  A    between atoms: O_20  and  C_21
REMARK    4  A    between atoms: C_21  and  C_23
REMARK    5  A    between atoms: C_22  and  C_28
REMARK    6  A    between atoms: C_28  and  N_30
REMARK                            x       y       z     vdW  Elec       q    Type
REMARK                         _______ _______ _______ _____ _____    ______ ____
ROOT
ATOM      1  O   UNL     1      31.410  -5.955 -20.713  0.00  0.00    -0.270 OA
ATOM      2  N   UNL     1      31.533  -7.162 -22.741  0.00  0.00    -0.265 N 
ATOM      3  C   UNL     1      31.575  -8.565 -23.135  0.00  0.00    +0.124 C 
ATOM      4  C   UNL     1      31.520  -9.257 -21.817  0.00  0.00    +0.036 C 
ATOM      5  C   UNL     1      31.460  -6.982 -21.364  0.00  0.00    +0.249 C 
ATOM      6  C   UNL     1      31.452  -8.327 -20.778  0.00  0.00    +0.054 C 
ATOM      7  C   UNL     1      31.527 -10.612 -21.540  0.00  0.00    +0.137 C 
ATOM      8  C   UNL     1      31.391  -8.696 -19.449  0.00  0.00    +0.004 C 
ATOM      9  C   UNL     1      31.466 -11.012 -20.202  0.00  0.00    +0.037 C 
ATOM     10  C   UNL     1      31.398 -10.062 -19.165  0.00  0.00    +0.003 C 
ENDROOT
BRANCH   2  14
ATOM     11  O   UNL     1      33.963  -6.120 -23.392  0.00  0.00    -0.273 OA
ATOM     12  O   UNL     1      32.136  -2.096 -24.686  0.00  0.00    -0.275 OA
ATOM     13  N   UNL     1      33.011  -4.117 -24.007  0.00  0.00    -0.254 N 
ATOM     14  C   UNL     1      31.563  -6.072 -23.681  0.00  0.00    +0.153 C 
ATOM     15  C   UNL     1      30.498  -5.036 -23.356  0.00  0.00    +0.039 C 
ATOM     16  C   UNL     1      30.589  -3.893 -24.351  0.00  0.00    +0.088 C 
ATOM     17  C   UNL     1      32.953  -5.463 -23.645  0.00  0.00    +0.246 C 
ATOM     18  C   UNL     1      31.963  -3.268 -24.351  0.00  0.00    +0.228 C 
ATOM     19  H   UNL     1      33.910  -3.717 -24.022  0.00  0.00    +0.158 HD
ENDBRANCH   2  14
BRANCH   7  20
ATOM     20  O   UNL     1      31.594 -11.535 -22.534  0.00  0.00    -0.471 OA
BRANCH  20  21
ATOM     21  C   UNL     1      32.827 -11.638 -23.247  0.00  0.00    +0.232 C 
BRANCH  21  23
ATOM     22  C   UNL     1      33.977 -15.767 -23.455  0.00  0.00    -0.043 C 
ATOM     23  C   UNL     1      33.232 -13.081 -23.320  0.00  0.00    +0.021 C 
ATOM     24  C   UNL     1      33.416 -15.141 -24.570  0.00  0.00    -0.007 C 
ATOM     25  C   UNL     1      34.165 -15.049 -22.274  0.00  0.00    -0.007 C 
ATOM     26  C   UNL     1      33.043 -13.798 -24.502  0.00  0.00    -0.001 C 
ATOM     27  C   UNL     1      33.793 -13.706 -22.207  0.00  0.00    -0.001 C 
BRANCH  22  28
ATOM     28  C   UNL     1      34.375 -17.202 -23.528  0.00  0.00    -0.050 C 
BRANCH  28  30
ATOM     29  O   UNL     1      35.582 -19.846 -20.500  0.00  0.00    -0.358 OA
ATOM     30  N   UNL     1      34.642 -17.773 -22.209  0.00  0.00    +0.393 N 
ATOM     31  C   UNL     1      33.879 -19.013 -22.015  0.00  0.00    -0.044 C 
ATOM     32  C   UNL     1      36.078 -18.032 -22.034  0.00  0.00    -0.044 C 
ATOM     33  C   UNL     1      36.330 -18.639 -20.657  0.00  0.00    +0.119 C 
ATOM     34  C   UNL     1      34.183 -19.596 -20.638  0.00  0.00    +0.119 C 
ATOM     35  H   UNL     1      34.345 -17.094 -21.509  0.00  0.00    -0.079 HD
ENDBRANCH  28  30
ENDBRANCH  22  28
ENDBRANCH  21  23
ENDBRANCH  20  21
ENDBRANCH   7  20
TORSDOF 6
ENDMDL
MODEL 6
REMARK VINA RESULT:     -13.4      2.233      5.206
REMARK  Name = 67335295
REMARK  6 active torsions:
REMARK  status: ('A' for Active; 'I' for Inactive)
REMARK    1  A    between atoms: N_2  and  C_14
REMARK    2  A    between atoms: C_7  and  O_20
REMARK    3  A    between atoms: O_20  and  C_21
REMARK    4  A    between atoms: C_21  and  C_23
REMARK    5  A    between atoms: C_22  and  C_28
REMARK    6  A    between atoms: C_28  and  N_30
REMARK                            x       y       z     vdW  Elec       q    Type
REMARK                         _______ _______ _______ _____ _____    ______ ____
ROOT
ATOM      1  O   UNL     1      33.776 -24.250 -13.797  0.00  0.00    -0.270 OA
ATOM      2  N   UNL     1      33.046 -22.886 -15.582  0.00  0.00    -0.265 N 
ATOM      3  C   UNL     1      33.670 -22.018 -16.574  0.00  0.00    +0.124 C 
ATOM      4  C   UNL     1      35.114 -22.142 -16.227  0.00  0.00    +0.036 C 
ATOM      5  C   UNL     1      33.961 -23.481 -14.723  0.00  0.00    +0.249 C 
ATOM      6  C   UNL     1      35.283 -23.001 -15.140  0.00  0.00    +0.054 C 
ATOM      7  C   UNL     1      36.210 -21.545 -16.821  0.00  0.00    +0.137 C 
ATOM      8  C   UNL     1      36.523 -23.297 -14.609  0.00  0.00    +0.004 C 
ATOM      9  C   UNL     1      37.477 -21.827 -16.302  0.00  0.00    +0.037 C 
ATOM     10  C   UNL     1      37.632 -22.695 -15.205  0.00  0.00    +0.003 C 
ENDROOT
BRANCH   2  14
ATOM     11  O   UNL     1      31.567 -22.437 -17.824  0.00  0.00    -0.273 OA
ATOM     12  O   UNL     1      27.701 -21.786 -15.410  0.00  0.00    -0.275 OA
ATOM     13  N   UNL     1      29.663 -22.097 -16.578  0.00  0.00    -0.254 N 
ATOM     14  C   UNL     1      31.625 -23.104 -15.502  0.00  0.00    +0.153 C 
ATOM     15  C   UNL     1      31.047 -22.499 -14.232  0.00  0.00    +0.039 C 
ATOM     16  C   UNL     1      29.546 -22.724 -14.206  0.00  0.00    +0.088 C 
ATOM     17  C   UNL     1      30.989 -22.499 -16.740  0.00  0.00    +0.246 C 
ATOM     18  C   UNL     1      28.878 -22.143 -15.430  0.00  0.00    +0.228 C 
ATOM     19  H   UNL     1      29.226 -21.734 -17.382  0.00  0.00    +0.158 HD
ENDBRANCH   2  14
BRANCH   7  20
ATOM     20  O   UNL     1      36.069 -20.704 -17.878  0.00  0.00    -0.471 OA
BRANCH  20  21
ATOM     21  C   UNL     1      35.715 -21.287 -19.133  0.00  0.00    +0.232 C 
BRANCH  21  23
ATOM     22  C   UNL     1      34.962 -18.161 -21.974  0.00  0.00    -0.043 C 
ATOM     23  C   UNL     1      35.451 -20.193 -20.125  0.00  0.00    +0.021 C 
ATOM     24  C   UNL     1      33.941 -19.046 -21.623  0.00  0.00    -0.007 C 
ATOM     25  C   UNL     1      36.226 -18.292 -21.401  0.00  0.00    -0.007 C 
ATOM     26  C   UNL     1      34.186 -20.062 -20.699  0.00  0.00    -0.001 C 
ATOM     27  C   UNL     1      36.470 -19.308 -20.475  0.00  0.00    -0.001 C 
BRANCH  22  28
ATOM     28  C   UNL     1      34.699 -17.076 -22.962  0.00  0.00    -0.050 C 
BRANCH  28  30
ATOM     29  O   UNL     1      33.206 -13.530 -21.283  0.00  0.00    -0.358 OA
ATOM     30  N   UNL     1      34.634 -15.757 -22.336  0.00  0.00    +0.393 N 
ATOM     31  C   UNL     1      33.953 -14.796 -23.214  0.00  0.00    -0.044 C 
ATOM     32  C   UNL     1      33.947 -15.829 -21.039  0.00  0.00    -0.044 C 
ATOM     33  C   UNL     1      33.879 -14.439 -20.410  0.00  0.00    +0.119 C 
ATOM     34  C   UNL     1      33.887 -13.431 -22.534  0.00  0.00    +0.119 C 
ATOM     35  H   UNL     1      35.590 -15.436 -22.181  0.00  0.00    -0.079 HD
ENDBRANCH  28  30
ENDBRANCH  22  28
ENDBRANCH  21  23
ENDBRANCH  20  21
ENDBRANCH   7  20
TORSDOF 6
ENDMDL
MODEL 7
REMARK VINA RESULT:     -13.4      2.213      5.271
REMARK  Name = 67335295
REMARK  6 active torsions:
REMARK  status: ('A' for Active; 'I' for Inactive)
REMARK    1  A    between atoms: N_2  and  C_14
REMARK    2  A    between atoms: C_7  and  O_20
REMARK    3  A    between atoms: O_20  and  C_21
REMARK    4  A    between atoms: C_21  and  C_23
REMARK    5  A    between atoms: C_22  and  C_28
REMARK    6  A    between atoms: C_28  and  N_30
REMARK                            x       y       z     vdW  Elec       q    Type
REMARK                         _______ _______ _______ _____ _____    ______ ____
ROOT
ATOM      1  O   UNL     1      31.790 -24.635 -12.642  0.00  0.00    -0.270 OA
ATOM      2  N   UNL     1      31.449 -23.269 -14.540  0.00  0.00    -0.265 N 
ATOM      3  C   UNL     1      32.284 -22.667 -15.573  0.00  0.00    +0.124 C 
ATOM      4  C   UNL     1      33.645 -23.129 -15.177  0.00  0.00    +0.036 C 
ATOM      5  C   UNL     1      32.173 -24.011 -13.614  0.00  0.00    +0.249 C 
ATOM      6  C   UNL     1      33.578 -23.918 -14.028  0.00  0.00    +0.054 C 
ATOM      7  C   UNL     1      34.862 -22.878 -15.782  0.00  0.00    +0.137 C 
ATOM      8  C   UNL     1      34.696 -24.479 -13.442  0.00  0.00    +0.004 C 
ATOM      9  C   UNL     1      36.010 -23.434 -15.209  0.00  0.00    +0.037 C 
ATOM     10  C   UNL     1      35.927 -24.228 -14.049  0.00  0.00    +0.003 C 
ENDROOT
BRANCH   2  14
ATOM     11  O   UNL     1      29.914 -25.261 -15.582  0.00  0.00    -0.273 OA
ATOM     12  O   UNL     1      26.321 -22.454 -16.226  0.00  0.00    -0.275 OA
ATOM     13  N   UNL     1      28.150 -23.819 -15.907  0.00  0.00    -0.254 N 
ATOM     14  C   UNL     1      30.020 -23.110 -14.483  0.00  0.00    +0.153 C 
ATOM     15  C   UNL     1      29.605 -21.708 -14.903  0.00  0.00    +0.039 C 
ATOM     16  C   UNL     1      28.092 -21.598 -14.860  0.00  0.00    +0.088 C 
ATOM     17  C   UNL     1      29.398 -24.161 -15.385  0.00  0.00    +0.246 C 
ATOM     18  C   UNL     1      27.437 -22.636 -15.739  0.00  0.00    +0.228 C 
ATOM     19  H   UNL     1      27.719 -24.505 -16.466  0.00  0.00    +0.158 HD
ENDBRANCH   2  14
BRANCH   7  20
ATOM     20  O   UNL     1      34.952 -22.113 -16.899  0.00  0.00    -0.471 OA
BRANCH  20  21
ATOM     21  C   UNL     1      33.840 -22.134 -17.795  0.00  0.00    +0.232 C 
BRANCH  21  23
ATOM     22  C   UNL     1      34.687 -19.586 -21.143  0.00  0.00    -0.043 C 
ATOM     23  C   UNL     1      34.136 -21.241 -18.965  0.00  0.00    +0.021 C 
ATOM     24  C   UNL     1      33.364 -19.847 -20.781  0.00  0.00    -0.007 C 
ATOM     25  C   UNL     1      35.733 -20.153 -20.416  0.00  0.00    -0.007 C 
ATOM     26  C   UNL     1      33.089 -20.675 -19.692  0.00  0.00    -0.001 C 
ATOM     27  C   UNL     1      35.457 -20.980 -19.326  0.00  0.00    -0.001 C 
BRANCH  22  28
ATOM     28  C   UNL     1      34.979 -18.702 -22.307  0.00  0.00    -0.050 C 
BRANCH  28  30
ATOM     29  O   UNL     1      34.219 -14.574 -22.276  0.00  0.00    -0.358 OA
ATOM     30  N   UNL     1      34.283 -17.420 -22.220  0.00  0.00    +0.393 N 
ATOM     31  C   UNL     1      34.807 -16.617 -21.106  0.00  0.00    -0.044 C 
ATOM     32  C   UNL     1      34.407 -16.673 -23.480  0.00  0.00    -0.044 C 
ATOM     33  C   UNL     1      33.684 -15.334 -23.361  0.00  0.00    +0.119 C 
ATOM     34  C   UNL     1      34.075 -15.280 -21.043  0.00  0.00    +0.119 C 
ATOM     35  H   UNL     1      33.296 -17.610 -22.049  0.00  0.00    -0.079 HD
ENDBRANCH  28  30
ENDBRANCH  22  28
ENDBRANCH  21  23
ENDBRANCH  20  21
ENDBRANCH   7  20
TORSDOF 6
ENDMDL
MODEL 8
REMARK VINA RESULT:     -12.6      7.116     14.376
REMARK  Name = 67335295
REMARK  6 active torsions:
REMARK  status: ('A' for Active; 'I' for Inactive)
REMARK    1  A    between atoms: N_2  and  C_14
REMARK    2  A    between atoms: C_7  and  O_20
REMARK    3  A    between atoms: O_20  and  C_21
REMARK    4  A    between atoms: C_21  and  C_23
REMARK    5  A    between atoms: C_22  and  C_28
REMARK    6  A    between atoms: C_28  and  N_30
REMARK                            x       y       z     vdW  Elec       q    Type
REMARK                         _______ _______ _______ _____ _____    ______ ____
ROOT
ATOM      1  O   UNL     1      30.812  -7.254 -21.853  0.00  0.00    -0.270 OA
ATOM      2  N   UNL     1      32.392  -8.178 -23.348  0.00  0.00    -0.265 N 
ATOM      3  C   UNL     1      33.008  -9.482 -23.562  0.00  0.00    +0.124 C 
ATOM      4  C   UNL     1      32.371 -10.303 -22.493  0.00  0.00    +0.036 C 
ATOM      5  C   UNL     1      31.489  -8.166 -22.291  0.00  0.00    +0.249 C 
ATOM      6  C   UNL     1      31.481  -9.529 -21.748  0.00  0.00    +0.054 C 
ATOM      7  C   UNL     1      32.557 -11.639 -22.190  0.00  0.00    +0.137 C 
ATOM      8  C   UNL     1      30.751 -10.039 -20.692  0.00  0.00    +0.004 C 
ATOM      9  C   UNL     1      31.831 -12.181 -21.125  0.00  0.00    +0.037 C 
ATOM     10  C   UNL     1      30.936 -11.387 -20.382  0.00  0.00    +0.003 C 
ENDROOT
BRANCH   2  14
ATOM     11  O   UNL     1      34.214  -6.402 -22.379  0.00  0.00    -0.273 OA
ATOM     12  O   UNL     1      32.544  -2.957 -24.937  0.00  0.00    -0.275 OA
ATOM     13  N   UNL     1      33.334  -4.704 -23.658  0.00  0.00    -0.254 N 
ATOM     14  C   UNL     1      32.689  -7.020 -24.149  0.00  0.00    +0.153 C 
ATOM     15  C   UNL     1      31.417  -6.387 -24.693  0.00  0.00    +0.039 C 
ATOM     16  C   UNL     1      31.776  -5.154 -25.502  0.00  0.00    +0.088 C 
ATOM     17  C   UNL     1      33.465  -6.042 -23.286  0.00  0.00    +0.246 C 
ATOM     18  C   UNL     1      32.559  -4.160 -24.678  0.00  0.00    +0.228 C 
ATOM     19  H   UNL     1      33.859  -4.060 -23.129  0.00  0.00    +0.158 HD
ENDBRANCH   2  14
BRANCH   7  20
ATOM     20  O   UNL     1      33.419 -12.411 -22.900  0.00  0.00    -0.471 OA
BRANCH  20  21
ATOM     21  C   UNL     1      32.880 -13.563 -23.550  0.00  0.00    +0.232 C 
BRANCH  21  23
ATOM     22  C   UNL     1      34.952 -17.052 -22.155  0.00  0.00    -0.043 C 
ATOM     23  C   UNL     1      33.603 -14.784 -23.062  0.00  0.00    +0.021 C 
ATOM     24  C   UNL     1      34.610 -16.038 -21.259  0.00  0.00    -0.007 C 
ATOM     25  C   UNL     1      34.620 -16.931 -23.504  0.00  0.00    -0.007 C 
ATOM     26  C   UNL     1      33.935 -14.904 -21.712  0.00  0.00    -0.001 C 
ATOM     27  C   UNL     1      33.945 -15.797 -23.957  0.00  0.00    -0.001 C 
BRANCH  22  28
ATOM     28  C   UNL     1      35.674 -18.263 -21.669  0.00  0.00    -0.050 C 
BRANCH  28  30
ATOM     29  O   UNL     1      33.620 -21.317 -19.651  0.00  0.00    -0.358 OA
ATOM     30  N   UNL     1      34.918 -18.989 -20.650  0.00  0.00    +0.393 N 
ATOM     31  C   UNL     1      33.622 -19.434 -21.181  0.00  0.00    -0.044 C 
ATOM     32  C   UNL     1      35.683 -20.142 -20.156  0.00  0.00    -0.044 C 
ATOM     33  C   UNL     1      34.869 -20.891 -19.104  0.00  0.00    +0.119 C 
ATOM     34  C   UNL     1      32.857 -20.198 -20.104  0.00  0.00    +0.119 C 
ATOM     35  H   UNL     1      34.750 -18.351 -19.872  0.00  0.00    -0.079 HD
ENDBRANCH  28  30
ENDBRANCH  22  28
ENDBRANCH  21  23
ENDBRANCH  20  21
ENDBRANCH   7  20
TORSDOF 6
ENDMDL
MODEL 9
REMARK VINA RESULT:     -12.5      8.381     15.596
REMARK  Name = 67335295
REMARK  6 active torsions:
REMARK  status: ('A' for Active; 'I' for Inactive)
REMARK    1  A    between atoms: N_2  and  C_14
REMARK    2  A    between atoms: C_7  and  O_20
REMARK    3  A    between atoms: O_20  and  C_21
REMARK    4  A    between atoms: C_21  and  C_23
REMARK    5  A    between atoms: C_22  and  C_28
REMARK    6  A    between atoms: C_28  and  N_30
REMARK                            x       y       z     vdW  Elec       q    Type
REMARK                         _______ _______ _______ _____ _____    ______ ____
ROOT
ATOM      1  O   UNL     1      32.157  -4.297 -21.712  0.00  0.00    -0.270 OA
ATOM      2  N   UNL     1      32.282  -5.977 -23.370  0.00  0.00    -0.265 N 
ATOM      3  C   UNL     1      32.103  -7.423 -23.426  0.00  0.00    +0.124 C 
ATOM      4  C   UNL     1      31.766  -7.746 -22.010  0.00  0.00    +0.036 C 
ATOM      5  C   UNL     1      32.086  -5.449 -22.099  0.00  0.00    +0.249 C 
ATOM      6  C   UNL     1      31.757  -6.587 -21.233  0.00  0.00    +0.054 C 
ATOM      7  C   UNL     1      31.485  -8.973 -21.437  0.00  0.00    +0.137 C 
ATOM      8  C   UNL     1      31.474  -6.598 -19.881  0.00  0.00    +0.004 C 
ATOM      9  C   UNL     1      31.195  -9.011 -20.070  0.00  0.00    +0.037 C 
ATOM     10  C   UNL     1      31.190  -7.833 -19.299  0.00  0.00    +0.003 C 
ENDROOT
BRANCH   2  14
ATOM     11  O   UNL     1      30.935  -6.443 -25.690  0.00  0.00    -0.273 OA
ATOM     12  O   UNL     1      34.304  -4.647 -28.264  0.00  0.00    -0.275 OA
ATOM     13  N   UNL     1      32.652  -5.557 -26.939  0.00  0.00    -0.254 N 
ATOM     14  C   UNL     1      32.625  -5.176 -24.515  0.00  0.00    +0.153 C 
ATOM     15  C   UNL     1      34.134  -5.061 -24.673  0.00  0.00    +0.039 C 
ATOM     16  C   UNL     1      34.448  -4.237 -25.909  0.00  0.00    +0.088 C 
ATOM     17  C   UNL     1      31.991  -5.814 -25.738  0.00  0.00    +0.246 C 
ATOM     18  C   UNL     1      33.824  -4.837 -27.146  0.00  0.00    +0.228 C 
ATOM     19  H   UNL     1      32.233  -5.936 -27.746  0.00  0.00    +0.158 HD
ENDBRANCH   2  14
BRANCH   7  20
ATOM     20  O   UNL     1      31.489 -10.113 -22.173  0.00  0.00    -0.471 OA
BRANCH  20  21
ATOM     21  C   UNL     1      31.003 -11.299 -21.542  0.00  0.00    +0.232 C 
BRANCH  21  23
ATOM     22  C   UNL     1      33.818 -14.474 -22.178  0.00  0.00    -0.043 C 
ATOM     23  C   UNL     1      31.986 -12.411 -21.765  0.00  0.00    +0.021 C 
ATOM     24  C   UNL     1      33.323 -14.227 -20.896  0.00  0.00    -0.007 C 
ATOM     25  C   UNL     1      33.398 -13.690 -23.251  0.00  0.00    -0.007 C 
ATOM     26  C   UNL     1      32.407 -13.195 -20.690  0.00  0.00    -0.001 C 
ATOM     27  C   UNL     1      32.481 -12.659 -23.045  0.00  0.00    -0.001 C 
BRANCH  22  28
ATOM     28  C   UNL     1      34.798 -15.577 -22.397  0.00  0.00    -0.050 C 
BRANCH  28  30
ATOM     29  O   UNL     1      34.073 -19.390 -23.996  0.00  0.00    -0.358 OA
ATOM     30  N   UNL     1      34.145 -16.843 -22.726  0.00  0.00    +0.393 N 
ATOM     31  C   UNL     1      33.962 -16.973 -24.178  0.00  0.00    -0.044 C 
ATOM     32  C   UNL     1      34.923 -17.979 -22.213  0.00  0.00    -0.044 C 
ATOM     33  C   UNL     1      34.230 -19.289 -22.579  0.00  0.00    +0.119 C 
ATOM     34  C   UNL     1      33.291 -18.305 -24.497  0.00  0.00    +0.119 C 
ATOM     35  H   UNL     1      33.228 -16.848 -22.280  0.00  0.00    -0.079 HD
ENDBRANCH  28  30
ENDBRANCH  22  28
ENDBRANCH  21  23
ENDBRANCH  20  21
ENDBRANCH   7  20
TORSDOF 6
ENDMDL
