MODEL 1
REMARK VINA RESULT:     -13.1      0.000      0.000
REMARK  Name = 17754438
REMARK  6 active torsions:
REMARK  status: ('A' for Active; 'I' for Inactive)
REMARK    1  A    between atoms: N_1  and  C_19
REMARK    2  A    between atoms: C_7  and  C_12
REMARK    3  A    between atoms: N_10  and  C_15
REMARK    4  A    between atoms: C_15  and  C_16
REMARK    5  A    between atoms: C_16  and  O_17
REMARK    6  A    between atoms: C_19  and  C_21
REMARK                            x       y       z     vdW  Elec       q    Type
REMARK                         _______ _______ _______ _____ _____    ______ ____
ROOT
ATOM      1  N   UNL     1      34.047 -20.217 -20.158  0.00  0.00    -0.163 N 
ATOM      2  N   UNL     1      35.099 -21.282 -18.226  0.00  0.00    -0.378 NA
ATOM      3  N   UNL     1      32.807 -20.167 -20.682  0.00  0.00    -0.033 NA
ATOM      4  N   UNL     1      32.377 -22.210 -17.874  0.00  0.00    -0.208 NA
ATOM      5  N   UNL     1      32.007 -20.901 -19.909  0.00  0.00    -0.086 NA
ATOM      6  C   UNL     1      34.072 -20.984 -19.036  0.00  0.00    +0.267 C 
ATOM      7  C   UNL     1      34.699 -22.082 -17.211  0.00  0.00    +0.140 C 
ATOM      8  C   UNL     1      32.765 -21.409 -18.895  0.00  0.00    +0.098 C 
ATOM      9  C   UNL     1      33.395 -22.527 -17.041  0.00  0.00    +0.195 C 
ENDROOT
BRANCH   7  12
ATOM     10  N   UNL     1      36.751 -23.484 -14.645  0.00  0.00    -0.208 N 
ATOM     11  N   UNL     1      37.681 -22.636 -15.118  0.00  0.00    -0.176 NA
ATOM     12  C   UNL     1      35.721 -22.465 -16.280  0.00  0.00    +0.064 C 
ATOM     13  C   UNL     1      35.560 -23.420 -15.306  0.00  0.00    +0.088 C 
ATOM     14  C   UNL     1      37.046 -22.017 -16.117  0.00  0.00    +0.121 C 
BRANCH  10  15
ATOM     15  C   UNL     1      37.070 -24.350 -13.535  0.00  0.00    +0.148 C 
BRANCH  15  16
ATOM     16  C   UNL     1      38.369 -25.115 -13.747  0.00  0.00    +0.161 C 
BRANCH  16  17
ATOM     17  O   UNL     1      38.419 -25.617 -15.076  0.00  0.00    -0.380 OA
ATOM     18  H   UNL     1      39.179 -26.212 -15.169  0.00  0.00    +0.211 HD
ENDBRANCH  16  17
ENDBRANCH  15  16
ENDBRANCH  10  15
ENDBRANCH   7  12
BRANCH   1  19
ATOM     19  C   UNL     1      35.158 -19.499 -20.793  0.00  0.00    +0.145 C 
BRANCH  19  21
ATOM     20  N   UNL     1      33.350 -16.104 -24.944  0.00  0.00    -0.244 NA
ATOM     21  C   UNL     1      34.685 -18.596 -21.881  0.00  0.00    -0.000 C 
ATOM     22  C   UNL     1      34.706 -17.216 -21.705  0.00  0.00    -0.001 C 
ATOM     23  C   UNL     1      34.260 -16.362 -22.728  0.00  0.00    +0.017 C 
ATOM     24  C   UNL     1      34.218 -19.128 -23.077  0.00  0.00    -0.001 C 
ATOM     25  C   UNL     1      33.785 -16.895 -23.944  0.00  0.00    +0.081 C 
ATOM     26  C   UNL     1      33.775 -18.279 -24.094  0.00  0.00    +0.019 C 
ATOM     27  C   UNL     1      34.271 -14.969 -22.576  0.00  0.00    +0.003 C 
ATOM     28  C   UNL     1      33.824 -14.152 -23.605  0.00  0.00    +0.021 C 
ATOM     29  C   UNL     1      33.378 -14.765 -24.758  0.00  0.00    +0.099 C 
ENDBRANCH  19  21
ENDBRANCH   1  19
TORSDOF 6
ENDMDL
MODEL 2
REMARK VINA RESULT:     -12.7      2.617      4.124
REMARK  Name = 17754438
REMARK  6 active torsions:
REMARK  status: ('A' for Active; 'I' for Inactive)
REMARK    1  A    between atoms: N_1  and  C_19
REMARK    2  A    between atoms: C_7  and  C_12
REMARK    3  A    between atoms: N_10  and  C_15
REMARK    4  A    between atoms: C_15  and  C_16
REMARK    5  A    between atoms: C_16  and  O_17
REMARK    6  A    between atoms: C_19  and  C_21
REMARK                            x       y       z     vdW  Elec       q    Type
REMARK                         _______ _______ _______ _____ _____    ______ ____
ROOT
ATOM      1  N   UNL     1      32.555 -22.806 -17.312  0.00  0.00    -0.163 N 
ATOM      2  N   UNL     1      34.345 -23.931 -16.087  0.00  0.00    -0.378 NA
ATOM      3  N   UNL     1      31.412 -22.165 -16.992  0.00  0.00    -0.033 NA
ATOM      4  N   UNL     1      32.669 -23.119 -13.868  0.00  0.00    -0.208 NA
ATOM      5  N   UNL     1      31.290 -22.190 -15.665  0.00  0.00    -0.086 NA
ATOM      6  C   UNL     1      33.191 -23.255 -16.199  0.00  0.00    +0.267 C 
ATOM      7  C   UNL     1      34.631 -24.190 -14.790  0.00  0.00    +0.140 C 
ATOM      8  C   UNL     1      32.371 -22.853 -15.162  0.00  0.00    +0.098 C 
ATOM      9  C   UNL     1      33.828 -23.801 -13.727  0.00  0.00    +0.195 C 
ENDROOT
BRANCH   7  12
ATOM     10  N   UNL     1      37.897 -25.365 -13.950  0.00  0.00    -0.208 N 
ATOM     11  N   UNL     1      37.446 -26.539 -14.424  0.00  0.00    -0.176 NA
ATOM     12  C   UNL     1      35.848 -24.912 -14.553  0.00  0.00    +0.064 C 
ATOM     13  C   UNL     1      36.979 -24.358 -14.005  0.00  0.00    +0.088 C 
ATOM     14  C   UNL     1      36.193 -26.256 -14.791  0.00  0.00    +0.121 C 
BRANCH  10  15
ATOM     15  C   UNL     1      39.246 -25.269 -13.444  0.00  0.00    +0.148 C 
BRANCH  15  16
ATOM     16  C   UNL     1      40.243 -24.848 -14.515  0.00  0.00    +0.161 C 
BRANCH  16  17
ATOM     17  O   UNL     1      39.993 -25.571 -15.713  0.00  0.00    -0.380 OA
ATOM     18  H   UNL     1      40.835 -25.796 -16.137  0.00  0.00    +0.211 HD
ENDBRANCH  16  17
ENDBRANCH  15  16
ENDBRANCH  10  15
ENDBRANCH   7  12
BRANCH   1  19
ATOM     19  C   UNL     1      32.967 -22.943 -18.713  0.00  0.00    +0.145 C 
BRANCH  19  21
ATOM     20  N   UNL     1      36.416 -18.748 -20.305  0.00  0.00    -0.244 NA
ATOM     21  C   UNL     1      33.868 -21.834 -19.138  0.00  0.00    -0.000 C 
ATOM     22  C   UNL     1      33.461 -20.940 -20.125  0.00  0.00    -0.001 C 
ATOM     23  C   UNL     1      34.308 -19.894 -20.529  0.00  0.00    +0.017 C 
ATOM     24  C   UNL     1      35.120 -21.687 -18.554  0.00  0.00    -0.001 C 
ATOM     25  C   UNL     1      35.580 -19.739 -19.940  0.00  0.00    +0.081 C 
ATOM     26  C   UNL     1      35.961 -20.647 -18.956  0.00  0.00    +0.019 C 
ATOM     27  C   UNL     1      33.923 -18.981 -21.520  0.00  0.00    +0.003 C 
ATOM     28  C   UNL     1      34.783 -17.958 -21.898  0.00  0.00    +0.021 C 
ATOM     29  C   UNL     1      36.006 -17.887 -21.264  0.00  0.00    +0.099 C 
ENDBRANCH  19  21
ENDBRANCH   1  19
TORSDOF 6
ENDMDL
MODEL 3
REMARK VINA RESULT:     -12.0      1.406      1.999
REMARK  Name = 17754438
REMARK  6 active torsions:
REMARK  status: ('A' for Active; 'I' for Inactive)
REMARK    1  A    between atoms: N_1  and  C_19
REMARK    2  A    between atoms: C_7  and  C_12
REMARK    3  A    between atoms: N_10  and  C_15
REMARK    4  A    between atoms: C_15  and  C_16
REMARK    5  A    between atoms: C_16  and  O_17
REMARK    6  A    between atoms: C_19  and  C_21
REMARK                            x       y       z     vdW  Elec       q    Type
REMARK                         _______ _______ _______ _____ _____    ______ ____
ROOT
ATOM      1  N   UNL     1      34.213 -21.011 -19.398  0.00  0.00    -0.163 N 
ATOM      2  N   UNL     1      35.185 -22.006 -17.389  0.00  0.00    -0.378 NA
ATOM      3  N   UNL     1      32.972 -20.847 -19.898  0.00  0.00    -0.033 NA
ATOM      4  N   UNL     1      32.380 -22.519 -16.880  0.00  0.00    -0.208 NA
ATOM      5  N   UNL     1      32.111 -21.385 -19.033  0.00  0.00    -0.086 NA
ATOM      6  C   UNL     1      34.178 -21.656 -18.203  0.00  0.00    +0.267 C 
ATOM      7  C   UNL     1      34.721 -22.638 -16.287  0.00  0.00    +0.140 C 
ATOM      8  C   UNL     1      32.832 -21.885 -17.989  0.00  0.00    +0.098 C 
ATOM      9  C   UNL     1      33.377 -22.883 -16.042  0.00  0.00    +0.195 C 
ENDROOT
BRANCH   7  12
ATOM     10  N   UNL     1      36.968 -24.340 -14.093  0.00  0.00    -0.208 N 
ATOM     11  N   UNL     1      37.406 -23.102 -13.806  0.00  0.00    -0.176 NA
ATOM     12  C   UNL     1      35.717 -23.059 -15.344  0.00  0.00    +0.064 C 
ATOM     13  C   UNL     1      35.957 -24.369 -15.008  0.00  0.00    +0.088 C 
ATOM     14  C   UNL     1      36.638 -22.324 -14.573  0.00  0.00    +0.121 C 
BRANCH  10  15
ATOM     15  C   UNL     1      37.571 -25.481 -13.446  0.00  0.00    +0.148 C 
BRANCH  15  16
ATOM     16  C   UNL     1      36.878 -25.846 -12.141  0.00  0.00    +0.161 C 
BRANCH  16  17
ATOM     17  O   UNL     1      36.679 -24.675 -11.360  0.00  0.00    -0.380 OA
ATOM     18  H   UNL     1      37.289 -24.681 -10.606  0.00  0.00    +0.211 HD
ENDBRANCH  16  17
ENDBRANCH  15  16
ENDBRANCH  10  15
ENDBRANCH   7  12
BRANCH   1  19
ATOM     19  C   UNL     1      35.385 -20.517 -20.130  0.00  0.00    +0.145 C 
BRANCH  19  21
ATOM     20  N   UNL     1      34.165 -15.959 -23.254  0.00  0.00    -0.244 NA
ATOM     21  C   UNL     1      35.058 -19.322 -20.960  0.00  0.00    -0.000 C 
ATOM     22  C   UNL     1      34.415 -19.474 -22.185  0.00  0.00    -0.001 C 
ATOM     23  C   UNL     1      34.107 -18.350 -22.971  0.00  0.00    +0.017 C 
ATOM     24  C   UNL     1      35.396 -18.049 -20.516  0.00  0.00    -0.001 C 
ATOM     25  C   UNL     1      34.446 -17.056 -22.526  0.00  0.00    +0.081 C 
ATOM     26  C   UNL     1      35.088 -16.932 -21.297  0.00  0.00    +0.019 C 
ATOM     27  C   UNL     1      33.460 -18.476 -24.207  0.00  0.00    +0.003 C 
ATOM     28  C   UNL     1      33.169 -17.346 -24.960  0.00  0.00    +0.021 C 
ATOM     29  C   UNL     1      33.540 -16.122 -24.442  0.00  0.00    +0.099 C 
ENDBRANCH  19  21
ENDBRANCH   1  19
TORSDOF 6
ENDMDL
MODEL 4
REMARK VINA RESULT:     -12.0      2.525      3.889
REMARK  Name = 17754438
REMARK  6 active torsions:
REMARK  status: ('A' for Active; 'I' for Inactive)
REMARK    1  A    between atoms: N_1  and  C_19
REMARK    2  A    between atoms: C_7  and  C_12
REMARK    3  A    between atoms: N_10  and  C_15
REMARK    4  A    between atoms: C_15  and  C_16
REMARK    5  A    between atoms: C_16  and  O_17
REMARK    6  A    between atoms: C_19  and  C_21
REMARK                            x       y       z     vdW  Elec       q    Type
REMARK                         _______ _______ _______ _____ _____    ______ ____
ROOT
ATOM      1  N   UNL     1      32.775 -22.888 -17.420  0.00  0.00    -0.163 N 
ATOM      2  N   UNL     1      34.365 -23.650 -15.728  0.00  0.00    -0.378 NA
ATOM      3  N   UNL     1      31.512 -22.419 -17.423  0.00  0.00    -0.033 NA
ATOM      4  N   UNL     1      32.117 -22.993 -14.024  0.00  0.00    -0.208 NA
ATOM      5  N   UNL     1      31.084 -22.390 -16.161  0.00  0.00    -0.086 NA
ATOM      6  C   UNL     1      33.188 -23.171 -16.157  0.00  0.00    +0.267 C 
ATOM      7  C   UNL     1      34.371 -23.791 -14.383  0.00  0.00    +0.140 C 
ATOM      8  C   UNL     1      32.098 -22.847 -15.371  0.00  0.00    +0.098 C 
ATOM      9  C   UNL     1      33.294 -23.476 -13.566  0.00  0.00    +0.195 C 
ENDROOT
BRANCH   7  12
ATOM     10  N   UNL     1      37.580 -25.176 -13.645  0.00  0.00    -0.208 N 
ATOM     11  N   UNL     1      37.230 -24.949 -12.367  0.00  0.00    -0.176 NA
ATOM     12  C   UNL     1      35.586 -24.299 -13.815  0.00  0.00    +0.064 C 
ATOM     13  C   UNL     1      36.630 -24.804 -14.551  0.00  0.00    +0.088 C 
ATOM     14  C   UNL     1      36.011 -24.414 -12.477  0.00  0.00    +0.121 C 
BRANCH  10  15
ATOM     15  C   UNL     1      38.866 -25.760 -13.943  0.00  0.00    +0.148 C 
BRANCH  15  16
ATOM     16  C   UNL     1      39.645 -24.960 -14.979  0.00  0.00    +0.161 C 
BRANCH  16  17
ATOM     17  O   UNL     1      40.651 -24.192 -14.333  0.00  0.00    -0.380 OA
ATOM     18  H   UNL     1      40.433 -24.097 -13.393  0.00  0.00    +0.211 HD
ENDBRANCH  16  17
ENDBRANCH  15  16
ENDBRANCH  10  15
ENDBRANCH   7  12
BRANCH   1  19
ATOM     19  C   UNL     1      33.522 -23.035 -18.675  0.00  0.00    +0.145 C 
BRANCH  19  21
ATOM     20  N   UNL     1      34.115 -18.079 -21.341  0.00  0.00    -0.244 NA
ATOM     21  C   UNL     1      33.688 -21.731 -19.378  0.00  0.00    -0.000 C 
ATOM     22  C   UNL     1      34.961 -21.213 -19.602  0.00  0.00    -0.001 C 
ATOM     23  C   UNL     1      35.122 -19.983 -20.263  0.00  0.00    +0.017 C 
ATOM     24  C   UNL     1      32.574 -21.023 -19.810  0.00  0.00    -0.001 C 
ATOM     25  C   UNL     1      33.995 -19.260 -20.705  0.00  0.00    +0.081 C 
ATOM     26  C   UNL     1      32.734 -19.801 -20.468  0.00  0.00    +0.019 C 
ATOM     27  C   UNL     1      36.391 -19.441 -20.502  0.00  0.00    +0.003 C 
ATOM     28  C   UNL     1      36.517 -18.224 -21.157  0.00  0.00    +0.021 C 
ATOM     29  C   UNL     1      35.358 -17.589 -21.553  0.00  0.00    +0.099 C 
ENDBRANCH  19  21
ENDBRANCH   1  19
TORSDOF 6
ENDMDL
MODEL 5
REMARK VINA RESULT:     -11.9      3.179      6.317
REMARK  Name = 17754438
REMARK  6 active torsions:
REMARK  status: ('A' for Active; 'I' for Inactive)
REMARK    1  A    between atoms: N_1  and  C_19
REMARK    2  A    between atoms: C_7  and  C_12
REMARK    3  A    between atoms: N_10  and  C_15
REMARK    4  A    between atoms: C_15  and  C_16
REMARK    5  A    between atoms: C_16  and  O_17
REMARK    6  A    between atoms: C_19  and  C_21
REMARK                            x       y       z     vdW  Elec       q    Type
REMARK                         _______ _______ _______ _____ _____    ______ ____
ROOT
ATOM      1  N   UNL     1      33.939 -15.348 -24.011  0.00  0.00    -0.163 N 
ATOM      2  N   UNL     1      34.537 -17.149 -22.471  0.00  0.00    -0.378 NA
ATOM      3  N   UNL     1      33.231 -15.243 -25.154  0.00  0.00    -0.033 NA
ATOM      4  N   UNL     1      32.983 -18.651 -24.400  0.00  0.00    -0.208 NA
ATOM      5  N   UNL     1      32.774 -16.456 -25.463  0.00  0.00    -0.086 NA
ATOM      6  C   UNL     1      33.952 -16.630 -23.561  0.00  0.00    +0.267 C 
ATOM      7  C   UNL     1      34.308 -18.479 -22.384  0.00  0.00    +0.140 C 
ATOM      8  C   UNL     1      33.205 -17.318 -24.499  0.00  0.00    +0.098 C 
ATOM      9  C   UNL     1      33.563 -19.199 -23.308  0.00  0.00    +0.195 C 
ENDROOT
BRANCH   7  12
ATOM     10  N   UNL     1      35.152 -20.496 -19.559  0.00  0.00    -0.208 N 
ATOM     11  N   UNL     1      36.294 -19.786 -19.569  0.00  0.00    -0.176 NA
ATOM     12  C   UNL     1      34.890 -19.139 -21.251  0.00  0.00    +0.064 C 
ATOM     13  C   UNL     1      34.278 -20.147 -20.546  0.00  0.00    +0.088 C 
ATOM     14  C   UNL     1      36.127 -18.959 -20.605  0.00  0.00    +0.121 C 
BRANCH  10  15
ATOM     15  C   UNL     1      34.954 -21.519 -18.561  0.00  0.00    +0.148 C 
BRANCH  15  16
ATOM     16  C   UNL     1      33.520 -22.031 -18.528  0.00  0.00    +0.161 C 
BRANCH  16  17
ATOM     17  O   UNL     1      33.462 -23.330 -19.103  0.00  0.00    -0.380 OA
ATOM     18  H   UNL     1      32.858 -23.321 -19.862  0.00  0.00    +0.211 HD
ENDBRANCH  16  17
ENDBRANCH  15  16
ENDBRANCH  10  15
ENDBRANCH   7  12
BRANCH   1  19
ATOM     19  C   UNL     1      34.573 -14.168 -23.413  0.00  0.00    +0.145 C 
BRANCH  19  21
ATOM     20  N   UNL     1      30.811 -10.886 -20.750  0.00  0.00    -0.244 NA
ATOM     21  C   UNL     1      33.582 -13.297 -22.719  0.00  0.00    -0.000 C 
ATOM     22  C   UNL     1      33.255 -12.051 -23.246  0.00  0.00    -0.001 C 
ATOM     23  C   UNL     1      32.322 -11.226 -22.595  0.00  0.00    +0.017 C 
ATOM     24  C   UNL     1      32.981 -13.723 -21.541  0.00  0.00    -0.001 C 
ATOM     25  C   UNL     1      31.708 -11.652 -21.399  0.00  0.00    +0.081 C 
ATOM     26  C   UNL     1      32.054 -12.903 -20.894  0.00  0.00    +0.019 C 
ATOM     27  C   UNL     1      31.974  -9.968 -23.105  0.00  0.00    +0.003 C 
ATOM     28  C   UNL     1      31.049  -9.176 -22.437  0.00  0.00    +0.021 C 
ATOM     29  C   UNL     1      30.502  -9.678 -21.274  0.00  0.00    +0.099 C 
ENDBRANCH  19  21
ENDBRANCH   1  19
TORSDOF 6
ENDMDL
MODEL 6
REMARK VINA RESULT:     -11.9      4.376      6.829
REMARK  Name = 17754438
REMARK  6 active torsions:
REMARK  status: ('A' for Active; 'I' for Inactive)
REMARK    1  A    between atoms: N_1  and  C_19
REMARK    2  A    between atoms: C_7  and  C_12
REMARK    3  A    between atoms: N_10  and  C_15
REMARK    4  A    between atoms: C_15  and  C_16
REMARK    5  A    between atoms: C_16  and  O_17
REMARK    6  A    between atoms: C_19  and  C_21
REMARK                            x       y       z     vdW  Elec       q    Type
REMARK                         _______ _______ _______ _____ _____    ______ ____
ROOT
ATOM      1  N   UNL     1      33.804 -22.820 -17.102  0.00  0.00    -0.163 N 
ATOM      2  N   UNL     1      31.439 -22.897 -16.490  0.00  0.00    -0.378 NA
ATOM      3  N   UNL     1      34.971 -22.664 -16.446  0.00  0.00    -0.033 NA
ATOM      4  N   UNL     1      32.608 -22.494 -13.870  0.00  0.00    -0.208 NA
ATOM      5  N   UNL     1      34.695 -22.519 -15.150  0.00  0.00    -0.086 NA
ATOM      6  C   UNL     1      32.752 -22.780 -16.242  0.00  0.00    +0.267 C 
ATOM      7  C   UNL     1      30.720 -22.801 -15.349  0.00  0.00    +0.140 C 
ATOM      8  C   UNL     1      33.341 -22.588 -15.006  0.00  0.00    +0.098 C 
ATOM      9  C   UNL     1      31.279 -22.608 -14.093  0.00  0.00    +0.195 C 
ENDROOT
BRANCH   7  12
ATOM     10  N   UNL     1      27.199 -22.367 -15.770  0.00  0.00    -0.208 N 
ATOM     11  N   UNL     1      27.163 -23.708 -15.676  0.00  0.00    -0.176 NA
ATOM     12  C   UNL     1      29.297 -22.911 -15.498  0.00  0.00    +0.064 C 
ATOM     13  C   UNL     1      28.453 -21.841 -15.669  0.00  0.00    +0.088 C 
ATOM     14  C   UNL     1      28.448 -24.034 -15.510  0.00  0.00    +0.121 C 
BRANCH  10  15
ATOM     15  C   UNL     1      25.973 -21.629 -15.962  0.00  0.00    +0.148 C 
BRANCH  15  16
ATOM     16  C   UNL     1      25.747 -21.242 -17.417  0.00  0.00    +0.161 C 
BRANCH  16  17
ATOM     17  O   UNL     1      25.575 -19.835 -17.518  0.00  0.00    -0.380 OA
ATOM     18  H   UNL     1      25.663 -19.563 -18.444  0.00  0.00    +0.211 HD
ENDBRANCH  16  17
ENDBRANCH  15  16
ENDBRANCH  10  15
ENDBRANCH   7  12
BRANCH   1  19
ATOM     19  C   UNL     1      33.782 -23.004 -18.557  0.00  0.00    +0.145 C 
BRANCH  19  21
ATOM     20  N   UNL     1      34.052 -18.064 -21.304  0.00  0.00    -0.244 NA
ATOM     21  C   UNL     1      33.863 -21.703 -19.282  0.00  0.00    -0.000 C 
ATOM     22  C   UNL     1      35.102 -21.171 -19.628  0.00  0.00    -0.001 C 
ATOM     23  C   UNL     1      35.182 -19.945 -20.310  0.00  0.00    +0.017 C 
ATOM     24  C   UNL     1      32.703 -21.015 -19.614  0.00  0.00    -0.001 C 
ATOM     25  C   UNL     1      34.009 -19.241 -20.651  0.00  0.00    +0.081 C 
ATOM     26  C   UNL     1      32.784 -19.796 -20.293  0.00  0.00    +0.019 C 
ATOM     27  C   UNL     1      36.416 -19.387 -20.671  0.00  0.00    +0.003 C 
ATOM     28  C   UNL     1      36.463 -18.174 -21.344  0.00  0.00    +0.021 C 
ATOM     29  C   UNL     1      35.262 -17.559 -21.634  0.00  0.00    +0.099 C 
ENDBRANCH  19  21
ENDBRANCH   1  19
TORSDOF 6
ENDMDL
MODEL 7
REMARK VINA RESULT:     -11.8      3.937      7.629
REMARK  Name = 17754438
REMARK  6 active torsions:
REMARK  status: ('A' for Active; 'I' for Inactive)
REMARK    1  A    between atoms: N_1  and  C_19
REMARK    2  A    between atoms: C_7  and  C_12
REMARK    3  A    between atoms: N_10  and  C_15
REMARK    4  A    between atoms: C_15  and  C_16
REMARK    5  A    between atoms: C_16  and  O_17
REMARK    6  A    between atoms: C_19  and  C_21
REMARK                            x       y       z     vdW  Elec       q    Type
REMARK                         _______ _______ _______ _____ _____    ______ ____
ROOT
ATOM      1  N   UNL     1      33.496 -13.654 -23.414  0.00  0.00    -0.163 N 
ATOM      2  N   UNL     1      34.252 -15.770 -22.455  0.00  0.00    -0.378 NA
ATOM      3  N   UNL     1      32.954 -13.256 -24.582  0.00  0.00    -0.033 NA
ATOM      4  N   UNL     1      33.366 -16.699 -25.052  0.00  0.00    -0.208 NA
ATOM      5  N   UNL     1      32.828 -14.331 -25.360  0.00  0.00    -0.086 NA
ATOM      6  C   UNL     1      33.729 -14.992 -23.415  0.00  0.00    +0.267 C 
ATOM      7  C   UNL     1      34.315 -17.060 -22.858  0.00  0.00    +0.140 C 
ATOM      8  C   UNL     1      33.297 -15.404 -24.661  0.00  0.00    +0.098 C 
ATOM      9  C   UNL     1      33.890 -17.506 -24.102  0.00  0.00    +0.195 C 
ENDROOT
BRANCH   7  12
ATOM     10  N   UNL     1      35.039 -19.678 -20.538  0.00  0.00    -0.208 N 
ATOM     11  N   UNL     1      36.236 -19.074 -20.443  0.00  0.00    -0.176 NA
ATOM     12  C   UNL     1      34.860 -17.984 -21.905  0.00  0.00    +0.064 C 
ATOM     13  C   UNL     1      34.179 -19.065 -21.400  0.00  0.00    +0.088 C 
ATOM     14  C   UNL     1      36.120 -18.040 -21.280  0.00  0.00    +0.121 C 
BRANCH  10  15
ATOM     15  C   UNL     1      34.773 -20.867 -19.764  0.00  0.00    +0.148 C 
BRANCH  15  16
ATOM     16  C   UNL     1      35.808 -21.095 -18.670  0.00  0.00    +0.161 C 
BRANCH  16  17
ATOM     17  O   UNL     1      35.283 -21.982 -17.691  0.00  0.00    -0.380 OA
ATOM     18  H   UNL     1      34.729 -21.486 -17.068  0.00  0.00    +0.211 HD
ENDBRANCH  16  17
ENDBRANCH  15  16
ENDBRANCH  10  15
ENDBRANCH   7  12
BRANCH   1  19
ATOM     19  C   UNL     1      33.759 -12.686 -22.343  0.00  0.00    +0.145 C 
BRANCH  19  21
ATOM     20  N   UNL     1      30.121  -8.353 -22.481  0.00  0.00    -0.244 NA
ATOM     21  C   UNL     1      32.806 -11.539 -22.386  0.00  0.00    -0.000 C 
ATOM     22  C   UNL     1      33.183 -10.338 -22.981  0.00  0.00    -0.001 C 
ATOM     23  C   UNL     1      32.288  -9.254 -23.022  0.00  0.00    +0.017 C 
ATOM     24  C   UNL     1      31.539 -11.661 -21.829  0.00  0.00    -0.001 C 
ATOM     25  C   UNL     1      31.001  -9.372 -22.459  0.00  0.00    +0.081 C 
ATOM     26  C   UNL     1      30.651 -10.584 -21.870  0.00  0.00    +0.019 C 
ATOM     27  C   UNL     1      32.642  -8.035 -23.616  0.00  0.00    +0.003 C 
ATOM     28  C   UNL     1      31.737  -6.983 -23.640  0.00  0.00    +0.021 C 
ATOM     29  C   UNL     1      30.500  -7.193 -23.064  0.00  0.00    +0.099 C 
ENDBRANCH  19  21
ENDBRANCH   1  19
TORSDOF 6
ENDMDL
MODEL 8
REMARK VINA RESULT:     -11.8      3.367      9.856
REMARK  Name = 17754438
REMARK  6 active torsions:
REMARK  status: ('A' for Active; 'I' for Inactive)
REMARK    1  A    between atoms: N_1  and  C_19
REMARK    2  A    between atoms: C_7  and  C_12
REMARK    3  A    between atoms: N_10  and  C_15
REMARK    4  A    between atoms: C_15  and  C_16
REMARK    5  A    between atoms: C_16  and  O_17
REMARK    6  A    between atoms: C_19  and  C_21
REMARK                            x       y       z     vdW  Elec       q    Type
REMARK                         _______ _______ _______ _____ _____    ______ ____
ROOT
ATOM      1  N   UNL     1      35.257 -21.827 -17.459  0.00  0.00    -0.163 N 
ATOM      2  N   UNL     1      34.958 -20.295 -19.339  0.00  0.00    -0.378 NA
ATOM      3  N   UNL     1      34.519 -22.780 -16.857  0.00  0.00    -0.033 NA
ATOM      4  N   UNL     1      32.399 -21.650 -19.402  0.00  0.00    -0.208 NA
ATOM      5  N   UNL     1      33.349 -22.851 -17.492  0.00  0.00    -0.086 NA
ATOM      6  C   UNL     1      34.580 -21.265 -18.495  0.00  0.00    +0.267 C 
ATOM      7  C   UNL     1      33.982 -20.023 -20.236  0.00  0.00    +0.140 C 
ATOM      8  C   UNL     1      33.368 -21.931 -18.498  0.00  0.00    +0.098 C 
ATOM      9  C   UNL     1      32.756 -20.672 -20.266  0.00  0.00    +0.195 C 
ENDROOT
BRANCH   7  12
ATOM     10  N   UNL     1      34.244 -17.797 -23.017  0.00  0.00    -0.208 N 
ATOM     11  N   UNL     1      35.156 -17.172 -22.252  0.00  0.00    -0.176 NA
ATOM     12  C   UNL     1      34.281 -18.996 -21.191  0.00  0.00    +0.064 C 
ATOM     13  C   UNL     1      33.691 -18.896 -22.427  0.00  0.00    +0.088 C 
ATOM     14  C   UNL     1      35.174 -17.909 -21.138  0.00  0.00    +0.121 C 
BRANCH  10  15
ATOM     15  C   UNL     1      33.936 -17.283 -24.330  0.00  0.00    +0.148 C 
BRANCH  15  16
ATOM     16  C   UNL     1      33.844 -15.763 -24.355  0.00  0.00    +0.161 C 
BRANCH  16  17
ATOM     17  O   UNL     1      33.044 -15.350 -25.455  0.00  0.00    -0.380 OA
ATOM     18  H   UNL     1      32.728 -14.446 -25.304  0.00  0.00    +0.211 HD
ENDBRANCH  16  17
ENDBRANCH  15  16
ENDBRANCH  10  15
ENDBRANCH   7  12
BRANCH   1  19
ATOM     19  C   UNL     1      36.609 -21.514 -16.982  0.00  0.00    +0.145 C 
BRANCH  19  21
ATOM     20  N   UNL     1      37.978 -24.491 -12.367  0.00  0.00    -0.244 NA
ATOM     21  C   UNL     1      36.961 -22.296 -15.761  0.00  0.00    -0.000 C 
ATOM     22  C   UNL     1      36.170 -22.206 -14.619  0.00  0.00    -0.001 C 
ATOM     23  C   UNL     1      36.499 -22.940 -13.467  0.00  0.00    +0.017 C 
ATOM     24  C   UNL     1      38.082 -23.116 -15.756  0.00  0.00    -0.001 C 
ATOM     25  C   UNL     1      37.635 -23.775 -13.455  0.00  0.00    +0.081 C 
ATOM     26  C   UNL     1      38.409 -23.846 -14.610  0.00  0.00    +0.019 C 
ATOM     27  C   UNL     1      35.719 -22.868 -12.305  0.00  0.00    +0.003 C 
ATOM     28  C   UNL     1      36.071 -23.605 -11.182  0.00  0.00    +0.021 C 
ATOM     29  C   UNL     1      37.199 -24.394 -11.266  0.00  0.00    +0.099 C 
ENDBRANCH  19  21
ENDBRANCH   1  19
TORSDOF 6
ENDMDL
MODEL 9
REMARK VINA RESULT:     -11.6      4.257      9.880
REMARK  Name = 17754438
REMARK  6 active torsions:
REMARK  status: ('A' for Active; 'I' for Inactive)
REMARK    1  A    between atoms: N_1  and  C_19
REMARK    2  A    between atoms: C_7  and  C_12
REMARK    3  A    between atoms: N_10  and  C_15
REMARK    4  A    between atoms: C_15  and  C_16
REMARK    5  A    between atoms: C_16  and  O_17
REMARK    6  A    between atoms: C_19  and  C_21
REMARK                            x       y       z     vdW  Elec       q    Type
REMARK                         _______ _______ _______ _____ _____    ______ ____
ROOT
ATOM      1  N   UNL     1      34.710 -18.654 -22.656  0.00  0.00    -0.163 N 
ATOM      2  N   UNL     1      34.139 -16.280 -22.555  0.00  0.00    -0.378 NA
ATOM      3  N   UNL     1      34.586 -19.644 -23.562  0.00  0.00    -0.033 NA
ATOM      4  N   UNL     1      33.180 -16.900 -25.217  0.00  0.00    -0.208 NA
ATOM      5  N   UNL     1      33.999 -19.135 -24.645  0.00  0.00    -0.086 NA
ATOM      6  C   UNL     1      34.206 -17.487 -23.137  0.00  0.00    +0.267 C 
ATOM      7  C   UNL     1      33.560 -15.376 -23.378  0.00  0.00    +0.140 C 
ATOM      8  C   UNL     1      33.759 -17.814 -24.403  0.00  0.00    +0.098 C 
ATOM      9  C   UNL     1      33.100 -15.673 -24.654  0.00  0.00    +0.195 C 
ENDROOT
BRANCH   7  12
ATOM     10  N   UNL     1      32.962 -11.919 -22.709  0.00  0.00    -0.208 N 
ATOM     11  N   UNL     1      33.511 -12.198 -21.514  0.00  0.00    -0.176 NA
ATOM     12  C   UNL     1      33.436 -14.046 -22.855  0.00  0.00    +0.064 C 
ATOM     13  C   UNL     1      32.894 -12.991 -23.548  0.00  0.00    +0.088 C 
ATOM     14  C   UNL     1      33.799 -13.499 -21.610  0.00  0.00    +0.121 C 
BRANCH  10  15
ATOM     15  C   UNL     1      32.508 -10.578 -22.992  0.00  0.00    +0.148 C 
BRANCH  15  16
ATOM     16  C   UNL     1      31.308 -10.177 -22.146  0.00  0.00    +0.161 C 
BRANCH  16  17
ATOM     17  O   UNL     1      30.707 -11.337 -21.586  0.00  0.00    -0.380 OA
ATOM     18  H   UNL     1      31.341 -11.779 -21.000  0.00  0.00    +0.211 HD
ENDBRANCH  16  17
ENDBRANCH  15  16
ENDBRANCH  10  15
ENDBRANCH   7  12
BRANCH   1  19
ATOM     19  C   UNL     1      35.326 -18.908 -21.349  0.00  0.00    +0.145 C 
BRANCH  19  21
ATOM     20  N   UNL     1      31.943 -22.005 -18.033  0.00  0.00    -0.244 NA
ATOM     21  C   UNL     1      34.442 -19.727 -20.469  0.00  0.00    -0.000 C 
ATOM     22  C   UNL     1      34.994 -20.524 -19.470  0.00  0.00    -0.001 C 
ATOM     23  C   UNL     1      34.165 -21.297 -18.640  0.00  0.00    +0.017 C 
ATOM     24  C   UNL     1      33.064 -19.701 -20.644  0.00  0.00    -0.001 C 
ATOM     25  C   UNL     1      32.766 -21.275 -18.811  0.00  0.00    +0.081 C 
ATOM     26  C   UNL     1      32.241 -20.470 -19.818  0.00  0.00    +0.019 C 
ATOM     27  C   UNL     1      34.694 -22.107 -17.626  0.00  0.00    +0.003 C 
ATOM     28  C   UNL     1      33.849 -22.860 -16.823  0.00  0.00    +0.021 C 
ATOM     29  C   UNL     1      32.494 -22.773 -17.065  0.00  0.00    +0.099 C 
ENDBRANCH  19  21
ENDBRANCH   1  19
TORSDOF 6
ENDMDL
