MODEL 1
REMARK VINA RESULT:     -11.2      0.000      0.000
REMARK  Name = 447297
REMARK  4 active torsions:
REMARK  status: ('A' for Active; 'I' for Inactive)
REMARK    1  A    between atoms: N_1  and  C_5
REMARK    2  A    between atoms: N_1  and  S_14
REMARK    3  A    between atoms: N_3  and  C_8
REMARK    4  A    between atoms: S_14  and  C_17
REMARK                            x       y       z     vdW  Elec       q    Type
REMARK                         _______ _______ _______ _____ _____    ______ ____
ROOT
ATOM      1  N   UNL     1      33.687 -22.251 -16.172  0.00  0.00    -0.174 N 
ATOM      2  C   UNL     1      35.169 -22.372 -16.224  0.00  0.00    +0.141 C 
ENDROOT
BRANCH   1   5
ATOM      3  N   UNL     1      33.595 -23.641 -14.065  0.00  0.00    -0.175 N 
ATOM      4  N   UNL     1      32.740 -24.006 -13.093  0.00  0.00    -0.171 NA
ATOM      5  C   UNL     1      33.026 -22.835 -14.973  0.00  0.00    +0.144 C 
ATOM      6  C   UNL     1      31.737 -22.635 -14.621  0.00  0.00    +0.056 C 
ATOM      7  C   UNL     1      31.607 -23.387 -13.439  0.00  0.00    +0.121 C 
BRANCH   3   8
ATOM      8  C   UNL     1      34.910 -24.100 -14.047  0.00  0.00    +0.075 C 
ATOM      9  C   UNL     1      35.856 -23.440 -13.272  0.00  0.00    +0.017 C 
ATOM     10  C   UNL     1      35.260 -25.214 -14.801  0.00  0.00    +0.017 C 
ATOM     11  C   UNL     1      37.173 -23.901 -13.251  0.00  0.00    +0.001 C 
ATOM     12  C   UNL     1      36.576 -25.675 -14.780  0.00  0.00    +0.001 C 
ATOM     13  C   UNL     1      37.532 -25.018 -14.005  0.00  0.00    +0.000 C 
ENDBRANCH   3   8
ENDBRANCH   1   5
BRANCH   1  14
ATOM     14  S   UNL     1      32.821 -22.602 -17.638  0.00  0.00    +0.078 S 
ATOM     15  O   UNL     1      31.424 -22.232 -17.449  0.00  0.00    -0.150 OA
ATOM     16  O   UNL     1      33.148 -23.949 -18.089  0.00  0.00    -0.150 OA
BRANCH  14  17
ATOM     17  C   UNL     1      33.550 -21.496 -18.774  0.00  0.00    +0.125 C 
ATOM     18  C   UNL     1      32.745 -20.658 -19.546  0.00  0.00    +0.020 C 
ATOM     19  C   UNL     1      34.938 -21.450 -18.912  0.00  0.00    +0.020 C 
ATOM     20  C   UNL     1      34.714 -19.728 -20.592  0.00  0.00    -0.022 C 
ATOM     21  C   UNL     1      33.326 -19.774 -20.455  0.00  0.00    -0.003 C 
ATOM     22  C   UNL     1      35.520 -20.566 -19.821  0.00  0.00    -0.003 C 
ATOM     23  C   UNL     1      35.336 -18.783 -21.564  0.00  0.00    +0.031 C 
ENDBRANCH  14  17
ENDBRANCH   1  14
TORSDOF 4
ENDMDL
MODEL 2
REMARK VINA RESULT:     -10.5      2.898      4.436
REMARK  Name = 447297
REMARK  4 active torsions:
REMARK  status: ('A' for Active; 'I' for Inactive)
REMARK    1  A    between atoms: N_1  and  C_5
REMARK    2  A    between atoms: N_1  and  S_14
REMARK    3  A    between atoms: N_3  and  C_8
REMARK    4  A    between atoms: S_14  and  C_17
REMARK                            x       y       z     vdW  Elec       q    Type
REMARK                         _______ _______ _______ _____ _____    ______ ____
ROOT
ATOM      1  N   UNL     1      36.499 -24.100 -15.225  0.00  0.00    -0.174 N 
ATOM      2  C   UNL     1      35.499 -25.189 -15.055  0.00  0.00    +0.141 C 
ENDROOT
BRANCH   1   5
ATOM      3  N   UNL     1      38.114 -24.334 -13.297  0.00  0.00    -0.175 N 
ATOM      4  N   UNL     1      39.412 -24.580 -13.048  0.00  0.00    -0.171 NA
ATOM      5  C   UNL     1      37.832 -24.337 -14.608  0.00  0.00    +0.144 C 
ATOM      6  C   UNL     1      38.971 -24.592 -15.290  0.00  0.00    +0.056 C 
ATOM      7  C   UNL     1      39.930 -24.736 -14.270  0.00  0.00    +0.121 C 
BRANCH   3   8
ATOM      8  C   UNL     1      37.230 -24.112 -12.242  0.00  0.00    +0.075 C 
ATOM      9  C   UNL     1      37.183 -22.862 -11.638  0.00  0.00    +0.017 C 
ATOM     10  C   UNL     1      36.405 -25.144 -11.808  0.00  0.00    +0.017 C 
ATOM     11  C   UNL     1      36.296 -22.639 -10.584  0.00  0.00    +0.001 C 
ATOM     12  C   UNL     1      35.519 -24.920 -10.755  0.00  0.00    +0.001 C 
ATOM     13  C   UNL     1      35.465 -23.668 -10.143  0.00  0.00    +0.000 C 
ENDBRANCH   3   8
ENDBRANCH   1   5
BRANCH   1  14
ATOM     14  S   UNL     1      35.936 -22.475 -14.974  0.00  0.00    +0.078 S 
ATOM     15  O   UNL     1      37.071 -21.647 -14.585  0.00  0.00    -0.150 OA
ATOM     16  O   UNL     1      34.745 -22.494 -14.134  0.00  0.00    -0.150 OA
BRANCH  14  17
ATOM     17  C   UNL     1      35.419 -22.009 -16.575  0.00  0.00    +0.125 C 
ATOM     18  C   UNL     1      36.299 -21.333 -17.422  0.00  0.00    +0.020 C 
ATOM     19  C   UNL     1      34.128 -22.312 -17.008  0.00  0.00    +0.020 C 
ATOM     20  C   UNL     1      34.596 -21.263 -19.134  0.00  0.00    -0.022 C 
ATOM     21  C   UNL     1      35.887 -20.960 -18.701  0.00  0.00    -0.003 C 
ATOM     22  C   UNL     1      33.716 -21.939 -18.287  0.00  0.00    -0.003 C 
ATOM     23  C   UNL     1      34.155 -20.864 -20.502  0.00  0.00    +0.031 C 
ENDBRANCH  14  17
ENDBRANCH   1  14
TORSDOF 4
ENDMDL
MODEL 3
REMARK VINA RESULT:     -10.3      5.751     10.249
REMARK  Name = 447297
REMARK  4 active torsions:
REMARK  status: ('A' for Active; 'I' for Inactive)
REMARK    1  A    between atoms: N_1  and  C_5
REMARK    2  A    between atoms: N_1  and  S_14
REMARK    3  A    between atoms: N_3  and  C_8
REMARK    4  A    between atoms: S_14  and  C_17
REMARK                            x       y       z     vdW  Elec       q    Type
REMARK                         _______ _______ _______ _____ _____    ______ ____
ROOT
ATOM      1  N   UNL     1      34.921 -17.048 -22.059  0.00  0.00    -0.174 N 
ATOM      2  C   UNL     1      34.249 -16.513 -20.844  0.00  0.00    +0.141 C 
ENDROOT
BRANCH   1   5
ATOM      3  N   UNL     1      33.420 -16.267 -23.935  0.00  0.00    -0.175 N 
ATOM      4  N   UNL     1      32.711 -16.747 -24.972  0.00  0.00    -0.171 NA
ATOM      5  C   UNL     1      34.054 -17.233 -23.255  0.00  0.00    +0.144 C 
ATOM      6  C   UNL     1      33.777 -18.420 -23.838  0.00  0.00    +0.056 C 
ATOM      7  C   UNL     1      32.933 -18.063 -24.907  0.00  0.00    +0.121 C 
BRANCH   3   8
ATOM      8  C   UNL     1      33.434 -14.898 -23.673  0.00  0.00    +0.075 C 
ATOM      9  C   UNL     1      33.014 -14.008 -24.653  0.00  0.00    +0.017 C 
ATOM     10  C   UNL     1      33.867 -14.440 -22.434  0.00  0.00    +0.017 C 
ATOM     11  C   UNL     1      33.025 -12.637 -24.389  0.00  0.00    +0.001 C 
ATOM     12  C   UNL     1      33.878 -13.071 -22.171  0.00  0.00    +0.001 C 
ATOM     13  C   UNL     1      33.458 -12.170 -23.149  0.00  0.00    +0.000 C 
ENDBRANCH   3   8
ENDBRANCH   1   5
BRANCH   1  14
ATOM     14  S   UNL     1      36.015 -18.378 -21.827  0.00  0.00    +0.078 S 
ATOM     15  O   UNL     1      37.181 -17.896 -21.096  0.00  0.00    -0.150 OA
ATOM     16  O   UNL     1      36.206 -19.082 -23.089  0.00  0.00    -0.150 OA
BRANCH  14  17
ATOM     17  C   UNL     1      35.096 -19.439 -20.789  0.00  0.00    +0.125 C 
ATOM     18  C   UNL     1      35.756 -20.269 -19.881  0.00  0.00    +0.020 C 
ATOM     19  C   UNL     1      33.704 -19.458 -20.867  0.00  0.00    +0.020 C 
ATOM     20  C   UNL     1      33.630 -21.136 -19.130  0.00  0.00    -0.022 C 
ATOM     21  C   UNL     1      35.023 -21.117 -19.052  0.00  0.00    -0.003 C 
ATOM     22  C   UNL     1      32.970 -20.307 -20.038  0.00  0.00    -0.003 C 
ATOM     23  C   UNL     1      32.845 -22.042 -18.243  0.00  0.00    +0.031 C 
ENDBRANCH  14  17
ENDBRANCH   1  14
TORSDOF 4
ENDMDL
MODEL 4
REMARK VINA RESULT:     -10.1      2.342      3.496
REMARK  Name = 447297
REMARK  4 active torsions:
REMARK  status: ('A' for Active; 'I' for Inactive)
REMARK    1  A    between atoms: N_1  and  C_5
REMARK    2  A    between atoms: N_1  and  S_14
REMARK    3  A    between atoms: N_3  and  C_8
REMARK    4  A    between atoms: S_14  and  C_17
REMARK                            x       y       z     vdW  Elec       q    Type
REMARK                         _______ _______ _______ _____ _____    ______ ____
ROOT
ATOM      1  N   UNL     1      35.297 -22.936 -13.948  0.00  0.00    -0.174 N 
ATOM      2  C   UNL     1      36.457 -22.364 -14.683  0.00  0.00    +0.141 C 
ENDROOT
BRANCH   1   5
ATOM      3  N   UNL     1      36.599 -24.174 -12.172  0.00  0.00    -0.175 N 
ATOM      4  N   UNL     1      36.576 -24.433 -10.853  0.00  0.00    -0.171 NA
ATOM      5  C   UNL     1      35.571 -23.407 -12.563  0.00  0.00    +0.144 C 
ATOM      6  C   UNL     1      34.810 -23.127 -11.482  0.00  0.00    +0.056 C 
ATOM      7  C   UNL     1      35.481 -23.791 -10.437  0.00  0.00    +0.121 C 
BRANCH   3   8
ATOM      8  C   UNL     1      37.621 -24.688 -12.968  0.00  0.00    +0.075 C 
ATOM      9  C   UNL     1      38.840 -24.024 -13.033  0.00  0.00    +0.017 C 
ATOM     10  C   UNL     1      37.410 -25.860 -13.684  0.00  0.00    +0.017 C 
ATOM     11  C   UNL     1      39.864 -24.541 -13.826  0.00  0.00    +0.001 C 
ATOM     12  C   UNL     1      38.435 -26.376 -14.477  0.00  0.00    +0.001 C 
ATOM     13  C   UNL     1      39.661 -25.716 -14.549  0.00  0.00    +0.000 C 
ENDBRANCH   3   8
ENDBRANCH   1   5
BRANCH   1  14
ATOM     14  S   UNL     1      34.277 -24.034 -14.827  0.00  0.00    +0.078 S 
ATOM     15  O   UNL     1      33.112 -24.342 -14.006  0.00  0.00    -0.150 OA
ATOM     16  O   UNL     1      35.080 -25.125 -15.365  0.00  0.00    -0.150 OA
BRANCH  14  17
ATOM     17  C   UNL     1      33.769 -23.063 -16.186  0.00  0.00    +0.125 C 
ATOM     18  C   UNL     1      34.723 -22.467 -17.012  0.00  0.00    +0.020 C 
ATOM     19  C   UNL     1      32.410 -22.881 -16.445  0.00  0.00    +0.020 C 
ATOM     20  C   UNL     1      32.959 -21.509 -18.357  0.00  0.00    -0.022 C 
ATOM     21  C   UNL     1      34.318 -21.691 -18.098  0.00  0.00    -0.003 C 
ATOM     22  C   UNL     1      32.005 -22.105 -17.531  0.00  0.00    -0.003 C 
ATOM     23  C   UNL     1      32.525 -20.680 -19.518  0.00  0.00    +0.031 C 
ENDBRANCH  14  17
ENDBRANCH   1  14
TORSDOF 4
ENDMDL
MODEL 5
REMARK VINA RESULT:     -10.0     11.527     15.753
REMARK  Name = 447297
REMARK  4 active torsions:
REMARK  status: ('A' for Active; 'I' for Inactive)
REMARK    1  A    between atoms: N_1  and  C_5
REMARK    2  A    between atoms: N_1  and  S_14
REMARK    3  A    between atoms: N_3  and  C_8
REMARK    4  A    between atoms: S_14  and  C_17
REMARK                            x       y       z     vdW  Elec       q    Type
REMARK                         _______ _______ _______ _____ _____    ______ ____
ROOT
ATOM      1  N   UNL     1      31.885  -9.391 -22.157  0.00  0.00    -0.174 N 
ATOM      2  C   UNL     1      33.159  -9.664 -22.877  0.00  0.00    +0.141 C 
ENDROOT
BRANCH   1   5
ATOM      3  N   UNL     1      31.943  -6.875 -21.947  0.00  0.00    -0.175 N 
ATOM      4  N   UNL     1      31.834  -5.903 -21.024  0.00  0.00    -0.171 NA
ATOM      5  C   UNL     1      31.817  -8.101 -21.419  0.00  0.00    +0.144 C 
ATOM      6  C   UNL     1      31.616  -7.976 -20.088  0.00  0.00    +0.056 C 
ATOM      7  C   UNL     1      31.635  -6.582 -19.891  0.00  0.00    +0.121 C 
BRANCH   3   8
ATOM      8  C   UNL     1      32.161  -6.547 -23.284  0.00  0.00    +0.075 C 
ATOM      9  C   UNL     1      31.117  -6.654 -24.195  0.00  0.00    +0.017 C 
ATOM     10  C   UNL     1      33.418  -6.117 -23.689  0.00  0.00    +0.017 C 
ATOM     11  C   UNL     1      31.334  -6.323 -25.533  0.00  0.00    +0.001 C 
ATOM     12  C   UNL     1      33.635  -5.786 -25.027  0.00  0.00    +0.001 C 
ATOM     13  C   UNL     1      32.593  -5.890 -25.948  0.00  0.00    +0.000 C 
ENDBRANCH   3   8
ENDBRANCH   1   5
BRANCH   1  14
ATOM     14  S   UNL     1      31.203 -10.707 -21.248  0.00  0.00    +0.078 S 
ATOM     15  O   UNL     1      29.818 -10.889 -21.666  0.00  0.00    -0.150 OA
ATOM     16  O   UNL     1      31.504 -10.532 -19.832  0.00  0.00    -0.150 OA
BRANCH  14  17
ATOM     17  C   UNL     1      32.144 -12.069 -21.802  0.00  0.00    +0.125 C 
ATOM     18  C   UNL     1      32.926 -12.789 -20.898  0.00  0.00    +0.020 C 
ATOM     19  C   UNL     1      32.115 -12.437 -23.147  0.00  0.00    +0.020 C 
ATOM     20  C   UNL     1      33.650 -14.246 -22.685  0.00  0.00    -0.022 C 
ATOM     21  C   UNL     1      33.679 -13.877 -21.339  0.00  0.00    -0.003 C 
ATOM     22  C   UNL     1      32.868 -13.525 -23.588  0.00  0.00    -0.003 C 
ATOM     23  C   UNL     1      34.454 -15.409 -23.157  0.00  0.00    +0.031 C 
ENDBRANCH  14  17
ENDBRANCH   1  14
TORSDOF 4
ENDMDL
MODEL 6
REMARK VINA RESULT:      -9.8     14.047     18.184
REMARK  Name = 447297
REMARK  4 active torsions:
REMARK  status: ('A' for Active; 'I' for Inactive)
REMARK    1  A    between atoms: N_1  and  C_5
REMARK    2  A    between atoms: N_1  and  S_14
REMARK    3  A    between atoms: N_3  and  C_8
REMARK    4  A    between atoms: S_14  and  C_17
REMARK                            x       y       z     vdW  Elec       q    Type
REMARK                         _______ _______ _______ _____ _____    ______ ____
ROOT
ATOM      1  N   UNL     1      32.145  -6.641 -22.434  0.00  0.00    -0.174 N 
ATOM      2  C   UNL     1      32.577  -7.111 -21.090  0.00  0.00    +0.141 C 
ENDROOT
BRANCH   1   5
ATOM      3  N   UNL     1      32.037  -4.366 -23.527  0.00  0.00    -0.175 N 
ATOM      4  N   UNL     1      31.535  -3.135 -23.324  0.00  0.00    -0.171 NA
ATOM      5  C   UNL     1      31.745  -5.210 -22.527  0.00  0.00    +0.144 C 
ATOM      6  C   UNL     1      31.019  -4.545 -21.602  0.00  0.00    +0.056 C 
ATOM      7  C   UNL     1      30.914  -3.251 -22.147  0.00  0.00    +0.121 C 
BRANCH   3   8
ATOM      8  C   UNL     1      32.768  -4.641 -24.681  0.00  0.00    +0.075 C 
ATOM      9  C   UNL     1      32.103  -4.813 -25.889  0.00  0.00    +0.017 C 
ATOM     10  C   UNL     1      34.152  -4.739 -24.610  0.00  0.00    +0.017 C 
ATOM     11  C   UNL     1      32.835  -5.085 -27.045  0.00  0.00    +0.001 C 
ATOM     12  C   UNL     1      34.884  -5.011 -25.766  0.00  0.00    +0.001 C 
ATOM     13  C   UNL     1      34.225  -5.185 -26.983  0.00  0.00    +0.000 C 
ENDBRANCH   3   8
ENDBRANCH   1   5
BRANCH   1  14
ATOM     14  S   UNL     1      31.072  -7.683 -23.320  0.00  0.00    +0.078 S 
ATOM     15  O   UNL     1      31.531  -7.751 -24.702  0.00  0.00    -0.150 OA
ATOM     16  O   UNL     1      29.690  -7.313 -23.043  0.00  0.00    -0.150 OA
BRANCH  14  17
ATOM     17  C   UNL     1      31.344  -9.230 -22.558  0.00  0.00    +0.125 C 
ATOM     18  C   UNL     1      32.211 -10.153 -23.145  0.00  0.00    +0.020 C 
ATOM     19  C   UNL     1      30.695  -9.545 -21.364  0.00  0.00    +0.020 C 
ATOM     20  C   UNL     1      31.780 -11.704 -21.343  0.00  0.00    -0.022 C 
ATOM     21  C   UNL     1      32.429 -11.389 -22.537  0.00  0.00    -0.003 C 
ATOM     22  C   UNL     1      30.913 -10.781 -20.757  0.00  0.00    -0.003 C 
ATOM     23  C   UNL     1      32.013 -13.025 -20.693  0.00  0.00    +0.031 C 
ENDBRANCH  14  17
ENDBRANCH   1  14
TORSDOF 4
ENDMDL
MODEL 7
REMARK VINA RESULT:      -9.8     14.064     18.195
REMARK  Name = 447297
REMARK  4 active torsions:
REMARK  status: ('A' for Active; 'I' for Inactive)
REMARK    1  A    between atoms: N_1  and  C_5
REMARK    2  A    between atoms: N_1  and  S_14
REMARK    3  A    between atoms: N_3  and  C_8
REMARK    4  A    between atoms: S_14  and  C_17
REMARK                            x       y       z     vdW  Elec       q    Type
REMARK                         _______ _______ _______ _____ _____    ______ ____
ROOT
ATOM      1  N   UNL     1      32.166  -6.628 -22.469  0.00  0.00    -0.174 N 
ATOM      2  C   UNL     1      32.627  -7.094 -21.133  0.00  0.00    +0.141 C 
ENDROOT
BRANCH   1   5
ATOM      3  N   UNL     1      32.064  -4.355 -23.566  0.00  0.00    -0.175 N 
ATOM      4  N   UNL     1      31.573  -3.120 -23.362  0.00  0.00    -0.171 NA
ATOM      5  C   UNL     1      31.776  -5.195 -22.561  0.00  0.00    +0.144 C 
ATOM      6  C   UNL     1      31.064  -4.521 -21.630  0.00  0.00    +0.056 C 
ATOM      7  C   UNL     1      30.964  -3.228 -22.177  0.00  0.00    +0.121 C 
BRANCH   3   8
ATOM      8  C   UNL     1      32.780  -4.639 -24.727  0.00  0.00    +0.075 C 
ATOM      9  C   UNL     1      32.100  -4.835 -25.922  0.00  0.00    +0.017 C 
ATOM     10  C   UNL     1      34.167  -4.719 -24.676  0.00  0.00    +0.017 C 
ATOM     11  C   UNL     1      32.818  -5.116 -27.085  0.00  0.00    +0.001 C 
ATOM     12  C   UNL     1      34.884  -5.000 -25.839  0.00  0.00    +0.001 C 
ATOM     13  C   UNL     1      34.209  -5.199 -27.043  0.00  0.00    +0.000 C 
ENDBRANCH   3   8
ENDBRANCH   1   5
BRANCH   1  14
ATOM     14  S   UNL     1      31.063  -7.666 -23.321  0.00  0.00    +0.078 S 
ATOM     15  O   UNL     1      31.492  -7.755 -24.712  0.00  0.00    -0.150 OA
ATOM     16  O   UNL     1      29.691  -7.276 -23.022  0.00  0.00    -0.150 OA
BRANCH  14  17
ATOM     17  C   UNL     1      31.331  -9.208 -22.548  0.00  0.00    +0.125 C 
ATOM     18  C   UNL     1      30.695  -9.502 -21.341  0.00  0.00    +0.020 C 
ATOM     19  C   UNL     1      32.180 -10.146 -23.135  0.00  0.00    +0.020 C 
ATOM     20  C   UNL     1      31.758 -11.672 -21.309  0.00  0.00    -0.022 C 
ATOM     21  C   UNL     1      30.909 -10.733 -20.722  0.00  0.00    -0.003 C 
ATOM     22  C   UNL     1      32.393 -11.378 -22.517  0.00  0.00    -0.003 C 
ATOM     23  C   UNL     1      31.986 -12.988 -20.648  0.00  0.00    +0.031 C 
ENDBRANCH  14  17
ENDBRANCH   1  14
TORSDOF 4
ENDMDL
MODEL 8
REMARK VINA RESULT:      -9.8      3.463      4.768
REMARK  Name = 447297
REMARK  4 active torsions:
REMARK  status: ('A' for Active; 'I' for Inactive)
REMARK    1  A    between atoms: N_1  and  C_5
REMARK    2  A    between atoms: N_1  and  S_14
REMARK    3  A    between atoms: N_3  and  C_8
REMARK    4  A    between atoms: S_14  and  C_17
REMARK                            x       y       z     vdW  Elec       q    Type
REMARK                         _______ _______ _______ _____ _____    ______ ____
ROOT
ATOM      1  N   UNL     1      35.240 -22.857 -13.732  0.00  0.00    -0.174 N 
ATOM      2  C   UNL     1      36.374 -21.994 -14.162  0.00  0.00    +0.141 C 
ENDROOT
BRANCH   1   5
ATOM      3  N   UNL     1      36.437 -24.427 -12.156  0.00  0.00    -0.175 N 
ATOM      4  N   UNL     1      36.333 -24.940 -10.917  0.00  0.00    -0.171 NA
ATOM      5  C   UNL     1      35.430 -23.592 -12.452  0.00  0.00    +0.144 C 
ATOM      6  C   UNL     1      34.602 -23.525 -11.386  0.00  0.00    +0.056 C 
ATOM      7  C   UNL     1      35.210 -24.385 -10.452  0.00  0.00    +0.121 C 
BRANCH   3   8
ATOM      8  C   UNL     1      37.510 -24.782 -12.971  0.00  0.00    +0.075 C 
ATOM      9  C   UNL     1      38.702 -24.075 -12.882  0.00  0.00    +0.017 C 
ATOM     10  C   UNL     1      37.375 -25.841 -13.861  0.00  0.00    +0.017 C 
ATOM     11  C   UNL     1      39.777 -24.432 -13.696  0.00  0.00    +0.001 C 
ATOM     12  C   UNL     1      38.450 -26.198 -14.675  0.00  0.00    +0.001 C 
ATOM     13  C   UNL     1      39.651 -25.493 -14.593  0.00  0.00    +0.000 C 
ENDBRANCH   3   8
ENDBRANCH   1   5
BRANCH   1  14
ATOM     14  S   UNL     1      34.501 -23.846 -14.956  0.00  0.00    +0.078 S 
ATOM     15  O   UNL     1      34.553 -25.236 -14.521  0.00  0.00    -0.150 OA
ATOM     16  O   UNL     1      35.035 -23.486 -16.264  0.00  0.00    -0.150 OA
BRANCH  14  17
ATOM     17  C   UNL     1      32.843 -23.304 -14.920  0.00  0.00    +0.125 C 
ATOM     18  C   UNL     1      32.157 -23.239 -13.706  0.00  0.00    +0.020 C 
ATOM     19  C   UNL     1      32.202 -22.937 -16.103  0.00  0.00    +0.020 C 
ATOM     20  C   UNL     1      30.190 -22.440 -14.859  0.00  0.00    -0.022 C 
ATOM     21  C   UNL     1      30.831 -22.807 -13.676  0.00  0.00    -0.003 C 
ATOM     22  C   UNL     1      30.876 -22.505 -16.073  0.00  0.00    -0.003 C 
ATOM     23  C   UNL     1      28.773 -21.977 -14.828  0.00  0.00    +0.031 C 
ENDBRANCH  14  17
ENDBRANCH   1  14
TORSDOF 4
ENDMDL
MODEL 9
REMARK VINA RESULT:      -9.7      2.866      5.109
REMARK  Name = 447297
REMARK  4 active torsions:
REMARK  status: ('A' for Active; 'I' for Inactive)
REMARK    1  A    between atoms: N_1  and  C_5
REMARK    2  A    between atoms: N_1  and  S_14
REMARK    3  A    between atoms: N_3  and  C_8
REMARK    4  A    between atoms: S_14  and  C_17
REMARK                            x       y       z     vdW  Elec       q    Type
REMARK                         _______ _______ _______ _____ _____    ______ ____
ROOT
ATOM      1  N   UNL     1      34.303 -23.981 -15.218  0.00  0.00    -0.174 N 
ATOM      2  C   UNL     1      34.816 -25.359 -14.988  0.00  0.00    +0.141 C 
ENDROOT
BRANCH   1   5
ATOM      3  N   UNL     1      36.512 -22.758 -15.288  0.00  0.00    -0.175 N 
ATOM      4  N   UNL     1      37.161 -21.818 -15.996  0.00  0.00    -0.171 NA
ATOM      5  C   UNL     1      35.283 -23.003 -15.765  0.00  0.00    +0.144 C 
ATOM      6  C   UNL     1      35.072 -22.208 -16.836  0.00  0.00    +0.056 C 
ATOM      7  C   UNL     1      36.276 -21.486 -16.941  0.00  0.00    +0.121 C 
BRANCH   3   8
ATOM      8  C   UNL     1      37.130 -23.358 -14.192  0.00  0.00    +0.075 C 
ATOM      9  C   UNL     1      36.813 -22.933 -12.908  0.00  0.00    +0.017 C 
ATOM     10  C   UNL     1      38.054 -24.376 -14.397  0.00  0.00    +0.017 C 
ATOM     11  C   UNL     1      37.430 -23.536 -11.811  0.00  0.00    +0.001 C 
ATOM     12  C   UNL     1      38.670 -24.979 -13.301  0.00  0.00    +0.001 C 
ATOM     13  C   UNL     1      38.358 -24.558 -12.008  0.00  0.00    +0.000 C 
ENDBRANCH   3   8
ENDBRANCH   1   5
BRANCH   1  14
ATOM     14  S   UNL     1      33.317 -23.294 -13.963  0.00  0.00    +0.078 S 
ATOM     15  O   UNL     1      33.641 -21.877 -13.843  0.00  0.00    -0.150 OA
ATOM     16  O   UNL     1      33.371 -24.141 -12.778  0.00  0.00    -0.150 OA
BRANCH  14  17
ATOM     17  C   UNL     1      31.709 -23.451 -14.625  0.00  0.00    +0.125 C 
ATOM     18  C   UNL     1      31.296 -22.610 -15.659  0.00  0.00    +0.020 C 
ATOM     19  C   UNL     1      30.837 -24.416 -14.120  0.00  0.00    +0.020 C 
ATOM     20  C   UNL     1      29.140 -23.700 -15.684  0.00  0.00    -0.022 C 
ATOM     21  C   UNL     1      30.012 -22.735 -16.188  0.00  0.00    -0.003 C 
ATOM     22  C   UNL     1      29.553 -24.541 -14.649  0.00  0.00    -0.003 C 
ATOM     23  C   UNL     1      27.767 -23.834 -16.250  0.00  0.00    +0.031 C 
ENDBRANCH  14  17
ENDBRANCH   1  14
TORSDOF 4
ENDMDL
