MODEL 1
REMARK VINA RESULT:     -13.2      0.000      0.000
REMARK  Name = 445756
REMARK  6 active torsions:
REMARK  status: ('A' for Active; 'I' for Inactive)
REMARK    1  A    between atoms: C_3  and  C_11
REMARK    2  A    between atoms: C_6  and  C_22
REMARK    3  A    between atoms: C_11  and  N_12
REMARK    4  A    between atoms: C_22  and  N_23
REMARK    5  A    between atoms: N_23  and  C_25
REMARK    6  A    between atoms: C_30  and  C_33
REMARK                            x       y       z     vdW  Elec       q    Type
REMARK                         _______ _______ _______ _____ _____    ______ ____
ROOT
ATOM      1  N   UNL     1      33.972 -14.707 -22.668  0.00  0.00    -0.261 N 
ATOM      2  N   UNL     1      33.374 -14.685 -20.528  0.00  0.00    -0.392 NA
ATOM      3  C   UNL     1      31.438 -11.674 -21.602  0.00  0.00    -0.017 C 
ATOM      4  C   UNL     1      33.137 -13.628 -22.533  0.00  0.00    +0.079 C 
ATOM      5  C   UNL     1      32.777 -13.636 -21.188  0.00  0.00    +0.128 C 
ATOM      6  C   UNL     1      34.083 -15.306 -21.444  0.00  0.00    +0.183 C 
ATOM      7  C   UNL     1      31.910 -12.642 -20.705  0.00  0.00    +0.084 C 
ATOM      8  C   UNL     1      31.817 -11.693 -22.946  0.00  0.00    -0.005 C 
ATOM      9  C   UNL     1      32.679 -12.675 -23.443  0.00  0.00    +0.017 C 
ATOM     10  C   UNL     1      34.619 -15.133 -23.889  0.00  0.00    +0.120 C 
ENDROOT
BRANCH   3  11
ATOM     11  C   UNL     1      30.514 -10.608 -21.110  0.00  0.00    +0.120 C 
BRANCH  11  12
ATOM     12  N   UNL     1      31.231  -9.369 -20.796  0.00  0.00    -0.260 N 
ATOM     13  N   UNL     1      32.245  -7.820 -19.601  0.00  0.00    -0.394 NA
ATOM     14  C   UNL     1      31.608  -8.429 -21.703  0.00  0.00    +0.079 C 
ATOM     15  C   UNL     1      31.623  -8.977 -19.560  0.00  0.00    +0.164 C 
ATOM     16  C   UNL     1      32.245  -7.462 -20.930  0.00  0.00    +0.128 C 
ATOM     17  C   UNL     1      31.460  -8.328 -23.087  0.00  0.00    +0.017 C 
ATOM     18  C   UNL     1      31.367  -9.780 -18.346  0.00  0.00    +0.084 C 
ATOM     19  C   UNL     1      32.772  -6.321 -21.558  0.00  0.00    +0.086 C 
ATOM     20  C   UNL     1      31.990  -7.186 -23.695  0.00  0.00    -0.003 C 
ATOM     21  C   UNL     1      32.635  -6.199 -22.946  0.00  0.00    -0.019 C 
ENDBRANCH  11  12
ENDBRANCH   3  11
BRANCH   6  22
ATOM     22  C   UNL     1      34.915 -16.507 -21.229  0.00  0.00    +0.164 C 
BRANCH  22  23
ATOM     23  N   UNL     1      34.352 -17.751 -21.740  0.00  0.00    -0.326 N 
ATOM     24  H   UNL     1      34.069 -17.784 -22.683  0.00  0.00    +0.147 HD
BRANCH  23  25
ATOM     25  C   UNL     1      34.195 -18.882 -20.969  0.00  0.00    +0.045 C 
ATOM     26  C   UNL     1      32.913 -19.394 -20.675  0.00  0.00    +0.014 C 
ATOM     27  C   UNL     1      35.311 -19.568 -20.444  0.00  0.00    +0.014 C 
ATOM     28  C   UNL     1      32.754 -20.537 -19.893  0.00  0.00    +0.004 C 
ATOM     29  C   UNL     1      35.153 -20.711 -19.662  0.00  0.00    +0.004 C 
ATOM     30  C   UNL     1      33.875 -21.196 -19.386  0.00  0.00    +0.031 C 
BRANCH  30  33
ATOM     31  N   UNL     1      33.908 -22.355 -17.190  0.00  0.00    -0.343 N 
ATOM     32  N   UNL     1      33.368 -23.532 -19.135  0.00  0.00    -0.285 NA
ATOM     33  C   UNL     1      33.709 -22.388 -18.569  0.00  0.00    +0.117 C 
ATOM     34  H   UNL     1      33.790 -23.174 -16.656  0.00  0.00    +0.144 HD
ATOM     35  H   UNL     1      34.165 -21.513 -16.750  0.00  0.00    +0.144 HD
ATOM     36  H   UNL     1      33.255 -24.340 -18.584  0.00  0.00    +0.188 HD
ENDBRANCH  30  33
ENDBRANCH  23  25
ENDBRANCH  22  23
ENDBRANCH   6  22
TORSDOF 6
ENDMDL
MODEL 2
REMARK VINA RESULT:     -12.9      4.877      8.690
REMARK  Name = 445756
REMARK  6 active torsions:
REMARK  status: ('A' for Active; 'I' for Inactive)
REMARK    1  A    between atoms: C_3  and  C_11
REMARK    2  A    between atoms: C_6  and  C_22
REMARK    3  A    between atoms: C_11  and  N_12
REMARK    4  A    between atoms: C_22  and  N_23
REMARK    5  A    between atoms: N_23  and  C_25
REMARK    6  A    between atoms: C_30  and  C_33
REMARK                            x       y       z     vdW  Elec       q    Type
REMARK                         _______ _______ _______ _____ _____    ______ ____
ROOT
ATOM      1  N   UNL     1      32.543 -21.681 -18.118  0.00  0.00    -0.261 N 
ATOM      2  N   UNL     1      34.741 -22.003 -18.075  0.00  0.00    -0.392 NA
ATOM      3  C   UNL     1      34.656 -19.641 -20.970  0.00  0.00    -0.017 C 
ATOM      4  C   UNL     1      33.045 -20.917 -19.140  0.00  0.00    +0.079 C 
ATOM      5  C   UNL     1      34.419 -21.135 -19.092  0.00  0.00    +0.128 C 
ATOM      6  C   UNL     1      33.594 -22.311 -17.513  0.00  0.00    +0.183 C 
ATOM      7  C   UNL     1      35.248 -20.487 -20.023  0.00  0.00    +0.084 C 
ATOM      8  C   UNL     1      33.275 -19.442 -20.992  0.00  0.00    -0.005 C 
ATOM      9  C   UNL     1      32.434 -20.078 -20.073  0.00  0.00    +0.017 C 
ATOM     10  C   UNL     1      31.149 -21.796 -17.750  0.00  0.00    +0.120 C 
ENDROOT
BRANCH   3  11
ATOM     11  C   UNL     1      35.519 -18.941 -21.969  0.00  0.00    +0.120 C 
BRANCH  11  12
ATOM     12  N   UNL     1      34.722 -18.220 -22.965  0.00  0.00    -0.260 N 
ATOM     13  N   UNL     1      33.533 -17.856 -24.785  0.00  0.00    -0.394 NA
ATOM     14  C   UNL     1      34.391 -16.902 -22.901  0.00  0.00    +0.079 C 
ATOM     15  C   UNL     1      34.198 -18.755 -24.094  0.00  0.00    +0.164 C 
ATOM     16  C   UNL     1      33.643 -16.694 -24.056  0.00  0.00    +0.128 C 
ATOM     17  C   UNL     1      34.664 -15.897 -21.972  0.00  0.00    +0.017 C 
ATOM     18  C   UNL     1      34.375 -20.174 -24.464  0.00  0.00    +0.084 C 
ATOM     19  C   UNL     1      33.128 -15.413 -24.316  0.00  0.00    +0.086 C 
ATOM     20  C   UNL     1      34.144 -14.628 -22.248  0.00  0.00    -0.003 C 
ATOM     21  C   UNL     1      33.389 -14.388 -23.398  0.00  0.00    -0.019 C 
ENDBRANCH  11  12
ENDBRANCH   3  11
BRANCH   6  22
ATOM     22  C   UNL     1      33.408 -23.221 -16.364  0.00  0.00    +0.164 C 
BRANCH  22  23
ATOM     23  N   UNL     1      34.278 -22.963 -15.222  0.00  0.00    -0.326 N 
ATOM     24  H   UNL     1      33.973 -22.326 -14.536  0.00  0.00    +0.147 HD
BRANCH  23  25
ATOM     25  C   UNL     1      35.506 -23.566 -15.056  0.00  0.00    +0.045 C 
ATOM     26  C   UNL     1      35.609 -24.925 -14.688  0.00  0.00    +0.014 C 
ATOM     27  C   UNL     1      36.704 -22.846 -15.247  0.00  0.00    +0.014 C 
ATOM     28  C   UNL     1      36.851 -25.534 -14.518  0.00  0.00    +0.004 C 
ATOM     29  C   UNL     1      37.947 -23.455 -15.077  0.00  0.00    +0.004 C 
ATOM     30  C   UNL     1      38.021 -24.799 -14.712  0.00  0.00    +0.031 C 
BRANCH  30  33
ATOM     31  N   UNL     1      39.715 -25.935 -13.296  0.00  0.00    -0.343 N 
ATOM     32  N   UNL     1      40.144 -25.541 -15.559  0.00  0.00    -0.285 NA
ATOM     33  C   UNL     1      39.317 -25.434 -14.534  0.00  0.00    +0.117 C 
ATOM     34  H   UNL     1      40.597 -26.361 -13.198  0.00  0.00    +0.144 HD
ATOM     35  H   UNL     1      39.114 -25.863 -12.520  0.00  0.00    +0.144 HD
ATOM     36  H   UNL     1      41.022 -25.970 -15.441  0.00  0.00    +0.188 HD
ENDBRANCH  30  33
ENDBRANCH  23  25
ENDBRANCH  22  23
ENDBRANCH   6  22
TORSDOF 6
ENDMDL
MODEL 3
REMARK VINA RESULT:     -12.8      1.170      2.010
REMARK  Name = 445756
REMARK  6 active torsions:
REMARK  status: ('A' for Active; 'I' for Inactive)
REMARK    1  A    between atoms: C_3  and  C_11
REMARK    2  A    between atoms: C_6  and  C_22
REMARK    3  A    between atoms: C_11  and  N_12
REMARK    4  A    between atoms: C_22  and  N_23
REMARK    5  A    between atoms: N_23  and  C_25
REMARK    6  A    between atoms: C_30  and  C_33
REMARK                            x       y       z     vdW  Elec       q    Type
REMARK                         _______ _______ _______ _____ _____    ______ ____
ROOT
ATOM      1  N   UNL     1      33.741 -14.622 -21.475  0.00  0.00    -0.261 N 
ATOM      2  N   UNL     1      33.612 -13.704 -23.495  0.00  0.00    -0.392 NA
ATOM      3  C   UNL     1      31.451 -11.236 -21.704  0.00  0.00    -0.017 C 
ATOM      4  C   UNL     1      32.940 -13.520 -21.325  0.00  0.00    +0.079 C 
ATOM      5  C   UNL     1      32.874 -12.964 -22.601  0.00  0.00    +0.128 C 
ATOM      6  C   UNL     1      34.117 -14.690 -22.788  0.00  0.00    +0.183 C 
ATOM      7  C   UNL     1      32.117 -11.798 -22.801  0.00  0.00    +0.084 C 
ATOM      8  C   UNL     1      31.537 -11.816 -20.437  0.00  0.00    -0.005 C 
ATOM      9  C   UNL     1      32.287 -12.976 -20.218  0.00  0.00    +0.017 C 
ATOM     10  C   UNL     1      34.120 -15.545 -20.429  0.00  0.00    +0.120 C 
ENDROOT
BRANCH   3  11
ATOM     11  C   UNL     1      30.641  -9.995 -21.894  0.00  0.00    +0.120 C 
BRANCH  11  12
ATOM     12  N   UNL     1      31.364  -8.800 -21.447  0.00  0.00    -0.260 N 
ATOM     13  N   UNL     1      32.170  -7.267 -20.086  0.00  0.00    -0.394 NA
ATOM     14  C   UNL     1      32.051  -7.950 -22.257  0.00  0.00    +0.079 C 
ATOM     15  C   UNL     1      31.454  -8.366 -20.167  0.00  0.00    +0.164 C 
ATOM     16  C   UNL     1      32.550  -6.992 -21.379  0.00  0.00    +0.128 C 
ATOM     17  C   UNL     1      32.280  -7.924 -23.633  0.00  0.00    +0.017 C 
ATOM     18  C   UNL     1      30.815  -9.069 -19.036  0.00  0.00    +0.084 C 
ATOM     19  C   UNL     1      33.328  -5.938 -21.888  0.00  0.00    +0.086 C 
ATOM     20  C   UNL     1      33.055  -6.866 -24.121  0.00  0.00    -0.003 C 
ATOM     21  C   UNL     1      33.571  -5.890 -23.266  0.00  0.00    -0.019 C 
ENDBRANCH  11  12
ENDBRANCH   3  11
BRANCH   6  22
ATOM     22  C   UNL     1      34.989 -15.766 -23.301  0.00  0.00    +0.164 C 
BRANCH  22  23
ATOM     23  N   UNL     1      34.393 -17.097 -23.311  0.00  0.00    -0.326 N 
ATOM     24  H   UNL     1      33.801 -17.338 -24.061  0.00  0.00    +0.147 HD
BRANCH  23  25
ATOM     25  C   UNL     1      34.614 -18.032 -22.323  0.00  0.00    +0.045 C 
ATOM     26  C   UNL     1      35.875 -18.152 -21.701  0.00  0.00    +0.014 C 
ATOM     27  C   UNL     1      33.588 -18.904 -21.902  0.00  0.00    +0.014 C 
ATOM     28  C   UNL     1      36.099 -19.100 -20.703  0.00  0.00    +0.004 C 
ATOM     29  C   UNL     1      33.812 -19.851 -20.904  0.00  0.00    +0.004 C 
ATOM     30  C   UNL     1      35.067 -19.950 -20.305  0.00  0.00    +0.031 C 
BRANCH  30  33
ATOM     31  N   UNL     1      36.220 -20.713 -18.242  0.00  0.00    -0.343 N 
ATOM     32  N   UNL     1      34.637 -22.082 -19.281  0.00  0.00    -0.285 NA
ATOM     33  C   UNL     1      35.301 -20.939 -19.265  0.00  0.00    +0.117 C 
ATOM     34  H   UNL     1      36.363 -21.397 -17.548  0.00  0.00    +0.144 HD
ATOM     35  H   UNL     1      36.727 -19.869 -18.214  0.00  0.00    +0.144 HD
ATOM     36  H   UNL     1      34.794 -22.753 -18.578  0.00  0.00    +0.188 HD
ENDBRANCH  30  33
ENDBRANCH  23  25
ENDBRANCH  22  23
ENDBRANCH   6  22
TORSDOF 6
ENDMDL
MODEL 4
REMARK VINA RESULT:     -12.8      5.014     13.223
REMARK  Name = 445756
REMARK  6 active torsions:
REMARK  status: ('A' for Active; 'I' for Inactive)
REMARK    1  A    between atoms: C_3  and  C_11
REMARK    2  A    between atoms: C_6  and  C_22
REMARK    3  A    between atoms: C_11  and  N_12
REMARK    4  A    between atoms: C_22  and  N_23
REMARK    5  A    between atoms: N_23  and  C_25
REMARK    6  A    between atoms: C_30  and  C_33
REMARK                            x       y       z     vdW  Elec       q    Type
REMARK                         _______ _______ _______ _____ _____    ______ ____
ROOT
ATOM      1  N   UNL     1      34.217 -21.757 -18.591  0.00  0.00    -0.261 N 
ATOM      2  N   UNL     1      36.131 -20.695 -18.208  0.00  0.00    -0.392 NA
ATOM      3  C   UNL     1      35.734 -22.214 -14.816  0.00  0.00    -0.017 C 
ATOM      4  C   UNL     1      34.539 -22.042 -17.289  0.00  0.00    +0.079 C 
ATOM      5  C   UNL     1      35.738 -21.367 -17.074  0.00  0.00    +0.128 C 
ATOM      6  C   UNL     1      35.197 -20.950 -19.097  0.00  0.00    +0.183 C 
ATOM      7  C   UNL     1      36.354 -21.451 -15.814  0.00  0.00    +0.084 C 
ATOM      8  C   UNL     1      34.532 -22.880 -15.063  0.00  0.00    -0.005 C 
ATOM      9  C   UNL     1      33.904 -22.809 -16.310  0.00  0.00    +0.017 C 
ATOM     10  C   UNL     1      33.048 -22.229 -19.299  0.00  0.00    +0.120 C 
ENDROOT
BRANCH   3  11
ATOM     11  C   UNL     1      36.372 -22.318 -13.470  0.00  0.00    +0.120 C 
BRANCH  11  12
ATOM     12  N   UNL     1      36.870 -23.672 -13.207  0.00  0.00    -0.260 N 
ATOM     13  N   UNL     1      36.979 -25.698 -12.348  0.00  0.00    -0.394 NA
ATOM     14  C   UNL     1      37.981 -24.221 -13.766  0.00  0.00    +0.079 C 
ATOM     15  C   UNL     1      36.300 -24.573 -12.371  0.00  0.00    +0.164 C 
ATOM     16  C   UNL     1      38.031 -25.498 -13.211  0.00  0.00    +0.128 C 
ATOM     17  C   UNL     1      38.923 -23.744 -14.677  0.00  0.00    +0.017 C 
ATOM     18  C   UNL     1      35.071 -24.287 -11.603  0.00  0.00    +0.084 C 
ATOM     19  C   UNL     1      39.077 -26.362 -13.578  0.00  0.00    +0.086 C 
ATOM     20  C   UNL     1      39.957 -24.618 -15.029  0.00  0.00    -0.003 C 
ATOM     21  C   UNL     1      40.034 -25.905 -14.491  0.00  0.00    -0.019 C 
ENDBRANCH  11  12
ENDBRANCH   3  11
BRANCH   6  22
ATOM     22  C   UNL     1      35.164 -20.449 -20.486  0.00  0.00    +0.164 C 
BRANCH  22  23
ATOM     23  N   UNL     1      35.699 -19.106 -20.674  0.00  0.00    -0.326 N 
ATOM     24  H   UNL     1      36.500 -18.845 -20.162  0.00  0.00    +0.147 HD
BRANCH  23  25
ATOM     25  C   UNL     1      35.140 -18.183 -21.531  0.00  0.00    +0.045 C 
ATOM     26  C   UNL     1      35.020 -16.825 -21.164  0.00  0.00    +0.014 C 
ATOM     27  C   UNL     1      34.665 -18.564 -22.804  0.00  0.00    +0.014 C 
ATOM     28  C   UNL     1      34.451 -15.892 -22.031  0.00  0.00    +0.004 C 
ATOM     29  C   UNL     1      34.097 -17.630 -23.670  0.00  0.00    +0.004 C 
ATOM     30  C   UNL     1      33.989 -16.295 -23.284  0.00  0.00    +0.031 C 
BRANCH  30  33
ATOM     31  N   UNL     1      33.152 -14.011 -23.782  0.00  0.00    -0.343 N 
ATOM     32  N   UNL     1      33.072 -15.678 -25.418  0.00  0.00    -0.285 NA
ATOM     33  C   UNL     1      33.395 -15.322 -24.187  0.00  0.00    +0.117 C 
ATOM     34  H   UNL     1      32.749 -13.368 -24.410  0.00  0.00    +0.144 HD
ATOM     35  H   UNL     1      33.384 -13.727 -22.868  0.00  0.00    +0.144 HD
ATOM     36  H   UNL     1      32.669 -15.020 -26.031  0.00  0.00    +0.188 HD
ENDBRANCH  30  33
ENDBRANCH  23  25
ENDBRANCH  22  23
ENDBRANCH   6  22
TORSDOF 6
ENDMDL
MODEL 5
REMARK VINA RESULT:     -12.3      4.799     13.214
REMARK  Name = 445756
REMARK  6 active torsions:
REMARK  status: ('A' for Active; 'I' for Inactive)
REMARK    1  A    between atoms: C_3  and  C_11
REMARK    2  A    between atoms: C_6  and  C_22
REMARK    3  A    between atoms: C_11  and  N_12
REMARK    4  A    between atoms: C_22  and  N_23
REMARK    5  A    between atoms: N_23  and  C_25
REMARK    6  A    between atoms: C_30  and  C_33
REMARK                            x       y       z     vdW  Elec       q    Type
REMARK                         _______ _______ _______ _____ _____    ______ ____
ROOT
ATOM      1  N   UNL     1      33.994 -21.549 -18.511  0.00  0.00    -0.261 N 
ATOM      2  N   UNL     1      35.970 -20.605 -18.887  0.00  0.00    -0.392 NA
ATOM      3  C   UNL     1      36.876 -22.376 -15.723  0.00  0.00    -0.017 C 
ATOM      4  C   UNL     1      34.795 -21.952 -17.474  0.00  0.00    +0.079 C 
ATOM      5  C   UNL     1      36.024 -21.349 -17.732  0.00  0.00    +0.128 C 
ATOM      6  C   UNL     1      34.740 -20.746 -19.327  0.00  0.00    +0.183 C 
ATOM      7  C   UNL     1      37.091 -21.562 -16.843  0.00  0.00    +0.084 C 
ATOM      8  C   UNL     1      35.632 -22.967 -15.492  0.00  0.00    -0.005 C 
ATOM      9  C   UNL     1      34.559 -22.768 -16.366  0.00  0.00    +0.017 C 
ATOM     10  C   UNL     1      32.608 -21.911 -18.703  0.00  0.00    +0.120 C 
ENDROOT
BRANCH   3  11
ATOM     11  C   UNL     1      37.997 -22.616 -14.765  0.00  0.00    +0.120 C 
BRANCH  11  12
ATOM     12  N   UNL     1      37.720 -23.749 -13.877  0.00  0.00    -0.260 N 
ATOM     13  N   UNL     1      37.812 -25.787 -13.044  0.00  0.00    -0.394 NA
ATOM     14  C   UNL     1      36.883 -23.719 -12.805  0.00  0.00    +0.079 C 
ATOM     15  C   UNL     1      38.253 -24.989 -13.991  0.00  0.00    +0.164 C 
ATOM     16  C   UNL     1      36.956 -25.013 -12.295  0.00  0.00    +0.128 C 
ATOM     17  C   UNL     1      36.091 -22.717 -12.244  0.00  0.00    +0.017 C 
ATOM     18  C   UNL     1      39.208 -25.356 -15.057  0.00  0.00    +0.084 C 
ATOM     19  C   UNL     1      36.199 -25.343 -11.158  0.00  0.00    +0.086 C 
ATOM     20  C   UNL     1      35.344 -23.065 -11.114  0.00  0.00    -0.003 C 
ATOM     21  C   UNL     1      35.396 -24.354 -10.578  0.00  0.00    -0.019 C 
ENDBRANCH  11  12
ENDBRANCH   3  11
BRANCH   6  22
ATOM     22  C   UNL     1      34.182 -20.133 -20.550  0.00  0.00    +0.164 C 
BRANCH  22  23
ATOM     23  N   UNL     1      35.100 -19.271 -21.286  0.00  0.00    -0.326 N 
ATOM     24  H   UNL     1      36.063 -19.472 -21.248  0.00  0.00    +0.147 HD
BRANCH  23  25
ATOM     25  C   UNL     1      34.685 -18.187 -22.030  0.00  0.00    +0.045 C 
ATOM     26  C   UNL     1      34.089 -18.358 -23.298  0.00  0.00    +0.014 C 
ATOM     27  C   UNL     1      34.845 -16.870 -21.552  0.00  0.00    +0.014 C 
ATOM     28  C   UNL     1      33.672 -17.261 -24.052  0.00  0.00    +0.004 C 
ATOM     29  C   UNL     1      34.428 -15.773 -22.305  0.00  0.00    +0.004 C 
ATOM     30  C   UNL     1      33.842 -15.969 -23.556  0.00  0.00    +0.031 C 
BRANCH  30  33
ATOM     31  N   UNL     1      33.352 -13.546 -23.793  0.00  0.00    -0.343 N 
ATOM     32  N   UNL     1      33.054 -14.991 -25.605  0.00  0.00    -0.285 NA
ATOM     33  C   UNL     1      33.408 -14.825 -24.343  0.00  0.00    +0.117 C 
ATOM     34  H   UNL     1      33.055 -12.786 -24.344  0.00  0.00    +0.144 HD
ATOM     35  H   UNL     1      33.609 -13.402 -22.853  0.00  0.00    +0.144 HD
ATOM     36  H   UNL     1      32.760 -14.218 -26.139  0.00  0.00    +0.188 HD
ENDBRANCH  30  33
ENDBRANCH  23  25
ENDBRANCH  22  23
ENDBRANCH   6  22
TORSDOF 6
ENDMDL
MODEL 6
REMARK VINA RESULT:     -11.9      2.587     11.314
REMARK  Name = 445756
REMARK  6 active torsions:
REMARK  status: ('A' for Active; 'I' for Inactive)
REMARK    1  A    between atoms: C_3  and  C_11
REMARK    2  A    between atoms: C_6  and  C_22
REMARK    3  A    between atoms: C_11  and  N_12
REMARK    4  A    between atoms: C_22  and  N_23
REMARK    5  A    between atoms: N_23  and  C_25
REMARK    6  A    between atoms: C_30  and  C_33
REMARK                            x       y       z     vdW  Elec       q    Type
REMARK                         _______ _______ _______ _____ _____    ______ ____
ROOT
ATOM      1  N   UNL     1      35.424 -19.054 -20.763  0.00  0.00    -0.261 N 
ATOM      2  N   UNL     1      33.295 -19.512 -21.208  0.00  0.00    -0.392 NA
ATOM      3  C   UNL     1      33.837 -22.178 -18.646  0.00  0.00    -0.017 C 
ATOM      4  C   UNL     1      35.102 -20.115 -19.957  0.00  0.00    +0.079 C 
ATOM      5  C   UNL     1      33.768 -20.382 -20.254  0.00  0.00    +0.128 C 
ATOM      6  C   UNL     1      34.313 -18.730 -21.491  0.00  0.00    +0.183 C 
ATOM      7  C   UNL     1      33.115 -21.433 -19.588  0.00  0.00    +0.084 C 
ATOM      8  C   UNL     1      35.174 -21.886 -18.370  0.00  0.00    -0.005 C 
ATOM      9  C   UNL     1      35.840 -20.843 -19.022  0.00  0.00    +0.017 C 
ATOM     10  C   UNL     1      36.710 -18.397 -20.828  0.00  0.00    +0.120 C 
ENDROOT
BRANCH   3  11
ATOM     11  C   UNL     1      33.163 -23.300 -17.925  0.00  0.00    +0.120 C 
BRANCH  11  12
ATOM     12  N   UNL     1      32.837 -22.939 -16.542  0.00  0.00    -0.260 N 
ATOM     13  N   UNL     1      33.132 -22.483 -14.406  0.00  0.00    -0.394 NA
ATOM     14  C   UNL     1      31.589 -22.674 -16.073  0.00  0.00    +0.079 C 
ATOM     15  C   UNL     1      33.729 -22.818 -15.528  0.00  0.00    +0.164 C 
ATOM     16  C   UNL     1      31.797 -22.389 -14.726  0.00  0.00    +0.128 C 
ATOM     17  C   UNL     1      30.331 -22.654 -16.675  0.00  0.00    +0.017 C 
ATOM     18  C   UNL     1      35.178 -23.041 -15.706  0.00  0.00    +0.084 C 
ATOM     19  C   UNL     1      30.695 -22.063 -13.918  0.00  0.00    +0.086 C 
ATOM     20  C   UNL     1      29.246 -22.328 -15.855  0.00  0.00    -0.003 C 
ATOM     21  C   UNL     1      29.422 -22.037 -14.501  0.00  0.00    -0.019 C 
ENDBRANCH  11  12
ENDBRANCH   3  11
BRANCH   6  22
ATOM     22  C   UNL     1      34.310 -17.623 -22.469  0.00  0.00    +0.164 C 
BRANCH  22  23
ATOM     23  N   UNL     1      34.818 -16.351 -21.967  0.00  0.00    -0.326 N 
ATOM     24  H   UNL     1      35.720 -16.330 -21.572  0.00  0.00    +0.147 HD
BRANCH  23  25
ATOM     25  C   UNL     1      34.097 -15.177 -22.016  0.00  0.00    +0.045 C 
ATOM     26  C   UNL     1      33.717 -14.504 -20.836  0.00  0.00    +0.014 C 
ATOM     27  C   UNL     1      33.712 -14.609 -23.249  0.00  0.00    +0.014 C 
ATOM     28  C   UNL     1      32.985 -13.318 -20.886  0.00  0.00    +0.004 C 
ATOM     29  C   UNL     1      32.981 -13.423 -23.299  0.00  0.00    +0.004 C 
ATOM     30  C   UNL     1      32.617 -12.777 -22.118  0.00  0.00    +0.031 C 
BRANCH  30  33
ATOM     31  N   UNL     1      32.258 -10.472 -22.968  0.00  0.00    -0.343 N 
ATOM     32  N   UNL     1      30.754 -11.415 -21.448  0.00  0.00    -0.285 NA
ATOM     33  C   UNL     1      31.854 -11.541 -22.171  0.00  0.00    +0.117 C 
ATOM     34  H   UNL     1      31.725  -9.644 -22.989  0.00  0.00    +0.144 HD
ATOM     35  H   UNL     1      33.076 -10.545 -23.512  0.00  0.00    +0.144 HD
ATOM     36  H   UNL     1      30.235 -10.578 -21.482  0.00  0.00    +0.188 HD
ENDBRANCH  30  33
ENDBRANCH  23  25
ENDBRANCH  22  23
ENDBRANCH   6  22
TORSDOF 6
ENDMDL
MODEL 7
REMARK VINA RESULT:     -11.9      2.648     11.692
REMARK  Name = 445756
REMARK  6 active torsions:
REMARK  status: ('A' for Active; 'I' for Inactive)
REMARK    1  A    between atoms: C_3  and  C_11
REMARK    2  A    between atoms: C_6  and  C_22
REMARK    3  A    between atoms: C_11  and  N_12
REMARK    4  A    between atoms: C_22  and  N_23
REMARK    5  A    between atoms: N_23  and  C_25
REMARK    6  A    between atoms: C_30  and  C_33
REMARK                            x       y       z     vdW  Elec       q    Type
REMARK                         _______ _______ _______ _____ _____    ______ ____
ROOT
ATOM      1  N   UNL     1      35.379 -19.208 -20.598  0.00  0.00    -0.261 N 
ATOM      2  N   UNL     1      33.249 -19.598 -21.097  0.00  0.00    -0.392 NA
ATOM      3  C   UNL     1      33.632 -22.259 -18.500  0.00  0.00    -0.017 C 
ATOM      4  C   UNL     1      35.000 -20.251 -19.793  0.00  0.00    +0.079 C 
ATOM      5  C   UNL     1      33.666 -20.476 -20.123  0.00  0.00    +0.128 C 
ATOM      6  C   UNL     1      34.299 -18.853 -21.359  0.00  0.00    +0.183 C 
ATOM      7  C   UNL     1      32.961 -21.499 -19.467  0.00  0.00    +0.084 C 
ATOM      8  C   UNL     1      34.970 -22.008 -18.190  0.00  0.00    -0.005 C 
ATOM      9  C   UNL     1      35.687 -20.994 -18.832  0.00  0.00    +0.017 C 
ATOM     10  C   UNL     1      36.687 -18.594 -20.633  0.00  0.00    +0.120 C 
ENDROOT
BRANCH   3  11
ATOM     11  C   UNL     1      32.901 -23.351 -17.790  0.00  0.00    +0.120 C 
BRANCH  11  12
ATOM     12  N   UNL     1      32.799 -23.090 -16.350  0.00  0.00    -0.260 N 
ATOM     13  N   UNL     1      31.937 -22.444 -14.428  0.00  0.00    -0.394 NA
ATOM     14  C   UNL     1      33.771 -23.349 -15.435  0.00  0.00    +0.079 C 
ATOM     15  C   UNL     1      31.726 -22.553 -15.721  0.00  0.00    +0.164 C 
ATOM     16  C   UNL     1      33.207 -22.935 -14.231  0.00  0.00    +0.128 C 
ATOM     17  C   UNL     1      35.053 -23.890 -15.536  0.00  0.00    +0.017 C 
ATOM     18  C   UNL     1      30.494 -22.158 -16.434  0.00  0.00    +0.084 C 
ATOM     19  C   UNL     1      33.953 -23.062 -13.047  0.00  0.00    +0.086 C 
ATOM     20  C   UNL     1      35.781 -24.007 -14.347  0.00  0.00    -0.003 C 
ATOM     21  C   UNL     1      35.243 -23.602 -13.124  0.00  0.00    -0.019 C 
ENDBRANCH  11  12
ENDBRANCH   3  11
BRANCH   6  22
ATOM     22  C   UNL     1      34.359 -17.755 -22.344  0.00  0.00    +0.164 C 
BRANCH  22  23
ATOM     23  N   UNL     1      34.857 -16.485 -21.829  0.00  0.00    -0.326 N 
ATOM     24  H   UNL     1      35.735 -16.473 -21.383  0.00  0.00    +0.147 HD
BRANCH  23  25
ATOM     25  C   UNL     1      34.158 -15.302 -21.932  0.00  0.00    +0.045 C 
ATOM     26  C   UNL     1      33.739 -14.598 -20.783  0.00  0.00    +0.014 C 
ATOM     27  C   UNL     1      33.835 -14.754 -23.192  0.00  0.00    +0.014 C 
ATOM     28  C   UNL     1      33.030 -13.402 -20.888  0.00  0.00    +0.004 C 
ATOM     29  C   UNL     1      33.126 -13.557 -23.297  0.00  0.00    +0.004 C 
ATOM     30  C   UNL     1      32.723 -12.882 -22.146  0.00  0.00    +0.031 C 
BRANCH  30  33
ATOM     31  N   UNL     1      32.419 -10.603 -23.084  0.00  0.00    -0.343 N 
ATOM     32  N   UNL     1      30.874 -11.464 -21.557  0.00  0.00    -0.285 NA
ATOM     33  C   UNL     1      31.982 -11.635 -22.256  0.00  0.00    +0.117 C 
ATOM     34  H   UNL     1      31.901  -9.767 -23.144  0.00  0.00    +0.144 HD
ATOM     35  H   UNL     1      33.244 -10.710 -23.611  0.00  0.00    +0.144 HD
ATOM     36  H   UNL     1      30.371 -10.621 -21.630  0.00  0.00    +0.188 HD
ENDBRANCH  30  33
ENDBRANCH  23  25
ENDBRANCH  22  23
ENDBRANCH   6  22
TORSDOF 6
ENDMDL
MODEL 8
REMARK VINA RESULT:     -11.8      4.820      8.857
REMARK  Name = 445756
REMARK  6 active torsions:
REMARK  status: ('A' for Active; 'I' for Inactive)
REMARK    1  A    between atoms: C_3  and  C_11
REMARK    2  A    between atoms: C_6  and  C_22
REMARK    3  A    between atoms: C_11  and  N_12
REMARK    4  A    between atoms: C_22  and  N_23
REMARK    5  A    between atoms: N_23  and  C_25
REMARK    6  A    between atoms: C_30  and  C_33
REMARK                            x       y       z     vdW  Elec       q    Type
REMARK                         _______ _______ _______ _____ _____    ______ ____
ROOT
ATOM      1  N   UNL     1      32.652 -21.657 -18.219  0.00  0.00    -0.261 N 
ATOM      2  N   UNL     1      34.856 -21.945 -18.215  0.00  0.00    -0.392 NA
ATOM      3  C   UNL     1      34.694 -19.496 -21.034  0.00  0.00    -0.017 C 
ATOM      4  C   UNL     1      33.128 -20.854 -19.223  0.00  0.00    +0.079 C 
ATOM      5  C   UNL     1      34.506 -21.051 -19.200  0.00  0.00    +0.128 C 
ATOM      6  C   UNL     1      33.721 -22.289 -17.647  0.00  0.00    +0.183 C 
ATOM      7  C   UNL     1      35.312 -20.361 -20.121  0.00  0.00    +0.084 C 
ATOM      8  C   UNL     1      33.309 -19.318 -21.031  0.00  0.00    -0.005 C 
ATOM      9  C   UNL     1      32.491 -19.996 -20.121  0.00  0.00    +0.017 C 
ATOM     10  C   UNL     1      31.266 -21.807 -17.836  0.00  0.00    +0.120 C 
ENDROOT
BRANCH   3  11
ATOM     11  C   UNL     1      35.532 -18.752 -22.021  0.00  0.00    +0.120 C 
BRANCH  11  12
ATOM     12  N   UNL     1      34.711 -18.071 -23.027  0.00  0.00    -0.260 N 
ATOM     13  N   UNL     1      33.494 -17.778 -24.841  0.00  0.00    -0.394 NA
ATOM     14  C   UNL     1      34.359 -16.758 -22.995  0.00  0.00    +0.079 C 
ATOM     15  C   UNL     1      34.183 -18.647 -24.134  0.00  0.00    +0.164 C 
ATOM     16  C   UNL     1      33.593 -16.594 -24.146  0.00  0.00    +0.128 C 
ATOM     17  C   UNL     1      34.626 -15.723 -22.098  0.00  0.00    +0.017 C 
ATOM     18  C   UNL     1      34.378 -20.072 -24.467  0.00  0.00    +0.084 C 
ATOM     19  C   UNL     1      33.054 -15.329 -24.435  0.00  0.00    +0.086 C 
ATOM     20  C   UNL     1      34.081 -14.471 -22.402  0.00  0.00    -0.003 C 
ATOM     21  C   UNL     1      33.309 -14.276 -23.549  0.00  0.00    -0.019 C 
ENDBRANCH  11  12
ENDBRANCH   3  11
BRANCH   6  22
ATOM     22  C   UNL     1      33.566 -23.237 -16.525  0.00  0.00    +0.164 C 
BRANCH  22  23
ATOM     23  N   UNL     1      34.811 -23.654 -15.889  0.00  0.00    -0.326 N 
ATOM     24  H   UNL     1      35.558 -23.938 -16.465  0.00  0.00    +0.147 HD
BRANCH  23  25
ATOM     25  C   UNL     1      34.991 -23.674 -14.523  0.00  0.00    +0.045 C 
ATOM     26  C   UNL     1      36.281 -23.593 -13.956  0.00  0.00    +0.014 C 
ATOM     27  C   UNL     1      33.893 -23.778 -13.644  0.00  0.00    +0.014 C 
ATOM     28  C   UNL     1      36.464 -23.615 -12.574  0.00  0.00    +0.004 C 
ATOM     29  C   UNL     1      34.076 -23.800 -12.261  0.00  0.00    +0.004 C 
ATOM     30  C   UNL     1      35.361 -23.719 -11.727  0.00  0.00    +0.031 C 
BRANCH  30  33
ATOM     31  N   UNL     1      36.287 -22.755  -9.634  0.00  0.00    -0.343 N 
ATOM     32  N   UNL     1      35.024 -24.719  -9.567  0.00  0.00    -0.285 NA
ATOM     33  C   UNL     1      35.552 -23.743 -10.285  0.00  0.00    +0.117 C 
ATOM     34  H   UNL     1      36.404 -22.790  -8.657  0.00  0.00    +0.144 HD
ATOM     35  H   UNL     1      36.690 -22.020 -10.151  0.00  0.00    +0.144 HD
ATOM     36  H   UNL     1      35.152 -24.738  -8.591  0.00  0.00    +0.188 HD
ENDBRANCH  30  33
ENDBRANCH  23  25
ENDBRANCH  22  23
ENDBRANCH   6  22
TORSDOF 6
ENDMDL
MODEL 9
REMARK VINA RESULT:     -11.7      4.919     12.796
REMARK  Name = 445756
REMARK  6 active torsions:
REMARK  status: ('A' for Active; 'I' for Inactive)
REMARK    1  A    between atoms: C_3  and  C_11
REMARK    2  A    between atoms: C_6  and  C_22
REMARK    3  A    between atoms: C_11  and  N_12
REMARK    4  A    between atoms: C_22  and  N_23
REMARK    5  A    between atoms: N_23  and  C_25
REMARK    6  A    between atoms: C_30  and  C_33
REMARK                            x       y       z     vdW  Elec       q    Type
REMARK                         _______ _______ _______ _____ _____    ______ ____
ROOT
ATOM      1  N   UNL     1      33.716 -21.122 -19.168  0.00  0.00    -0.261 N 
ATOM      2  N   UNL     1      35.737 -21.431 -18.295  0.00  0.00    -0.392 NA
ATOM      3  C   UNL     1      33.797 -23.270 -15.683  0.00  0.00    -0.017 C 
ATOM      4  C   UNL     1      33.514 -21.853 -18.025  0.00  0.00    +0.079 C 
ATOM      5  C   UNL     1      34.790 -22.033 -17.499  0.00  0.00    +0.128 C 
ATOM      6  C   UNL     1      35.059 -20.895 -19.286  0.00  0.00    +0.183 C 
ATOM      7  C   UNL     1      34.943 -22.756 -16.304  0.00  0.00    +0.084 C 
ATOM      8  C   UNL     1      32.530 -23.074 -16.236  0.00  0.00    -0.005 C 
ATOM      9  C   UNL     1      32.359 -22.357 -17.425  0.00  0.00    +0.017 C 
ATOM     10  C   UNL     1      32.690 -20.674 -20.082  0.00  0.00    +0.120 C 
ENDROOT
BRANCH   3  11
ATOM     11  C   UNL     1      33.936 -24.043 -14.413  0.00  0.00    +0.120 C 
BRANCH  11  12
ATOM     12  N   UNL     1      35.329 -24.418 -14.154  0.00  0.00    -0.260 N 
ATOM     13  N   UNL     1      37.234 -25.513 -14.318  0.00  0.00    -0.394 NA
ATOM     14  C   UNL     1      36.153 -23.807 -13.262  0.00  0.00    +0.079 C 
ATOM     15  C   UNL     1      36.000 -25.425 -14.763  0.00  0.00    +0.164 C 
ATOM     16  C   UNL     1      37.348 -24.512 -13.381  0.00  0.00    +0.128 C 
ATOM     17  C   UNL     1      35.980 -22.736 -12.385  0.00  0.00    +0.017 C 
ATOM     18  C   UNL     1      35.387 -26.290 -15.792  0.00  0.00    +0.084 C 
ATOM     19  C   UNL     1      38.445 -24.139 -12.586  0.00  0.00    +0.086 C 
ATOM     20  C   UNL     1      37.082 -22.380 -11.600  0.00  0.00    -0.003 C 
ATOM     21  C   UNL     1      38.293 -23.068 -11.698  0.00  0.00    -0.019 C 
ENDBRANCH  11  12
ENDBRANCH   3  11
BRANCH   6  22
ATOM     22  C   UNL     1      35.630 -20.130 -20.413  0.00  0.00    +0.164 C 
BRANCH  22  23
ATOM     23  N   UNL     1      35.587 -18.680 -20.264  0.00  0.00    -0.326 N 
ATOM     24  H   UNL     1      35.948 -18.283 -19.437  0.00  0.00    +0.147 HD
BRANCH  23  25
ATOM     25  C   UNL     1      35.064 -17.837 -21.221  0.00  0.00    +0.045 C 
ATOM     26  C   UNL     1      34.807 -16.479 -20.936  0.00  0.00    +0.014 C 
ATOM     27  C   UNL     1      34.765 -18.304 -22.518  0.00  0.00    +0.014 C 
ATOM     28  C   UNL     1      34.276 -15.627 -21.905  0.00  0.00    +0.004 C 
ATOM     29  C   UNL     1      34.234 -17.453 -23.486  0.00  0.00    +0.004 C 
ATOM     30  C   UNL     1      33.989 -16.115 -23.180  0.00  0.00    +0.031 C 
BRANCH  30  33
ATOM     31  N   UNL     1      32.827 -14.022 -23.840  0.00  0.00    -0.343 N 
ATOM     32  N   UNL     1      33.497 -15.561 -25.466  0.00  0.00    -0.285 NA
ATOM     33  C   UNL     1      33.434 -15.227 -24.189  0.00  0.00    +0.117 C 
ATOM     34  H   UNL     1      32.458 -13.436 -24.541  0.00  0.00    +0.144 HD
ATOM     35  H   UNL     1      32.768 -13.756 -22.894  0.00  0.00    +0.144 HD
ATOM     36  H   UNL     1      33.122 -14.961 -26.151  0.00  0.00    +0.188 HD
ENDBRANCH  30  33
ENDBRANCH  23  25
ENDBRANCH  22  23
ENDBRANCH   6  22
TORSDOF 6
ENDMDL
