MODEL 1
REMARK VINA RESULT:     -12.2      0.000      0.000
REMARK  Name = 24764434
REMARK  8 active torsions:
REMARK  status: ('A' for Active; 'I' for Inactive)
REMARK    1  A    between atoms: C_1  and  N_4
REMARK    2  A    between atoms: C_1  and  C_17
REMARK    3  A    between atoms: C_1  and  C_28
REMARK    4  A    between atoms: C_11  and  C_14
REMARK    5  A    between atoms: C_14  and  O_15
REMARK    6  A    between atoms: C_17  and  C_18
REMARK    7  A    between atoms: C_28  and  C_30
REMARK    8  A    between atoms: C_30  and  O_31
REMARK                            x       y       z     vdW  Elec       q    Type
REMARK                         _______ _______ _______ _____ _____    ______ ____
ROOT
ATOM      1  C   UNL     1      33.884 -23.051 -16.081  0.00  0.00    +0.098 C 
ENDROOT
BRANCH   1   4
ATOM      2  O   UNL     1      36.319 -21.657 -17.092  0.00  0.00    -0.269 OA
ATOM      3  O   UNL     1      31.850 -22.300 -18.129  0.00  0.00    -0.269 OA
ATOM      4  N   UNL     1      34.037 -22.217 -17.256  0.00  0.00    -0.224 N 
ATOM      5  C   UNL     1      35.224 -21.618 -17.621  0.00  0.00    +0.255 C 
ATOM      6  C   UNL     1      33.011 -21.935 -18.134  0.00  0.00    +0.255 C 
ATOM      7  C   UNL     1      34.930 -20.872 -18.844  0.00  0.00    +0.059 C 
ATOM      8  C   UNL     1      33.593 -21.064 -19.155  0.00  0.00    +0.058 C 
ATOM      9  C   UNL     1      35.757 -20.091 -19.626  0.00  0.00    +0.011 C 
ATOM     10  C   UNL     1      33.010 -20.486 -20.264  0.00  0.00    +0.005 C 
ATOM     11  C   UNL     1      35.188 -19.495 -20.756  0.00  0.00    +0.076 C 
ATOM     12  C   UNL     1      33.828 -19.690 -21.071  0.00  0.00    +0.007 C 
BRANCH  11  14
ATOM     13  O   UNL     1      35.740 -18.354 -22.785  0.00  0.00    -0.245 OA
ATOM     14  C   UNL     1      36.010 -18.661 -21.619  0.00  0.00    +0.338 C 
BRANCH  14  15
ATOM     15  O   UNL     1      37.145 -18.233 -21.001  0.00  0.00    -0.477 OA
ATOM     16  H   UNL     1      37.181 -17.374 -20.631  0.00  0.00    +0.295 HD
ENDBRANCH  14  15
ENDBRANCH  11  14
ENDBRANCH   1   4
BRANCH   1  17
ATOM     17  C   UNL     1      32.940 -22.391 -15.052  0.00  0.00    +0.047 C 
BRANCH  17  18
ATOM     18  C   UNL     1      31.844 -23.276 -14.506  0.00  0.00    -0.020 C 
ATOM     19  C   UNL     1      30.529 -23.218 -14.994  0.00  0.00    -0.004 C 
ATOM     20  C   UNL     1      32.188 -24.166 -13.488  0.00  0.00    -0.004 C 
ATOM     21  C   UNL     1      29.547 -24.074 -14.440  0.00  0.00    -0.000 C 
ATOM     22  C   UNL     1      30.166 -22.328 -16.018  0.00  0.00    -0.000 C 
ATOM     23  C   UNL     1      31.223 -25.008 -12.943  0.00  0.00    -0.000 C 
ATOM     24  C   UNL     1      29.910 -24.963 -13.415  0.00  0.00    -0.000 C 
ATOM     25  C   UNL     1      28.232 -24.016 -14.927  0.00  0.00    -0.000 C 
ATOM     26  C   UNL     1      28.854 -22.284 -16.490  0.00  0.00    -0.000 C 
ATOM     27  C   UNL     1      27.888 -23.127 -15.946  0.00  0.00    -0.000 C 
ENDBRANCH  17  18
ENDBRANCH   1  17
BRANCH   1  28
ATOM     28  C   UNL     1      35.263 -23.439 -15.529  0.00  0.00    +0.130 C 
BRANCH  28  30
ATOM     29  O   UNL     1      35.331 -25.870 -15.627  0.00  0.00    -0.250 OA
ATOM     30  C   UNL     1      35.311 -24.842 -14.965  0.00  0.00    +0.316 C 
BRANCH  30  31
ATOM     31  O   UNL     1      35.369 -24.836 -13.607  0.00  0.00    -0.480 OA
ATOM     32  H   UNL     1      34.916 -25.492 -13.116  0.00  0.00    +0.295 HD
ENDBRANCH  30  31
ENDBRANCH  28  30
ENDBRANCH   1  28
TORSDOF 8
ENDMDL
MODEL 2
REMARK VINA RESULT:     -12.0      3.503      7.219
REMARK  Name = 24764434
REMARK  8 active torsions:
REMARK  status: ('A' for Active; 'I' for Inactive)
REMARK    1  A    between atoms: C_1  and  N_4
REMARK    2  A    between atoms: C_1  and  C_17
REMARK    3  A    between atoms: C_1  and  C_28
REMARK    4  A    between atoms: C_11  and  C_14
REMARK    5  A    between atoms: C_14  and  O_15
REMARK    6  A    between atoms: C_17  and  C_18
REMARK    7  A    between atoms: C_28  and  C_30
REMARK    8  A    between atoms: C_30  and  O_31
REMARK                            x       y       z     vdW  Elec       q    Type
REMARK                         _______ _______ _______ _____ _____    ______ ____
ROOT
ATOM      1  C   UNL     1      32.908 -24.226 -14.197  0.00  0.00    +0.098 C 
ENDROOT
BRANCH   1   4
ATOM      2  O   UNL     1      34.946 -25.616 -15.873  0.00  0.00    -0.269 OA
ATOM      3  O   UNL     1      34.539 -23.326 -11.867  0.00  0.00    -0.269 OA
ATOM      4  N   UNL     1      34.321 -24.422 -13.941  0.00  0.00    -0.224 N 
ATOM      5  C   UNL     1      35.169 -25.092 -14.798  0.00  0.00    +0.255 C 
ATOM      6  C   UNL     1      34.966 -23.959 -12.814  0.00  0.00    +0.255 C 
ATOM      7  C   UNL     1      36.482 -25.064 -14.155  0.00  0.00    +0.059 C 
ATOM      8  C   UNL     1      36.360 -24.379 -12.956  0.00  0.00    +0.058 C 
ATOM      9  C   UNL     1      37.687 -25.590 -14.577  0.00  0.00    +0.011 C 
ATOM     10  C   UNL     1      37.436 -24.182 -12.115  0.00  0.00    +0.005 C 
ATOM     11  C   UNL     1      38.791 -25.403 -13.741  0.00  0.00    +0.076 C 
ATOM     12  C   UNL     1      38.667 -24.706 -12.521  0.00  0.00    +0.007 C 
BRANCH  11  14
ATOM     13  O   UNL     1      40.889 -26.495 -13.378  0.00  0.00    -0.245 OA
ATOM     14  C   UNL     1      40.088 -25.933 -14.132  0.00  0.00    +0.338 C 
BRANCH  14  15
ATOM     15  O   UNL     1      40.346 -25.749 -15.456  0.00  0.00    -0.477 OA
ATOM     16  H   UNL     1      39.894 -25.083 -15.933  0.00  0.00    +0.295 HD
ENDBRANCH  14  15
ENDBRANCH  11  14
ENDBRANCH   1   4
BRANCH   1  17
ATOM     17  C   UNL     1      32.629 -22.792 -14.696  0.00  0.00    +0.047 C 
BRANCH  17  18
ATOM     18  C   UNL     1      33.118 -22.477 -16.090  0.00  0.00    -0.020 C 
ATOM     19  C   UNL     1      34.423 -22.019 -16.336  0.00  0.00    -0.004 C 
ATOM     20  C   UNL     1      32.217 -22.658 -17.140  0.00  0.00    -0.004 C 
ATOM     21  C   UNL     1      34.820 -21.740 -17.665  0.00  0.00    -0.000 C 
ATOM     22  C   UNL     1      35.342 -21.830 -15.290  0.00  0.00    -0.000 C 
ATOM     23  C   UNL     1      32.608 -22.385 -18.448  0.00  0.00    -0.000 C 
ATOM     24  C   UNL     1      33.900 -21.929 -18.711  0.00  0.00    -0.000 C 
ATOM     25  C   UNL     1      36.124 -21.283 -17.911  0.00  0.00    -0.000 C 
ATOM     26  C   UNL     1      36.634 -21.375 -15.553  0.00  0.00    -0.000 C 
ATOM     27  C   UNL     1      37.024 -21.101 -16.861  0.00  0.00    -0.000 C 
ENDBRANCH  17  18
ENDBRANCH   1  17
BRANCH   1  28
ATOM     28  C   UNL     1      32.087 -24.648 -12.969  0.00  0.00    +0.130 C 
BRANCH  28  30
ATOM     29  O   UNL     1      30.093 -25.114 -14.284  0.00  0.00    -0.250 OA
ATOM     30  C   UNL     1      30.601 -24.730 -13.240  0.00  0.00    +0.316 C 
BRANCH  30  31
ATOM     31  O   UNL     1      29.872 -24.358 -12.156  0.00  0.00    -0.480 OA
ATOM     32  H   UNL     1      29.523 -23.490 -12.102  0.00  0.00    +0.295 HD
ENDBRANCH  30  31
ENDBRANCH  28  30
ENDBRANCH   1  28
TORSDOF 8
ENDMDL
MODEL 3
REMARK VINA RESULT:     -11.6      3.813      9.381
REMARK  Name = 24764434
REMARK  8 active torsions:
REMARK  status: ('A' for Active; 'I' for Inactive)
REMARK    1  A    between atoms: C_1  and  N_4
REMARK    2  A    between atoms: C_1  and  C_17
REMARK    3  A    between atoms: C_1  and  C_28
REMARK    4  A    between atoms: C_11  and  C_14
REMARK    5  A    between atoms: C_14  and  O_15
REMARK    6  A    between atoms: C_17  and  C_18
REMARK    7  A    between atoms: C_28  and  C_30
REMARK    8  A    between atoms: C_30  and  O_31
REMARK                            x       y       z     vdW  Elec       q    Type
REMARK                         _______ _______ _______ _____ _____    ______ ____
ROOT
ATOM      1  C   UNL     1      34.650 -18.161 -22.213  0.00  0.00    +0.098 C 
ENDROOT
BRANCH   1   4
ATOM      2  O   UNL     1      36.943 -18.687 -20.381  0.00  0.00    -0.269 OA
ATOM      3  O   UNL     1      32.545 -19.954 -21.094  0.00  0.00    -0.269 OA
ATOM      4  N   UNL     1      34.725 -19.062 -21.080  0.00  0.00    -0.224 N 
ATOM      5  C   UNL     1      35.854 -19.222 -20.304  0.00  0.00    +0.255 C 
ATOM      6  C   UNL     1      33.676 -19.851 -20.658  0.00  0.00    +0.255 C 
ATOM      7  C   UNL     1      35.499 -20.218 -19.293  0.00  0.00    +0.059 C 
ATOM      8  C   UNL     1      34.182 -20.597 -19.507  0.00  0.00    +0.058 C 
ATOM      9  C   UNL     1      36.256 -20.750 -18.270  0.00  0.00    +0.011 C 
ATOM     10  C   UNL     1      33.552 -21.529 -18.707  0.00  0.00    +0.005 C 
ATOM     11  C   UNL     1      35.638 -21.697 -17.447  0.00  0.00    +0.076 C 
ATOM     12  C   UNL     1      34.300 -22.083 -17.664  0.00  0.00    +0.007 C 
BRANCH  11  14
ATOM     13  O   UNL     1      37.528 -21.973 -16.006  0.00  0.00    -0.245 OA
ATOM     14  C   UNL     1      36.385 -22.293 -16.350  0.00  0.00    +0.338 C 
BRANCH  14  15
ATOM     15  O   UNL     1      35.684 -23.270 -15.714  0.00  0.00    -0.477 OA
ATOM     16  H   UNL     1      34.834 -23.087 -15.366  0.00  0.00    +0.295 HD
ENDBRANCH  14  15
ENDBRANCH  11  14
ENDBRANCH   1   4
BRANCH   1  17
ATOM     17  C   UNL     1      34.946 -16.707 -21.786  0.00  0.00    +0.047 C 
BRANCH  17  18
ATOM     18  C   UNL     1      34.279 -15.632 -22.612  0.00  0.00    -0.020 C 
ATOM     19  C   UNL     1      33.525 -14.604 -22.025  0.00  0.00    -0.004 C 
ATOM     20  C   UNL     1      34.440 -15.697 -23.996  0.00  0.00    -0.004 C 
ATOM     21  C   UNL     1      32.924 -13.626 -22.853  0.00  0.00    -0.000 C 
ATOM     22  C   UNL     1      33.353 -14.524 -20.633  0.00  0.00    -0.000 C 
ATOM     23  C   UNL     1      33.850 -14.735 -24.812  0.00  0.00    -0.000 C 
ATOM     24  C   UNL     1      33.096 -13.706 -24.245  0.00  0.00    -0.000 C 
ATOM     25  C   UNL     1      32.171 -12.598 -22.267  0.00  0.00    -0.000 C 
ATOM     26  C   UNL     1      32.600 -13.495 -20.067  0.00  0.00    -0.000 C 
ATOM     27  C   UNL     1      32.010 -12.533 -20.882  0.00  0.00    -0.000 C 
ENDBRANCH  17  18
ENDBRANCH   1  17
BRANCH   1  28
ATOM     28  C   UNL     1      33.316 -18.353 -22.950  0.00  0.00    +0.130 C 
BRANCH  28  30
ATOM     29  O   UNL     1      34.250 -19.849 -24.628  0.00  0.00    -0.250 OA
ATOM     30  C   UNL     1      33.474 -18.952 -24.330  0.00  0.00    +0.316 C 
BRANCH  30  31
ATOM     31  O   UNL     1      32.609 -18.397 -25.220  0.00  0.00    -0.480 OA
ATOM     32  H   UNL     1      31.686 -18.468 -25.081  0.00  0.00    +0.295 HD
ENDBRANCH  30  31
ENDBRANCH  28  30
ENDBRANCH   1  28
TORSDOF 8
ENDMDL
MODEL 4
REMARK VINA RESULT:     -11.6      3.207      7.188
REMARK  Name = 24764434
REMARK  8 active torsions:
REMARK  status: ('A' for Active; 'I' for Inactive)
REMARK    1  A    between atoms: C_1  and  N_4
REMARK    2  A    between atoms: C_1  and  C_17
REMARK    3  A    between atoms: C_1  and  C_28
REMARK    4  A    between atoms: C_11  and  C_14
REMARK    5  A    between atoms: C_14  and  O_15
REMARK    6  A    between atoms: C_17  and  C_18
REMARK    7  A    between atoms: C_28  and  C_30
REMARK    8  A    between atoms: C_30  and  O_31
REMARK                            x       y       z     vdW  Elec       q    Type
REMARK                         _______ _______ _______ _____ _____    ______ ____
ROOT
ATOM      1  C   UNL     1      34.108 -23.432 -15.137  0.00  0.00    +0.098 C 
ENDROOT
BRANCH   1   4
ATOM      2  O   UNL     1      32.389 -23.026 -17.540  0.00  0.00    -0.269 OA
ATOM      3  O   UNL     1      32.142 -23.126 -12.915  0.00  0.00    -0.269 OA
ATOM      4  N   UNL     1      32.689 -23.149 -15.207  0.00  0.00    -0.224 N 
ATOM      5  C   UNL     1      32.000 -22.976 -16.389  0.00  0.00    +0.255 C 
ATOM      6  C   UNL     1      31.878 -23.024 -14.099  0.00  0.00    +0.255 C 
ATOM      7  C   UNL     1      30.616 -22.705 -16.002  0.00  0.00    +0.059 C 
ATOM      8  C   UNL     1      30.542 -22.734 -14.618  0.00  0.00    +0.058 C 
ATOM      9  C   UNL     1      29.509 -22.453 -16.788  0.00  0.00    +0.011 C 
ATOM     10  C   UNL     1      29.357 -22.515 -13.945  0.00  0.00    +0.005 C 
ATOM     11  C   UNL     1      28.297 -22.228 -16.127  0.00  0.00    +0.076 C 
ATOM     12  C   UNL     1      28.223 -22.258 -14.720  0.00  0.00    +0.007 C 
BRANCH  11  14
ATOM     13  O   UNL     1      26.468 -20.894 -16.903  0.00  0.00    -0.245 OA
ATOM     14  C   UNL     1      27.096 -21.959 -16.902  0.00  0.00    +0.338 C 
BRANCH  14  15
ATOM     15  O   UNL     1      26.713 -23.026 -17.655  0.00  0.00    -0.477 OA
ATOM     16  H   UNL     1      26.648 -23.875 -17.266  0.00  0.00    +0.295 HD
ENDBRANCH  14  15
ENDBRANCH  11  14
ENDBRANCH   1   4
BRANCH   1  17
ATOM     17  C   UNL     1      34.428 -24.377 -13.959  0.00  0.00    +0.047 C 
BRANCH  17  18
ATOM     18  C   UNL     1      35.669 -24.040 -13.166  0.00  0.00    -0.020 C 
ATOM     19  C   UNL     1      36.933 -24.545 -13.511  0.00  0.00    -0.004 C 
ATOM     20  C   UNL     1      35.515 -23.199 -12.064  0.00  0.00    -0.004 C 
ATOM     21  C   UNL     1      38.057 -24.193 -12.728  0.00  0.00    -0.000 C 
ATOM     22  C   UNL     1      37.106 -25.394 -14.617  0.00  0.00    -0.000 C 
ATOM     23  C   UNL     1      36.620 -22.851 -11.293  0.00  0.00    -0.000 C 
ATOM     24  C   UNL     1      37.884 -23.344 -11.621  0.00  0.00    -0.000 C 
ATOM     25  C   UNL     1      39.321 -24.697 -13.072  0.00  0.00    -0.000 C 
ATOM     26  C   UNL     1      38.369 -25.886 -14.946  0.00  0.00    -0.000 C 
ATOM     27  C   UNL     1      39.475 -25.538 -14.175  0.00  0.00    -0.000 C 
ENDBRANCH  17  18
ENDBRANCH   1  17
BRANCH   1  28
ATOM     28  C   UNL     1      34.907 -22.121 -15.141  0.00  0.00    +0.130 C 
BRANCH  28  30
ATOM     29  O   UNL     1      37.103 -22.000 -16.184  0.00  0.00    -0.250 OA
ATOM     30  C   UNL     1      35.885 -22.017 -16.291  0.00  0.00    +0.316 C 
BRANCH  30  31
ATOM     31  O   UNL     1      35.248 -21.982 -17.490  0.00  0.00    -0.480 OA
ATOM     32  H   UNL     1      34.465 -22.479 -17.619  0.00  0.00    +0.295 HD
ENDBRANCH  30  31
ENDBRANCH  28  30
ENDBRANCH   1  28
TORSDOF 8
ENDMDL
MODEL 5
REMARK VINA RESULT:     -11.6      0.661      1.809
REMARK  Name = 24764434
REMARK  8 active torsions:
REMARK  status: ('A' for Active; 'I' for Inactive)
REMARK    1  A    between atoms: C_1  and  N_4
REMARK    2  A    between atoms: C_1  and  C_17
REMARK    3  A    between atoms: C_1  and  C_28
REMARK    4  A    between atoms: C_11  and  C_14
REMARK    5  A    between atoms: C_14  and  O_15
REMARK    6  A    between atoms: C_17  and  C_18
REMARK    7  A    between atoms: C_28  and  C_30
REMARK    8  A    between atoms: C_30  and  O_31
REMARK                            x       y       z     vdW  Elec       q    Type
REMARK                         _______ _______ _______ _____ _____    ______ ____
ROOT
ATOM      1  C   UNL     1      33.912 -22.980 -16.055  0.00  0.00    +0.098 C 
ENDROOT
BRANCH   1   4
ATOM      2  O   UNL     1      32.156 -22.067 -18.286  0.00  0.00    -0.269 OA
ATOM      3  O   UNL     1      36.528 -21.747 -16.786  0.00  0.00    -0.269 OA
ATOM      4  N   UNL     1      34.246 -22.160 -17.202  0.00  0.00    -0.224 N 
ATOM      5  C   UNL     1      33.339 -21.805 -18.179  0.00  0.00    +0.255 C 
ATOM      6  C   UNL     1      35.504 -21.647 -17.436  0.00  0.00    +0.255 C 
ATOM      7  C   UNL     1      34.090 -20.994 -19.137  0.00  0.00    +0.059 C 
ATOM      8  C   UNL     1      35.398 -20.899 -18.689  0.00  0.00    +0.058 C 
ATOM      9  C   UNL     1      33.671 -20.388 -20.304  0.00  0.00    +0.011 C 
ATOM     10  C   UNL     1      36.359 -20.191 -19.382  0.00  0.00    +0.005 C 
ATOM     11  C   UNL     1      34.627 -19.665 -21.024  0.00  0.00    +0.076 C 
ATOM     12  C   UNL     1      35.958 -19.568 -20.568  0.00  0.00    +0.007 C 
BRANCH  11  14
ATOM     13  O   UNL     1      33.164 -19.142 -22.844  0.00  0.00    -0.245 OA
ATOM     14  C   UNL     1      34.245 -19.002 -22.262  0.00  0.00    +0.338 C 
BRANCH  14  15
ATOM     15  O   UNL     1      35.223 -18.183 -22.736  0.00  0.00    -0.477 OA
ATOM     16  H   UNL     1      36.006 -18.053 -22.240  0.00  0.00    +0.295 HD
ENDBRANCH  14  15
ENDBRANCH  11  14
ENDBRANCH   1   4
BRANCH   1  17
ATOM     17  C   UNL     1      32.842 -22.296 -15.176  0.00  0.00    +0.047 C 
BRANCH  17  18
ATOM     18  C   UNL     1      31.768 -23.203 -14.626  0.00  0.00    -0.020 C 
ATOM     19  C   UNL     1      30.458 -23.200 -15.134  0.00  0.00    -0.004 C 
ATOM     20  C   UNL     1      32.124 -24.057 -13.581  0.00  0.00    -0.004 C 
ATOM     21  C   UNL     1      29.496 -24.074 -14.574  0.00  0.00    -0.000 C 
ATOM     22  C   UNL     1      30.082 -22.347 -16.184  0.00  0.00    -0.000 C 
ATOM     23  C   UNL     1      31.178 -24.917 -13.030  0.00  0.00    -0.000 C 
ATOM     24  C   UNL     1      29.872 -24.927 -13.523  0.00  0.00    -0.000 C 
ATOM     25  C   UNL     1      28.188 -24.071 -15.082  0.00  0.00    -0.000 C 
ATOM     26  C   UNL     1      28.777 -22.358 -16.677  0.00  0.00    -0.000 C 
ATOM     27  C   UNL     1      27.831 -23.218 -16.126  0.00  0.00    -0.000 C 
ENDBRANCH  17  18
ENDBRANCH   1  17
BRANCH   1  28
ATOM     28  C   UNL     1      35.191 -23.386 -15.308  0.00  0.00    +0.130 C 
BRANCH  28  30
ATOM     29  O   UNL     1      35.200 -25.796 -15.647  0.00  0.00    -0.250 OA
ATOM     30  C   UNL     1      35.205 -24.839 -14.886  0.00  0.00    +0.316 C 
BRANCH  30  31
ATOM     31  O   UNL     1      35.264 -24.968 -13.535  0.00  0.00    -0.480 OA
ATOM     32  H   UNL     1      34.631 -24.538 -12.995  0.00  0.00    +0.295 HD
ENDBRANCH  30  31
ENDBRANCH  28  30
ENDBRANCH   1  28
TORSDOF 8
ENDMDL
MODEL 6
REMARK VINA RESULT:     -11.5      3.907      9.700
REMARK  Name = 24764434
REMARK  8 active torsions:
REMARK  status: ('A' for Active; 'I' for Inactive)
REMARK    1  A    between atoms: C_1  and  N_4
REMARK    2  A    between atoms: C_1  and  C_17
REMARK    3  A    between atoms: C_1  and  C_28
REMARK    4  A    between atoms: C_11  and  C_14
REMARK    5  A    between atoms: C_14  and  O_15
REMARK    6  A    between atoms: C_17  and  C_18
REMARK    7  A    between atoms: C_28  and  C_30
REMARK    8  A    between atoms: C_30  and  O_31
REMARK                            x       y       z     vdW  Elec       q    Type
REMARK                         _______ _______ _______ _____ _____    ______ ____
ROOT
ATOM      1  C   UNL     1      34.470 -18.126 -22.580  0.00  0.00    +0.098 C 
ENDROOT
BRANCH   1   4
ATOM      2  O   UNL     1      32.296 -19.698 -21.277  0.00  0.00    -0.269 OA
ATOM      3  O   UNL     1      36.845 -18.887 -20.944  0.00  0.00    -0.269 OA
ATOM      4  N   UNL     1      34.546 -19.019 -21.441  0.00  0.00    -0.224 N 
ATOM      5  C   UNL     1      33.460 -19.692 -20.922  0.00  0.00    +0.255 C 
ATOM      6  C   UNL     1      35.712 -19.289 -20.757  0.00  0.00    +0.255 C 
ATOM      7  C   UNL     1      33.977 -20.462 -19.791  0.00  0.00    +0.059 C 
ATOM      8  C   UNL     1      35.338 -20.219 -19.691  0.00  0.00    +0.058 C 
ATOM      9  C   UNL     1      33.319 -21.306 -18.919  0.00  0.00    +0.011 C 
ATOM     10  C   UNL     1      36.116 -20.808 -18.715  0.00  0.00    +0.005 C 
ATOM     11  C   UNL     1      34.087 -21.913 -17.921  0.00  0.00    +0.076 C 
ATOM     12  C   UNL     1      35.471 -21.666 -17.819  0.00  0.00    +0.007 C 
BRANCH  11  14
ATOM     13  O   UNL     1      34.042 -23.572 -16.197  0.00  0.00    -0.245 OA
ATOM     14  C   UNL     1      33.450 -22.814 -16.973  0.00  0.00    +0.338 C 
BRANCH  14  15
ATOM     15  O   UNL     1      32.091 -22.741 -17.019  0.00  0.00    -0.477 OA
ATOM     16  H   UNL     1      31.635 -22.143 -16.462  0.00  0.00    +0.295 HD
ENDBRANCH  14  15
ENDBRANCH  11  14
ENDBRANCH   1   4
BRANCH   1  17
ATOM     17  C   UNL     1      34.948 -16.706 -22.204  0.00  0.00    +0.047 C 
BRANCH  17  18
ATOM     18  C   UNL     1      34.232 -15.569 -22.894  0.00  0.00    -0.020 C 
ATOM     19  C   UNL     1      33.553 -14.572 -22.175  0.00  0.00    -0.004 C 
ATOM     20  C   UNL     1      34.269 -15.542 -24.288  0.00  0.00    -0.004 C 
ATOM     21  C   UNL     1      32.901 -13.533 -22.880  0.00  0.00    -0.000 C 
ATOM     22  C   UNL     1      33.505 -14.585 -20.771  0.00  0.00    -0.000 C 
ATOM     23  C   UNL     1      33.629 -14.519 -24.982  0.00  0.00    -0.000 C 
ATOM     24  C   UNL     1      32.948 -13.521 -24.284  0.00  0.00    -0.000 C 
ATOM     25  C   UNL     1      32.222 -12.536 -22.162  0.00  0.00    -0.000 C 
ATOM     26  C   UNL     1      32.825 -13.586 -20.073  0.00  0.00    -0.000 C 
ATOM     27  C   UNL     1      32.185 -12.564 -20.767  0.00  0.00    -0.000 C 
ENDBRANCH  17  18
ENDBRANCH   1  17
BRANCH   1  28
ATOM     28  C   UNL     1      33.068 -18.185 -23.203  0.00  0.00    +0.130 C 
BRANCH  28  30
ATOM     29  O   UNL     1      33.837 -19.566 -25.053  0.00  0.00    -0.250 OA
ATOM     30  C   UNL     1      33.060 -18.731 -24.613  0.00  0.00    +0.316 C 
BRANCH  30  31
ATOM     31  O   UNL     1      32.045 -18.207 -25.349  0.00  0.00    -0.480 OA
ATOM     32  H   UNL     1      31.186 -18.140 -24.981  0.00  0.00    +0.295 HD
ENDBRANCH  30  31
ENDBRANCH  28  30
ENDBRANCH   1  28
TORSDOF 8
ENDMDL
MODEL 7
REMARK VINA RESULT:     -11.5     11.780     16.309
REMARK  Name = 24764434
REMARK  8 active torsions:
REMARK  status: ('A' for Active; 'I' for Inactive)
REMARK    1  A    between atoms: C_1  and  N_4
REMARK    2  A    between atoms: C_1  and  C_17
REMARK    3  A    between atoms: C_1  and  C_28
REMARK    4  A    between atoms: C_11  and  C_14
REMARK    5  A    between atoms: C_14  and  O_15
REMARK    6  A    between atoms: C_17  and  C_18
REMARK    7  A    between atoms: C_28  and  C_30
REMARK    8  A    between atoms: C_30  and  O_31
REMARK                            x       y       z     vdW  Elec       q    Type
REMARK                         _______ _______ _______ _____ _____    ______ ____
ROOT
ATOM      1  C   UNL     1      31.187  -7.962 -21.569  0.00  0.00    +0.098 C 
ENDROOT
BRANCH   1   4
ATOM      2  O   UNL     1      32.518  -9.292 -23.882  0.00  0.00    -0.269 OA
ATOM      3  O   UNL     1      30.938 -10.211 -19.626  0.00  0.00    -0.269 OA
ATOM      4  N   UNL     1      31.597  -9.344 -21.715  0.00  0.00    -0.224 N 
ATOM      5  C   UNL     1      32.205  -9.847 -22.846  0.00  0.00    +0.255 C 
ATOM      6  C   UNL     1      31.421 -10.302 -20.739  0.00  0.00    +0.255 C 
ATOM      7  C   UNL     1      32.434 -11.265 -22.573  0.00  0.00    +0.059 C 
ATOM      8  C   UNL     1      31.960 -11.541 -21.300  0.00  0.00    +0.058 C 
ATOM      9  C   UNL     1      33.007 -12.239 -23.366  0.00  0.00    +0.011 C 
ATOM     10  C   UNL     1      32.036 -12.804 -20.749  0.00  0.00    +0.005 C 
ATOM     11  C   UNL     1      33.094 -13.527 -22.830  0.00  0.00    +0.076 C 
ATOM     12  C   UNL     1      32.613 -13.806 -21.534  0.00  0.00    +0.007 C 
BRANCH  11  14
ATOM     13  O   UNL     1      33.235 -15.043 -24.675  0.00  0.00    -0.245 OA
ATOM     14  C   UNL     1      33.690 -14.595 -23.617  0.00  0.00    +0.338 C 
BRANCH  14  15
ATOM     15  O   UNL     1      34.838 -15.072 -23.063  0.00  0.00    -0.477 OA
ATOM     16  H   UNL     1      35.668 -14.783 -23.383  0.00  0.00    +0.295 HD
ENDBRANCH  14  15
ENDBRANCH  11  14
ENDBRANCH   1   4
BRANCH   1  17
ATOM     17  C   UNL     1      30.502  -7.448 -22.853  0.00  0.00    +0.047 C 
BRANCH  17  18
ATOM     18  C   UNL     1      30.598  -5.960 -23.098  0.00  0.00    -0.020 C 
ATOM     19  C   UNL     1      31.195  -5.434 -24.255  0.00  0.00    -0.004 C 
ATOM     20  C   UNL     1      30.068  -5.115 -22.123  0.00  0.00    -0.004 C 
ATOM     21  C   UNL     1      31.255  -4.030 -24.426  0.00  0.00    -0.000 C 
ATOM     22  C   UNL     1      31.735  -6.270 -25.246  0.00  0.00    -0.000 C 
ATOM     23  C   UNL     1      30.126  -3.735 -22.290  0.00  0.00    -0.000 C 
ATOM     24  C   UNL     1      30.716  -3.194 -23.433  0.00  0.00    -0.000 C 
ATOM     25  C   UNL     1      31.851  -3.503 -25.582  0.00  0.00    -0.000 C 
ATOM     26  C   UNL     1      32.324  -5.729 -26.390  0.00  0.00    -0.000 C 
ATOM     27  C   UNL     1      32.382  -4.348 -26.557  0.00  0.00    -0.000 C 
ENDBRANCH  17  18
ENDBRANCH   1  17
BRANCH   1  28
ATOM     28  C   UNL     1      32.372  -7.110 -21.090  0.00  0.00    +0.130 C 
BRANCH  28  30
ATOM     29  O   UNL     1      32.811  -5.667 -19.181  0.00  0.00    -0.250 OA
ATOM     30  C   UNL     1      32.226  -6.625 -19.665  0.00  0.00    +0.316 C 
BRANCH  30  31
ATOM     31  O   UNL     1      31.321  -7.366 -18.973  0.00  0.00    -0.480 OA
ATOM     32  H   UNL     1      30.417  -7.125 -18.978  0.00  0.00    +0.295 HD
ENDBRANCH  30  31
ENDBRANCH  28  30
ENDBRANCH   1  28
TORSDOF 8
ENDMDL
MODEL 8
REMARK VINA RESULT:     -11.5      3.724      9.573
REMARK  Name = 24764434
REMARK  8 active torsions:
REMARK  status: ('A' for Active; 'I' for Inactive)
REMARK    1  A    between atoms: C_1  and  N_4
REMARK    2  A    between atoms: C_1  and  C_17
REMARK    3  A    between atoms: C_1  and  C_28
REMARK    4  A    between atoms: C_11  and  C_14
REMARK    5  A    between atoms: C_14  and  O_15
REMARK    6  A    between atoms: C_17  and  C_18
REMARK    7  A    between atoms: C_28  and  C_30
REMARK    8  A    between atoms: C_30  and  O_31
REMARK                            x       y       z     vdW  Elec       q    Type
REMARK                         _______ _______ _______ _____ _____    ______ ____
ROOT
ATOM      1  C   UNL     1      34.507 -18.332 -22.668  0.00  0.00    +0.098 C 
ENDROOT
BRANCH   1   4
ATOM      2  O   UNL     1      32.255 -19.780 -21.353  0.00  0.00    -0.269 OA
ATOM      3  O   UNL     1      36.823 -19.114 -20.959  0.00  0.00    -0.269 OA
ATOM      4  N   UNL     1      34.530 -19.185 -21.497  0.00  0.00    -0.224 N 
ATOM      5  C   UNL     1      33.411 -19.801 -20.976  0.00  0.00    +0.255 C 
ATOM      6  C   UNL     1      35.673 -19.470 -20.780  0.00  0.00    +0.255 C 
ATOM      7  C   UNL     1      33.880 -20.546 -19.808  0.00  0.00    +0.059 C 
ATOM      8  C   UNL     1      35.247 -20.346 -19.689  0.00  0.00    +0.058 C 
ATOM      9  C   UNL     1      33.177 -21.334 -18.919  0.00  0.00    +0.011 C 
ATOM     10  C   UNL     1      35.985 -20.925 -18.677  0.00  0.00    +0.005 C 
ATOM     11  C   UNL     1      33.904 -21.930 -17.884  0.00  0.00    +0.076 C 
ATOM     12  C   UNL     1      35.294 -21.727 -17.764  0.00  0.00    +0.007 C 
BRANCH  11  14
ATOM     13  O   UNL     1      31.998 -22.795 -16.725  0.00  0.00    -0.245 OA
ATOM     14  C   UNL     1      33.218 -22.773 -16.917  0.00  0.00    +0.338 C 
BRANCH  14  15
ATOM     15  O   UNL     1      34.076 -23.566 -16.218  0.00  0.00    -0.477 OA
ATOM     16  H   UNL     1      33.796 -24.407 -15.916  0.00  0.00    +0.295 HD
ENDBRANCH  14  15
ENDBRANCH  11  14
ENDBRANCH   1   4
BRANCH   1  17
ATOM     17  C   UNL     1      35.286 -17.023 -22.417  0.00  0.00    +0.047 C 
BRANCH  17  18
ATOM     18  C   UNL     1      34.450 -15.827 -22.027  0.00  0.00    -0.020 C 
ATOM     19  C   UNL     1      33.886 -14.969 -22.986  0.00  0.00    -0.004 C 
ATOM     20  C   UNL     1      34.254 -15.599 -20.665  0.00  0.00    -0.004 C 
ATOM     21  C   UNL     1      33.112 -13.865 -22.557  0.00  0.00    -0.000 C 
ATOM     22  C   UNL     1      34.073 -15.184 -24.361  0.00  0.00    -0.000 C 
ATOM     23  C   UNL     1      33.493 -14.513 -20.242  0.00  0.00    -0.000 C 
ATOM     24  C   UNL     1      32.925 -13.650 -21.180  0.00  0.00    -0.000 C 
ATOM     25  C   UNL     1      32.548 -13.008 -23.514  0.00  0.00    -0.000 C 
ATOM     26  C   UNL     1      33.505 -14.321 -25.299  0.00  0.00    -0.000 C 
ATOM     27  C   UNL     1      32.743 -13.235 -24.876  0.00  0.00    -0.000 C 
ENDBRANCH  17  18
ENDBRANCH   1  17
BRANCH   1  28
ATOM     28  C   UNL     1      33.061 -18.135 -23.147  0.00  0.00    +0.130 C 
BRANCH  28  30
ATOM     29  O   UNL     1      32.030 -18.010 -25.348  0.00  0.00    -0.250 OA
ATOM     30  C   UNL     1      32.851 -18.515 -24.596  0.00  0.00    +0.316 C 
BRANCH  30  31
ATOM     31  O   UNL     1      33.724 -19.477 -24.994  0.00  0.00    -0.480 OA
ATOM     32  H   UNL     1      33.538 -20.379 -24.821  0.00  0.00    +0.295 HD
ENDBRANCH  30  31
ENDBRANCH  28  30
ENDBRANCH   1  28
TORSDOF 8
ENDMDL
MODEL 9
REMARK VINA RESULT:     -11.4      3.730      9.335
REMARK  Name = 24764434
REMARK  8 active torsions:
REMARK  status: ('A' for Active; 'I' for Inactive)
REMARK    1  A    between atoms: C_1  and  N_4
REMARK    2  A    between atoms: C_1  and  C_17
REMARK    3  A    between atoms: C_1  and  C_28
REMARK    4  A    between atoms: C_11  and  C_14
REMARK    5  A    between atoms: C_14  and  O_15
REMARK    6  A    between atoms: C_17  and  C_18
REMARK    7  A    between atoms: C_28  and  C_30
REMARK    8  A    between atoms: C_30  and  O_31
REMARK                            x       y       z     vdW  Elec       q    Type
REMARK                         _______ _______ _______ _____ _____    ______ ____
ROOT
ATOM      1  C   UNL     1      34.656 -18.385 -22.607  0.00  0.00    +0.098 C 
ENDROOT
BRANCH   1   4
ATOM      2  O   UNL     1      36.927 -18.998 -20.775  0.00  0.00    -0.269 OA
ATOM      3  O   UNL     1      32.412 -19.874 -21.326  0.00  0.00    -0.269 OA
ATOM      4  N   UNL     1      34.669 -19.203 -21.411  0.00  0.00    -0.224 N 
ATOM      5  C   UNL     1      35.793 -19.417 -20.642  0.00  0.00    +0.255 C 
ATOM      6  C   UNL     1      33.557 -19.851 -20.916  0.00  0.00    +0.255 C 
ATOM      7  C   UNL     1      35.365 -20.295 -19.554  0.00  0.00    +0.059 C 
ATOM      8  C   UNL     1      34.013 -20.558 -19.719  0.00  0.00    +0.058 C 
ATOM      9  C   UNL     1      36.089 -20.824 -18.504  0.00  0.00    +0.011 C 
ATOM     10  C   UNL     1      33.313 -21.362 -18.843  0.00  0.00    +0.005 C 
ATOM     11  C   UNL     1      35.400 -21.642 -17.604  0.00  0.00    +0.076 C 
ATOM     12  C   UNL     1      34.026 -21.909 -17.773  0.00  0.00    +0.007 C 
BRANCH  11  14
ATOM     13  O   UNL     1      35.673 -23.120 -15.742  0.00  0.00    -0.245 OA
ATOM     14  C   UNL     1      36.109 -22.227 -16.477  0.00  0.00    +0.338 C 
BRANCH  14  15
ATOM     15  O   UNL     1      37.344 -21.683 -16.301  0.00  0.00    -0.477 OA
ATOM     16  H   UNL     1      37.868 -21.937 -15.568  0.00  0.00    +0.295 HD
ENDBRANCH  14  15
ENDBRANCH  11  14
ENDBRANCH   1   4
BRANCH   1  17
ATOM     17  C   UNL     1      35.394 -17.049 -22.373  0.00  0.00    +0.047 C 
BRANCH  17  18
ATOM     18  C   UNL     1      34.520 -15.872 -22.006  0.00  0.00    -0.020 C 
ATOM     19  C   UNL     1      33.942 -15.043 -22.981  0.00  0.00    -0.004 C 
ATOM     20  C   UNL     1      34.302 -15.635 -20.649  0.00  0.00    -0.004 C 
ATOM     21  C   UNL     1      33.132 -13.956 -22.574  0.00  0.00    -0.000 C 
ATOM     22  C   UNL     1      34.150 -15.268 -24.352  0.00  0.00    -0.000 C 
ATOM     23  C   UNL     1      33.506 -14.566 -20.247  0.00  0.00    -0.000 C 
ATOM     24  C   UNL     1      32.924 -13.731 -21.202  0.00  0.00    -0.000 C 
ATOM     25  C   UNL     1      32.554 -13.127 -23.547  0.00  0.00    -0.000 C 
ATOM     26  C   UNL     1      33.568 -14.433 -25.306  0.00  0.00    -0.000 C 
ATOM     27  C   UNL     1      32.771 -13.365 -24.905  0.00  0.00    -0.000 C 
ENDBRANCH  17  18
ENDBRANCH   1  17
BRANCH   1  28
ATOM     28  C   UNL     1      33.220 -18.240 -23.132  0.00  0.00    +0.130 C 
BRANCH  28  30
ATOM     29  O   UNL     1      33.677 -19.631 -25.076  0.00  0.00    -0.250 OA
ATOM     30  C   UNL     1      33.051 -18.718 -24.557  0.00  0.00    +0.316 C 
BRANCH  30  31
ATOM     31  O   UNL     1      32.073 -18.030 -25.204  0.00  0.00    -0.480 OA
ATOM     32  H   UNL     1      32.005 -18.080 -26.136  0.00  0.00    +0.295 HD
ENDBRANCH  30  31
ENDBRANCH  28  30
ENDBRANCH   1  28
TORSDOF 8
ENDMDL
