MODEL 1
REMARK VINA RESULT:     -12.2      0.000      0.000
REMARK  Name = 4449
REMARK  10 active torsions:
REMARK  status: ('A' for Active; 'I' for Inactive)
REMARK    1  A    between atoms: N_2  and  C_9
REMARK    2  A    between atoms: N_3  and  C_26
REMARK    3  A    between atoms: C_6  and  C_7
REMARK    4  A    between atoms: C_9  and  C_10
REMARK    5  A    between atoms: C_10  and  C_11
REMARK    6  A    between atoms: C_11  and  N_12
REMARK    7  A    between atoms: N_13  and  C_20
REMARK    8  A    between atoms: C_26  and  C_27
REMARK    9  A    between atoms: C_27  and  O_28
REMARK   10  A    between atoms: O_28  and  C_29
REMARK                            x       y       z     vdW  Elec       q    Type
REMARK                         _______ _______ _______ _____ _____    ______ ____
ROOT
ATOM      1  O   UNL     1      32.200 -21.219 -19.751  0.00  0.00    -0.245 OA
ATOM      2  N   UNL     1      34.318 -20.250 -20.100  0.00  0.00    -0.201 N 
ATOM      3  N   UNL     1      34.081 -21.678 -18.432  0.00  0.00    -0.263 N 
ATOM      4  N   UNL     1      35.538 -20.351 -19.487  0.00  0.00    -0.152 NA
ATOM      5  C   UNL     1      33.379 -21.073 -19.459  0.00  0.00    +0.348 A 
ATOM      6  C   UNL     1      35.340 -21.197 -18.518  0.00  0.00    +0.144 A 
ENDROOT
BRANCH   6   7
ATOM      7  C   UNL     1      36.405 -21.627 -17.567  0.00  0.00    +0.066 C 
ATOM      8  C   UNL     1      36.801 -20.481 -16.658  0.00  0.00    +0.008 C 
ENDBRANCH   6   7
BRANCH   2   9
ATOM      9  C   UNL     1      34.115 -19.396 -21.238  0.00  0.00    +0.130 C 
BRANCH   9  10
ATOM     10  C   UNL     1      35.054 -18.191 -21.240  0.00  0.00    +0.004 C 
BRANCH  10  11
ATOM     11  C   UNL     1      35.082 -17.412 -22.559  0.00  0.00    -0.075 C 
BRANCH  11  12
ATOM     12  N   UNL     1      34.824 -15.987 -22.358  0.00  0.00    +0.389 N 
ATOM     13  N   UNL     1      33.221 -13.662 -21.935  0.00  0.00    -0.312 N 
ATOM     14  C   UNL     1      34.172 -15.760 -21.063  0.00  0.00    -0.055 C 
ATOM     15  C   UNL     1      33.985 -15.457 -23.440  0.00  0.00    -0.055 C 
ATOM     16  C   UNL     1      33.947 -14.265 -20.815  0.00  0.00    +0.068 C 
ATOM     17  C   UNL     1      33.756 -13.953 -23.271  0.00  0.00    +0.068 C 
ATOM     18  H   UNL     1      35.720 -15.498 -22.365  0.00  0.00    -0.080 HD
BRANCH  13  20
ATOM     19 CL   UNL     1      31.922  -9.068 -23.791  0.00  0.00    -0.082 Cl
ATOM     20  C   UNL     1      32.539 -12.453 -21.750  0.00  0.00    +0.049 C 
ATOM     21  C   UNL     1      32.569 -11.477 -22.746  0.00  0.00    +0.026 C 
ATOM     22  C   UNL     1      31.827 -12.227 -20.572  0.00  0.00    +0.015 C 
ATOM     23  C   UNL     1      31.886 -10.275 -22.563  0.00  0.00    +0.059 C 
ATOM     24  C   UNL     1      31.145 -11.025 -20.390  0.00  0.00    +0.002 C 
ATOM     25  C   UNL     1      31.173 -10.048 -21.386  0.00  0.00    +0.011 C 
ENDBRANCH  13  20
ENDBRANCH  11  12
ENDBRANCH  10  11
ENDBRANCH   9  10
ENDBRANCH   2   9
BRANCH   3  26
ATOM     26  C   UNL     1      33.545 -22.629 -17.478  0.00  0.00    +0.159 C 
BRANCH  26  27
ATOM     27  C   UNL     1      32.088 -22.341 -17.163  0.00  0.00    +0.230 C 
BRANCH  27  28
ATOM     28  O   UNL     1      31.883 -22.431 -15.759  0.00  0.00    -0.473 OA
BRANCH  28  29
ATOM     29  C   UNL     1      30.808 -23.169 -15.337  0.00  0.00    +0.139 C 
ATOM     30  C   UNL     1      30.962 -24.100 -14.309  0.00  0.00    +0.037 C 
ATOM     31  C   UNL     1      29.561 -22.991 -15.935  0.00  0.00    +0.037 C 
ATOM     32  C   UNL     1      29.869 -24.852 -13.880  0.00  0.00    +0.003 C 
ATOM     33  C   UNL     1      28.467 -23.742 -15.505  0.00  0.00    +0.003 C 
ATOM     34  C   UNL     1      28.621 -24.672 -14.478  0.00  0.00    +0.000 C 
ENDBRANCH  28  29
ENDBRANCH  27  28
ENDBRANCH  26  27
ENDBRANCH   3  26
TORSDOF 10
ENDMDL
MODEL 2
REMARK VINA RESULT:     -12.2      4.035      7.717
REMARK  Name = 4449
REMARK  10 active torsions:
REMARK  status: ('A' for Active; 'I' for Inactive)
REMARK    1  A    between atoms: N_2  and  C_9
REMARK    2  A    between atoms: N_3  and  C_26
REMARK    3  A    between atoms: C_6  and  C_7
REMARK    4  A    between atoms: C_9  and  C_10
REMARK    5  A    between atoms: C_10  and  C_11
REMARK    6  A    between atoms: C_11  and  N_12
REMARK    7  A    between atoms: N_13  and  C_20
REMARK    8  A    between atoms: C_26  and  C_27
REMARK    9  A    between atoms: C_27  and  O_28
REMARK   10  A    between atoms: O_28  and  C_29
REMARK                            x       y       z     vdW  Elec       q    Type
REMARK                         _______ _______ _______ _____ _____    ______ ____
ROOT
ATOM      1  O   UNL     1      34.224 -15.217 -20.245  0.00  0.00    -0.245 OA
ATOM      2  N   UNL     1      32.961 -13.732 -21.566  0.00  0.00    -0.201 N 
ATOM      3  N   UNL     1      34.079 -15.345 -22.579  0.00  0.00    -0.263 N 
ATOM      4  N   UNL     1      32.722 -13.600 -22.909  0.00  0.00    -0.152 NA
ATOM      5  C   UNL     1      33.813 -14.822 -21.327  0.00  0.00    +0.348 A 
ATOM      6  C   UNL     1      33.403 -14.567 -23.451  0.00  0.00    +0.144 A 
ENDROOT
BRANCH   6   7
ATOM      7  C   UNL     1      33.442 -14.826 -24.919  0.00  0.00    +0.066 C 
ATOM      8  C   UNL     1      32.858 -13.654 -25.682  0.00  0.00    +0.008 C 
ENDBRANCH   6   7
BRANCH   2   9
ATOM      9  C   UNL     1      32.379 -12.836 -20.606  0.00  0.00    +0.130 C 
BRANCH   9  10
ATOM     10  C   UNL     1      31.398 -11.853 -21.243  0.00  0.00    +0.004 C 
BRANCH  10  11
ATOM     11  C   UNL     1      31.144 -10.588 -20.416  0.00  0.00    -0.075 C 
BRANCH  11  12
ATOM     12  N   UNL     1      31.035  -9.398 -21.258  0.00  0.00    +0.389 N 
ATOM     13  N   UNL     1      31.995  -7.132 -22.707  0.00  0.00    -0.312 N 
ATOM     14  C   UNL     1      31.788  -9.578 -22.504  0.00  0.00    -0.055 C 
ATOM     15  C   UNL     1      31.526  -8.214 -20.543  0.00  0.00    -0.055 C 
ATOM     16  C   UNL     1      31.636  -8.360 -23.421  0.00  0.00    +0.068 C 
ATOM     17  C   UNL     1      31.364  -6.951 -21.394  0.00  0.00    +0.068 C 
ATOM     18  H   UNL     1      30.050  -9.260 -21.487  0.00  0.00    -0.080 HD
BRANCH  13  20
ATOM     19 CL   UNL     1      30.528  -2.708 -24.830  0.00  0.00    -0.082 Cl
ATOM     20  C   UNL     1      32.345  -5.985 -23.431  0.00  0.00    +0.049 C 
ATOM     21  C   UNL     1      31.375  -5.031 -23.735  0.00  0.00    +0.026 C 
ATOM     22  C   UNL     1      33.664  -5.796 -23.841  0.00  0.00    +0.015 C 
ATOM     23  C   UNL     1      31.725  -3.887 -24.452  0.00  0.00    +0.059 C 
ATOM     24  C   UNL     1      34.014  -4.652 -24.558  0.00  0.00    +0.002 C 
ATOM     25  C   UNL     1      33.044  -3.697 -24.864  0.00  0.00    +0.011 C 
ENDBRANCH  13  20
ENDBRANCH  11  12
ENDBRANCH  10  11
ENDBRANCH   9  10
ENDBRANCH   2   9
BRANCH   3  26
ATOM     26  C   UNL     1      34.917 -16.494 -22.862  0.00  0.00    +0.159 C 
BRANCH  26  27
ATOM     27  C   UNL     1      34.295 -17.779 -22.345  0.00  0.00    +0.230 C 
BRANCH  27  28
ATOM     28  O   UNL     1      35.216 -18.436 -21.484  0.00  0.00    -0.473 OA
BRANCH  28  29
ATOM     29  C   UNL     1      34.716 -19.439 -20.695  0.00  0.00    +0.139 C 
ATOM     30  C   UNL     1      33.337 -19.628 -20.597  0.00  0.00    +0.037 C 
ATOM     31  C   UNL     1      35.585 -20.272 -19.992  0.00  0.00    +0.037 C 
ATOM     32  C   UNL     1      32.828 -20.649 -19.796  0.00  0.00    +0.003 C 
ATOM     33  C   UNL     1      35.076 -21.294 -19.190  0.00  0.00    +0.003 C 
ATOM     34  C   UNL     1      33.698 -21.483 -19.092  0.00  0.00    +0.000 C 
ENDBRANCH  28  29
ENDBRANCH  27  28
ENDBRANCH  26  27
ENDBRANCH   3  26
TORSDOF 10
ENDMDL
MODEL 3
REMARK VINA RESULT:     -12.1      1.237      1.454
REMARK  Name = 4449
REMARK  10 active torsions:
REMARK  status: ('A' for Active; 'I' for Inactive)
REMARK    1  A    between atoms: N_2  and  C_9
REMARK    2  A    between atoms: N_3  and  C_26
REMARK    3  A    between atoms: C_6  and  C_7
REMARK    4  A    between atoms: C_9  and  C_10
REMARK    5  A    between atoms: C_10  and  C_11
REMARK    6  A    between atoms: C_11  and  N_12
REMARK    7  A    between atoms: N_13  and  C_20
REMARK    8  A    between atoms: C_26  and  C_27
REMARK    9  A    between atoms: C_27  and  O_28
REMARK   10  A    between atoms: O_28  and  C_29
REMARK                            x       y       z     vdW  Elec       q    Type
REMARK                         _______ _______ _______ _____ _____    ______ ____
ROOT
ATOM      1  O   UNL     1      33.547 -19.923 -21.373  0.00  0.00    -0.245 OA
ATOM      2  N   UNL     1      35.603 -19.289 -20.415  0.00  0.00    -0.201 N 
ATOM      3  N   UNL     1      34.535 -21.020 -19.554  0.00  0.00    -0.263 N 
ATOM      4  N   UNL     1      36.368 -19.754 -19.378  0.00  0.00    -0.152 NA
ATOM      5  C   UNL     1      34.441 -20.065 -20.551  0.00  0.00    +0.348 A 
ATOM      6  C   UNL     1      35.694 -20.764 -18.911  0.00  0.00    +0.144 A 
ENDROOT
BRANCH   6   7
ATOM      7  C   UNL     1      36.148 -21.597 -17.760  0.00  0.00    +0.066 C 
ATOM      8  C   UNL     1      36.836 -20.738 -16.720  0.00  0.00    +0.008 C 
ENDBRANCH   6   7
BRANCH   2   9
ATOM      9  C   UNL     1      36.009 -18.159 -21.203  0.00  0.00    +0.130 C 
BRANCH   9  10
ATOM     10  C   UNL     1      34.945 -17.063 -21.247  0.00  0.00    +0.004 C 
BRANCH  10  11
ATOM     11  C   UNL     1      34.691 -16.483 -22.642  0.00  0.00    -0.075 C 
BRANCH  11  12
ATOM     12  N   UNL     1      34.406 -15.049 -22.594  0.00  0.00    +0.389 N 
ATOM     13  N   UNL     1      32.783 -12.723 -22.261  0.00  0.00    -0.312 N 
ATOM     14  C   UNL     1      33.924 -14.665 -21.263  0.00  0.00    -0.055 C 
ATOM     15  C   UNL     1      33.411 -14.688 -23.610  0.00  0.00    -0.055 C 
ATOM     16  C   UNL     1      33.675 -13.156 -21.182  0.00  0.00    +0.068 C 
ATOM     17  C   UNL     1      33.146 -13.180 -23.608  0.00  0.00    +0.068 C 
ATOM     18  H   UNL     1      35.273 -14.547 -22.788  0.00  0.00    -0.080 HD
BRANCH  13  20
ATOM     19 CL   UNL     1      32.029  -7.948 -23.950  0.00  0.00    -0.082 Cl
ATOM     20  C   UNL     1      32.085 -11.516 -22.143  0.00  0.00    +0.049 C 
ATOM     21  C   UNL     1      32.373 -10.457 -23.004  0.00  0.00    +0.026 C 
ATOM     22  C   UNL     1      31.098 -11.374 -21.167  0.00  0.00    +0.015 C 
ATOM     23  C   UNL     1      31.674  -9.256 -22.889  0.00  0.00    +0.059 C 
ATOM     24  C   UNL     1      30.400 -10.172 -21.052  0.00  0.00    +0.002 C 
ATOM     25  C   UNL     1      30.687  -9.113 -21.913  0.00  0.00    +0.011 C 
ENDBRANCH  13  20
ENDBRANCH  11  12
ENDBRANCH  10  11
ENDBRANCH   9  10
ENDBRANCH   2   9
BRANCH   3  26
ATOM     26  C   UNL     1      33.568 -22.066 -19.283  0.00  0.00    +0.159 C 
BRANCH  26  27
ATOM     27  C   UNL     1      32.701 -21.728 -18.084  0.00  0.00    +0.230 C 
BRANCH  27  28
ATOM     28  O   UNL     1      32.780 -22.781 -17.132  0.00  0.00    -0.473 OA
BRANCH  28  29
ATOM     29  C   UNL     1      31.876 -22.754 -16.103  0.00  0.00    +0.139 C 
ATOM     30  C   UNL     1      32.318 -22.852 -14.784  0.00  0.00    +0.037 C 
ATOM     31  C   UNL     1      30.515 -22.626 -16.374  0.00  0.00    +0.037 C 
ATOM     32  C   UNL     1      31.399 -22.823 -13.736  0.00  0.00    +0.003 C 
ATOM     33  C   UNL     1      29.594 -22.597 -15.326  0.00  0.00    +0.003 C 
ATOM     34  C   UNL     1      30.036 -22.696 -14.007  0.00  0.00    +0.000 C 
ENDBRANCH  28  29
ENDBRANCH  27  28
ENDBRANCH  26  27
ENDBRANCH   3  26
TORSDOF 10
ENDMDL
MODEL 4
REMARK VINA RESULT:     -12.1      1.977      2.953
REMARK  Name = 4449
REMARK  10 active torsions:
REMARK  status: ('A' for Active; 'I' for Inactive)
REMARK    1  A    between atoms: N_2  and  C_9
REMARK    2  A    between atoms: N_3  and  C_26
REMARK    3  A    between atoms: C_6  and  C_7
REMARK    4  A    between atoms: C_9  and  C_10
REMARK    5  A    between atoms: C_10  and  C_11
REMARK    6  A    between atoms: C_11  and  N_12
REMARK    7  A    between atoms: N_13  and  C_20
REMARK    8  A    between atoms: C_26  and  C_27
REMARK    9  A    between atoms: C_27  and  O_28
REMARK   10  A    between atoms: O_28  and  C_29
REMARK                            x       y       z     vdW  Elec       q    Type
REMARK                         _______ _______ _______ _____ _____    ______ ____
ROOT
ATOM      1  O   UNL     1      32.205 -21.356 -19.768  0.00  0.00    -0.245 OA
ATOM      2  N   UNL     1      34.294 -20.291 -19.983  0.00  0.00    -0.201 N 
ATOM      3  N   UNL     1      34.066 -21.847 -18.433  0.00  0.00    -0.263 N 
ATOM      4  N   UNL     1      35.501 -20.396 -19.345  0.00  0.00    -0.152 NA
ATOM      5  C   UNL     1      33.369 -21.192 -19.432  0.00  0.00    +0.348 A 
ATOM      6  C   UNL     1      35.308 -21.318 -18.447  0.00  0.00    +0.144 A 
ENDROOT
BRANCH   6   7
ATOM      7  C   UNL     1      36.363 -21.782 -17.500  0.00  0.00    +0.066 C 
ATOM      8  C   UNL     1      36.819 -20.641 -16.613  0.00  0.00    +0.008 C 
ENDBRANCH   6   7
BRANCH   2   9
ATOM      9  C   UNL     1      34.090 -19.362 -21.061  0.00  0.00    +0.130 C 
BRANCH   9  10
ATOM     10  C   UNL     1      35.291 -18.442 -21.274  0.00  0.00    +0.004 C 
BRANCH  10  11
ATOM     11  C   UNL     1      35.247 -17.635 -22.575  0.00  0.00    -0.075 C 
BRANCH  11  12
ATOM     12  N   UNL     1      34.970 -16.219 -22.331  0.00  0.00    +0.389 N 
ATOM     13  N   UNL     1      33.332 -13.918 -21.907  0.00  0.00    -0.312 N 
ATOM     14  C   UNL     1      34.243 -16.048 -21.068  0.00  0.00    -0.055 C 
ATOM     15  C   UNL     1      34.192 -15.649 -23.437  0.00  0.00    -0.055 C 
ATOM     16  C   UNL     1      33.996 -14.565 -20.773  0.00  0.00    +0.068 C 
ATOM     17  C   UNL     1      33.944 -14.154 -23.221  0.00  0.00    +0.068 C 
ATOM     18  H   UNL     1      35.861 -15.728 -22.267  0.00  0.00    -0.080 HD
BRANCH  13  20
ATOM     19 CL   UNL     1      31.977  -9.326 -23.724  0.00  0.00    -0.082 Cl
ATOM     20  C   UNL     1      32.635 -12.720 -21.713  0.00  0.00    +0.049 C 
ATOM     21  C   UNL     1      32.653 -11.735 -22.699  0.00  0.00    +0.026 C 
ATOM     22  C   UNL     1      31.917 -12.515 -20.534  0.00  0.00    +0.015 C 
ATOM     23  C   UNL     1      31.954 -10.544 -22.507  0.00  0.00    +0.059 C 
ATOM     24  C   UNL     1      31.218 -11.324 -20.342  0.00  0.00    +0.002 C 
ATOM     25  C   UNL     1      31.237 -10.337 -21.329  0.00  0.00    +0.011 C 
ENDBRANCH  13  20
ENDBRANCH  11  12
ENDBRANCH  10  11
ENDBRANCH   9  10
ENDBRANCH   2   9
BRANCH   3  26
ATOM     26  C   UNL     1      33.539 -22.885 -17.568  0.00  0.00    +0.159 C 
BRANCH  26  27
ATOM     27  C   UNL     1      33.517 -22.441 -16.116  0.00  0.00    +0.230 C 
BRANCH  27  28
ATOM     28  O   UNL     1      33.620 -23.581 -15.273  0.00  0.00    -0.473 OA
BRANCH  28  29
ATOM     29  C   UNL     1      34.845 -23.823 -14.707  0.00  0.00    +0.139 C 
ATOM     30  C   UNL     1      35.477 -22.827 -13.963  0.00  0.00    +0.037 C 
ATOM     31  C   UNL     1      35.458 -25.063 -14.874  0.00  0.00    +0.037 C 
ATOM     32  C   UNL     1      36.724 -23.072 -13.387  0.00  0.00    +0.003 C 
ATOM     33  C   UNL     1      36.704 -25.310 -14.298  0.00  0.00    +0.003 C 
ATOM     34  C   UNL     1      37.337 -24.314 -13.555  0.00  0.00    +0.000 C 
ENDBRANCH  28  29
ENDBRANCH  27  28
ENDBRANCH  26  27
ENDBRANCH   3  26
TORSDOF 10
ENDMDL
MODEL 5
REMARK VINA RESULT:     -12.1      4.355     11.179
REMARK  Name = 4449
REMARK  10 active torsions:
REMARK  status: ('A' for Active; 'I' for Inactive)
REMARK    1  A    between atoms: N_2  and  C_9
REMARK    2  A    between atoms: N_3  and  C_26
REMARK    3  A    between atoms: C_6  and  C_7
REMARK    4  A    between atoms: C_9  and  C_10
REMARK    5  A    between atoms: C_10  and  C_11
REMARK    6  A    between atoms: C_11  and  N_12
REMARK    7  A    between atoms: N_13  and  C_20
REMARK    8  A    between atoms: C_26  and  C_27
REMARK    9  A    between atoms: C_27  and  O_28
REMARK   10  A    between atoms: O_28  and  C_29
REMARK                            x       y       z     vdW  Elec       q    Type
REMARK                         _______ _______ _______ _____ _____    ______ ____
ROOT
ATOM      1  O   UNL     1      34.522 -15.798 -20.708  0.00  0.00    -0.245 OA
ATOM      2  N   UNL     1      34.164 -16.035 -23.023  0.00  0.00    -0.201 N 
ATOM      3  N   UNL     1      33.684 -14.096 -22.083  0.00  0.00    -0.263 N 
ATOM      4  N   UNL     1      33.697 -15.216 -24.017  0.00  0.00    -0.152 NA
ATOM      5  C   UNL     1      34.167 -15.359 -21.793  0.00  0.00    +0.348 A 
ATOM      6  C   UNL     1      33.430 -14.097 -23.409  0.00  0.00    +0.144 A 
ENDROOT
BRANCH   6   7
ATOM      7  C   UNL     1      32.893 -12.890 -24.100  0.00  0.00    +0.066 C 
ATOM      8  C   UNL     1      32.692 -13.168 -25.576  0.00  0.00    +0.008 C 
ENDBRANCH   6   7
BRANCH   2   9
ATOM      9  C   UNL     1      34.574 -17.386 -23.292  0.00  0.00    +0.130 C 
BRANCH   9  10
ATOM     10  C   UNL     1      34.799 -18.194 -22.014  0.00  0.00    +0.004 C 
BRANCH  10  11
ATOM     11  C   UNL     1      33.717 -19.239 -21.727  0.00  0.00    -0.075 C 
BRANCH  11  12
ATOM     12  N   UNL     1      34.175 -20.253 -20.778  0.00  0.00    +0.389 N 
ATOM     13  N   UNL     1      34.930 -21.283 -18.224  0.00  0.00    -0.312 N 
ATOM     14  C   UNL     1      33.163 -20.482 -19.741  0.00  0.00    -0.055 C 
ATOM     15  C   UNL     1      35.442 -19.846 -20.159  0.00  0.00    -0.055 C 
ATOM     16  C   UNL     1      33.605 -21.584 -18.773  0.00  0.00    +0.068 C 
ATOM     17  C   UNL     1      35.960 -20.927 -19.207  0.00  0.00    +0.068 C 
ATOM     18  H   UNL     1      34.323 -21.123 -21.291  0.00  0.00    -0.080 HD
BRANCH  13  20
ATOM     19 CL   UNL     1      33.688 -24.021 -14.078  0.00  0.00    -0.082 Cl
ATOM     20  C   UNL     1      35.342 -21.892 -17.032  0.00  0.00    +0.049 C 
ATOM     21  C   UNL     1      34.417 -22.572 -16.241  0.00  0.00    +0.026 C 
ATOM     22  C   UNL     1      36.679 -21.822 -16.641  0.00  0.00    +0.015 C 
ATOM     23  C   UNL     1      34.829 -23.182 -15.057  0.00  0.00    +0.059 C 
ATOM     24  C   UNL     1      37.091 -22.432 -15.456  0.00  0.00    +0.002 C 
ATOM     25  C   UNL     1      36.166 -23.113 -14.664  0.00  0.00    +0.011 C 
ENDBRANCH  13  20
ENDBRANCH  11  12
ENDBRANCH  10  11
ENDBRANCH   9  10
ENDBRANCH   2   9
BRANCH   3  26
ATOM     26  C   UNL     1      33.501 -13.015 -21.132  0.00  0.00    +0.159 C 
BRANCH  26  27
ATOM     27  C   UNL     1      32.115 -13.047 -20.514  0.00  0.00    +0.230 C 
BRANCH  27  28
ATOM     28  O   UNL     1      31.239 -12.225 -21.275  0.00  0.00    -0.473 OA
BRANCH  28  29
ATOM     29  C   UNL     1      31.281 -10.879 -21.024  0.00  0.00    +0.139 C 
ATOM     30  C   UNL     1      31.331  -9.973 -22.084  0.00  0.00    +0.037 C 
ATOM     31  C   UNL     1      31.271 -10.414 -19.710  0.00  0.00    +0.037 C 
ATOM     32  C   UNL     1      31.372  -8.602 -21.829  0.00  0.00    +0.003 C 
ATOM     33  C   UNL     1      31.312  -9.043 -19.454  0.00  0.00    +0.003 C 
ATOM     34  C   UNL     1      31.363  -8.137 -20.513  0.00  0.00    +0.000 C 
ENDBRANCH  28  29
ENDBRANCH  27  28
ENDBRANCH  26  27
ENDBRANCH   3  26
TORSDOF 10
ENDMDL
MODEL 6
REMARK VINA RESULT:     -12.0      3.682     10.980
REMARK  Name = 4449
REMARK  10 active torsions:
REMARK  status: ('A' for Active; 'I' for Inactive)
REMARK    1  A    between atoms: N_2  and  C_9
REMARK    2  A    between atoms: N_3  and  C_26
REMARK    3  A    between atoms: C_6  and  C_7
REMARK    4  A    between atoms: C_9  and  C_10
REMARK    5  A    between atoms: C_10  and  C_11
REMARK    6  A    between atoms: C_11  and  N_12
REMARK    7  A    between atoms: N_13  and  C_20
REMARK    8  A    between atoms: C_26  and  C_27
REMARK    9  A    between atoms: C_27  and  O_28
REMARK   10  A    between atoms: O_28  and  C_29
REMARK                            x       y       z     vdW  Elec       q    Type
REMARK                         _______ _______ _______ _____ _____    ______ ____
ROOT
ATOM      1  O   UNL     1      34.559 -15.752 -20.835  0.00  0.00    -0.245 OA
ATOM      2  N   UNL     1      34.172 -16.009 -23.143  0.00  0.00    -0.201 N 
ATOM      3  N   UNL     1      33.677 -14.071 -22.207  0.00  0.00    -0.263 N 
ATOM      4  N   UNL     1      33.680 -15.202 -24.135  0.00  0.00    -0.152 NA
ATOM      5  C   UNL     1      34.183 -15.325 -21.917  0.00  0.00    +0.348 A 
ATOM      6  C   UNL     1      33.404 -14.084 -23.530  0.00  0.00    +0.144 A 
ENDROOT
BRANCH   6   7
ATOM      7  C   UNL     1      32.840 -12.889 -24.221  0.00  0.00    +0.066 C 
ATOM      8  C   UNL     1      32.670 -13.162 -25.701  0.00  0.00    +0.008 C 
ENDBRANCH   6   7
BRANCH   2   9
ATOM      9  C   UNL     1      34.599 -17.355 -23.409  0.00  0.00    +0.130 C 
BRANCH   9  10
ATOM     10  C   UNL     1      34.083 -18.348 -22.369  0.00  0.00    +0.004 C 
BRANCH  10  11
ATOM     11  C   UNL     1      35.183 -19.102 -21.614  0.00  0.00    -0.075 C 
BRANCH  11  12
ATOM     12  N   UNL     1      34.640 -20.187 -20.797  0.00  0.00    +0.389 N 
ATOM     13  N   UNL     1      33.559 -21.387 -18.442  0.00  0.00    -0.312 N 
ATOM     14  C   UNL     1      33.275 -19.869 -20.361  0.00  0.00    -0.055 C 
ATOM     15  C   UNL     1      35.494 -20.428 -19.628  0.00  0.00    -0.055 C 
ATOM     16  C   UNL     1      32.674 -21.022 -19.552  0.00  0.00    +0.068 C 
ATOM     17  C   UNL     1      34.968 -21.600 -18.795  0.00  0.00    +0.068 C 
ATOM     18  H   UNL     1      34.615 -21.032 -21.368  0.00  0.00    -0.080 HD
BRANCH  13  20
ATOM     19 CL   UNL     1      29.449 -23.025 -15.862  0.00  0.00    -0.082 Cl
ATOM     20  C   UNL     1      33.044 -22.088 -17.345  0.00  0.00    +0.049 C 
ATOM     21  C   UNL     1      31.664 -22.193 -17.170  0.00  0.00    +0.026 C 
ATOM     22  C   UNL     1      33.911 -22.686 -16.431  0.00  0.00    +0.015 C 
ATOM     23  C   UNL     1      31.152 -22.895 -16.080  0.00  0.00    +0.059 C 
ATOM     24  C   UNL     1      33.399 -23.388 -15.340  0.00  0.00    +0.002 C 
ATOM     25  C   UNL     1      32.019 -23.493 -15.165  0.00  0.00    +0.011 C 
ENDBRANCH  13  20
ENDBRANCH  11  12
ENDBRANCH  10  11
ENDBRANCH   9  10
ENDBRANCH   2   9
BRANCH   3  26
ATOM     26  C   UNL     1      33.490 -12.988 -21.261  0.00  0.00    +0.159 C 
BRANCH  26  27
ATOM     27  C   UNL     1      32.147 -13.085 -20.560  0.00  0.00    +0.230 C 
BRANCH  27  28
ATOM     28  O   UNL     1      31.203 -12.263 -21.234  0.00  0.00    -0.473 OA
BRANCH  28  29
ATOM     29  C   UNL     1      31.312 -10.911 -21.041  0.00  0.00    +0.139 C 
ATOM     30  C   UNL     1      31.267 -10.385 -19.750  0.00  0.00    +0.037 C 
ATOM     31  C   UNL     1      31.468 -10.060 -22.134  0.00  0.00    +0.037 C 
ATOM     32  C   UNL     1      31.378  -9.009 -19.552  0.00  0.00    +0.003 C 
ATOM     33  C   UNL     1      31.580  -8.684 -21.938  0.00  0.00    +0.003 C 
ATOM     34  C   UNL     1      31.535  -8.158 -20.647  0.00  0.00    +0.000 C 
ENDBRANCH  28  29
ENDBRANCH  27  28
ENDBRANCH  26  27
ENDBRANCH   3  26
TORSDOF 10
ENDMDL
MODEL 7
REMARK VINA RESULT:     -11.9      5.031     12.580
REMARK  Name = 4449
REMARK  10 active torsions:
REMARK  status: ('A' for Active; 'I' for Inactive)
REMARK    1  A    between atoms: N_2  and  C_9
REMARK    2  A    between atoms: N_3  and  C_26
REMARK    3  A    between atoms: C_6  and  C_7
REMARK    4  A    between atoms: C_9  and  C_10
REMARK    5  A    between atoms: C_10  and  C_11
REMARK    6  A    between atoms: C_11  and  N_12
REMARK    7  A    between atoms: N_13  and  C_20
REMARK    8  A    between atoms: C_26  and  C_27
REMARK    9  A    between atoms: C_27  and  O_28
REMARK   10  A    between atoms: O_28  and  C_29
REMARK                            x       y       z     vdW  Elec       q    Type
REMARK                         _______ _______ _______ _____ _____    ______ ____
ROOT
ATOM      1  O   UNL     1      33.791 -11.144 -24.263  0.00  0.00    -0.245 OA
ATOM      2  N   UNL     1      33.018 -12.405 -22.431  0.00  0.00    -0.201 N 
ATOM      3  N   UNL     1      32.155 -10.399 -22.760  0.00  0.00    -0.263 N 
ATOM      4  N   UNL     1      32.098 -12.199 -21.437  0.00  0.00    -0.152 NA
ATOM      5  C   UNL     1      33.077 -11.289 -23.280  0.00  0.00    +0.348 A 
ATOM      6  C   UNL     1      31.628 -11.010 -21.678  0.00  0.00    +0.144 A 
ENDROOT
BRANCH   6   7
ATOM      7  C   UNL     1      30.580 -10.353 -20.845  0.00  0.00    +0.066 C 
ATOM      8  C   UNL     1      31.184  -9.791 -19.575  0.00  0.00    +0.008 C 
ENDBRANCH   6   7
BRANCH   2   9
ATOM      9  C   UNL     1      33.772 -13.625 -22.519  0.00  0.00    +0.130 C 
BRANCH   9  10
ATOM     10  C   UNL     1      33.272 -14.543 -23.633  0.00  0.00    +0.004 C 
BRANCH  10  11
ATOM     11  C   UNL     1      34.358 -15.417 -24.268  0.00  0.00    -0.075 C 
BRANCH  11  12
ATOM     12  N   UNL     1      34.689 -16.570 -23.432  0.00  0.00    +0.389 N 
ATOM     13  N   UNL     1      34.202 -18.614 -21.498  0.00  0.00    -0.312 N 
ATOM     14  C   UNL     1      33.818 -17.706 -23.755  0.00  0.00    -0.055 C 
ATOM     15  C   UNL     1      34.560 -16.231 -22.010  0.00  0.00    -0.055 C 
ATOM     16  C   UNL     1      34.191 -18.939 -22.927  0.00  0.00    +0.068 C 
ATOM     17  C   UNL     1      34.959 -17.413 -21.124  0.00  0.00    +0.068 C 
ATOM     18  H   UNL     1      35.656 -16.833 -23.623  0.00  0.00    -0.080 HD
BRANCH  13  20
ATOM     19 CL   UNL     1      36.480 -21.587 -18.005  0.00  0.00    -0.082 Cl
ATOM     20  C   UNL     1      34.088 -19.640 -20.551  0.00  0.00    +0.049 C 
ATOM     21  C   UNL     1      35.210 -20.055 -19.835  0.00  0.00    +0.026 C 
ATOM     22  C   UNL     1      32.851 -20.241 -20.322  0.00  0.00    +0.015 C 
ATOM     23  C   UNL     1      35.095 -21.073 -18.889  0.00  0.00    +0.059 C 
ATOM     24  C   UNL     1      32.736 -21.260 -19.376  0.00  0.00    +0.002 C 
ATOM     25  C   UNL     1      33.858 -21.676 -18.659  0.00  0.00    +0.011 C 
ENDBRANCH  13  20
ENDBRANCH  11  12
ENDBRANCH  10  11
ENDBRANCH   9  10
ENDBRANCH   2   9
BRANCH   3  26
ATOM     26  C   UNL     1      31.844  -9.086 -23.293  0.00  0.00    +0.159 C 
BRANCH  26  27
ATOM     27  C   UNL     1      32.947  -8.087 -22.993  0.00  0.00    +0.230 C 
BRANCH  27  28
ATOM     28  O   UNL     1      32.616  -7.358 -21.818  0.00  0.00    -0.473 OA
BRANCH  28  29
ATOM     29  C   UNL     1      32.046  -6.124 -21.997  0.00  0.00    +0.139 C 
ATOM     30  C   UNL     1      32.573  -5.243 -22.942  0.00  0.00    +0.037 C 
ATOM     31  C   UNL     1      30.941  -5.750 -21.235  0.00  0.00    +0.037 C 
ATOM     32  C   UNL     1      31.993  -3.988 -23.124  0.00  0.00    +0.003 C 
ATOM     33  C   UNL     1      30.360  -4.494 -21.417  0.00  0.00    +0.003 C 
ATOM     34  C   UNL     1      30.886  -3.613 -22.361  0.00  0.00    +0.000 C 
ENDBRANCH  28  29
ENDBRANCH  27  28
ENDBRANCH  26  27
ENDBRANCH   3  26
TORSDOF 10
ENDMDL
MODEL 8
REMARK VINA RESULT:     -11.8      4.997     12.913
REMARK  Name = 4449
REMARK  10 active torsions:
REMARK  status: ('A' for Active; 'I' for Inactive)
REMARK    1  A    between atoms: N_2  and  C_9
REMARK    2  A    between atoms: N_3  and  C_26
REMARK    3  A    between atoms: C_6  and  C_7
REMARK    4  A    between atoms: C_9  and  C_10
REMARK    5  A    between atoms: C_10  and  C_11
REMARK    6  A    between atoms: C_11  and  N_12
REMARK    7  A    between atoms: N_13  and  C_20
REMARK    8  A    between atoms: C_26  and  C_27
REMARK    9  A    between atoms: C_27  and  O_28
REMARK   10  A    between atoms: O_28  and  C_29
REMARK                            x       y       z     vdW  Elec       q    Type
REMARK                         _______ _______ _______ _____ _____    ______ ____
ROOT
ATOM      1  O   UNL     1      33.683 -11.233 -24.285  0.00  0.00    -0.245 OA
ATOM      2  N   UNL     1      33.029 -12.474 -22.395  0.00  0.00    -0.201 N 
ATOM      3  N   UNL     1      32.080 -10.511 -22.738  0.00  0.00    -0.263 N 
ATOM      4  N   UNL     1      32.141 -12.278 -21.371  0.00  0.00    -0.152 NA
ATOM      5  C   UNL     1      33.014 -11.379 -23.272  0.00  0.00    +0.348 A 
ATOM      6  C   UNL     1      31.618 -11.113 -21.621  0.00  0.00    +0.144 A 
ENDROOT
BRANCH   6   7
ATOM      7  C   UNL     1      30.578 -10.474 -20.764  0.00  0.00    +0.066 C 
ATOM      8  C   UNL     1      31.208  -9.869 -19.526  0.00  0.00    +0.008 C 
ENDBRANCH   6   7
BRANCH   2   9
ATOM      9  C   UNL     1      33.825 -13.668 -22.483  0.00  0.00    +0.130 C 
BRANCH   9  10
ATOM     10  C   UNL     1      33.327 -14.624 -23.566  0.00  0.00    +0.004 C 
BRANCH  10  11
ATOM     11  C   UNL     1      34.421 -15.495 -24.192  0.00  0.00    -0.075 C 
BRANCH  11  12
ATOM     12  N   UNL     1      34.732 -16.661 -23.366  0.00  0.00    +0.389 N 
ATOM     13  N   UNL     1      34.221 -18.690 -21.421  0.00  0.00    -0.312 N 
ATOM     14  C   UNL     1      33.814 -17.765 -23.668  0.00  0.00    -0.055 C 
ATOM     15  C   UNL     1      34.651 -16.319 -21.941  0.00  0.00    -0.055 C 
ATOM     16  C   UNL     1      34.164 -19.012 -22.849  0.00  0.00    +0.068 C 
ATOM     17  C   UNL     1      35.030 -17.517 -21.066  0.00  0.00    +0.068 C 
ATOM     18  H   UNL     1      35.684 -16.957 -23.580  0.00  0.00    -0.080 HD
BRANCH  13  20
ATOM     19 CL   UNL     1      36.458 -21.668 -17.906  0.00  0.00    -0.082 Cl
ATOM     20  C   UNL     1      34.095 -19.712 -20.473  0.00  0.00    +0.049 C 
ATOM     21  C   UNL     1      35.210 -20.132 -19.748  0.00  0.00    +0.026 C 
ATOM     22  C   UNL     1      32.853 -20.305 -20.250  0.00  0.00    +0.015 C 
ATOM     23  C   UNL     1      35.083 -21.147 -18.801  0.00  0.00    +0.059 C 
ATOM     24  C   UNL     1      32.725 -21.321 -19.302  0.00  0.00    +0.002 C 
ATOM     25  C   UNL     1      33.841 -21.742 -18.577  0.00  0.00    +0.011 C 
ENDBRANCH  13  20
ENDBRANCH  11  12
ENDBRANCH  10  11
ENDBRANCH   9  10
ENDBRANCH   2   9
BRANCH   3  26
ATOM     26  C   UNL     1      31.699  -9.224 -23.289  0.00  0.00    +0.159 C 
BRANCH  26  27
ATOM     27  C   UNL     1      32.595  -8.111 -22.776  0.00  0.00    +0.230 C 
BRANCH  27  28
ATOM     28  O   UNL     1      31.990  -6.854 -23.052  0.00  0.00    -0.473 OA
BRANCH  28  29
ATOM     29  C   UNL     1      32.547  -6.108 -24.058  0.00  0.00    +0.139 C 
ATOM     30  C   UNL     1      31.937  -6.063 -25.312  0.00  0.00    +0.037 C 
ATOM     31  C   UNL     1      33.721  -5.393 -23.828  0.00  0.00    +0.037 C 
ATOM     32  C   UNL     1      32.503  -5.303 -26.335  0.00  0.00    +0.003 C 
ATOM     33  C   UNL     1      34.288  -4.633 -24.851  0.00  0.00    +0.003 C 
ATOM     34  C   UNL     1      33.679  -4.588 -26.104  0.00  0.00    +0.000 C 
ENDBRANCH  28  29
ENDBRANCH  27  28
ENDBRANCH  26  27
ENDBRANCH   3  26
TORSDOF 10
ENDMDL
MODEL 9
REMARK VINA RESULT:     -11.7      4.675     11.497
REMARK  Name = 4449
REMARK  10 active torsions:
REMARK  status: ('A' for Active; 'I' for Inactive)
REMARK    1  A    between atoms: N_2  and  C_9
REMARK    2  A    between atoms: N_3  and  C_26
REMARK    3  A    between atoms: C_6  and  C_7
REMARK    4  A    between atoms: C_9  and  C_10
REMARK    5  A    between atoms: C_10  and  C_11
REMARK    6  A    between atoms: C_11  and  N_12
REMARK    7  A    between atoms: N_13  and  C_20
REMARK    8  A    between atoms: C_26  and  C_27
REMARK    9  A    between atoms: C_27  and  O_28
REMARK   10  A    between atoms: O_28  and  C_29
REMARK                            x       y       z     vdW  Elec       q    Type
REMARK                         _______ _______ _______ _____ _____    ______ ____
ROOT
ATOM      1  O   UNL     1      35.703 -17.411 -20.547  0.00  0.00    -0.245 OA
ATOM      2  N   UNL     1      34.528 -19.112 -21.673  0.00  0.00    -0.201 N 
ATOM      3  N   UNL     1      34.624 -17.112 -22.605  0.00  0.00    -0.263 N 
ATOM      4  N   UNL     1      33.833 -19.188 -22.851  0.00  0.00    -0.152 NA
ATOM      5  C   UNL     1      35.038 -17.818 -21.489  0.00  0.00    +0.348 A 
ATOM      6  C   UNL     1      33.920 -17.990 -23.351  0.00  0.00    +0.144 A 
ENDROOT
BRANCH   6   7
ATOM      7  C   UNL     1      33.307 -17.592 -24.651  0.00  0.00    +0.066 C 
ATOM      8  C   UNL     1      32.212 -18.563 -25.042  0.00  0.00    +0.008 C 
ENDBRANCH   6   7
BRANCH   2   9
ATOM      9  C   UNL     1      34.668 -20.250 -20.806  0.00  0.00    +0.130 C 
BRANCH   9  10
ATOM     10  C   UNL     1      33.559 -20.327 -19.759  0.00  0.00    +0.004 C 
BRANCH  10  11
ATOM     11  C   UNL     1      33.429 -21.692 -19.074  0.00  0.00    -0.075 C 
BRANCH  11  12
ATOM     12  N   UNL     1      34.033 -21.695 -17.743  0.00  0.00    +0.389 N 
ATOM     13  N   UNL     1      35.586 -22.743 -15.587  0.00  0.00    -0.312 N 
ATOM     14  C   UNL     1      35.496 -21.756 -17.842  0.00  0.00    -0.055 C 
ATOM     15  C   UNL     1      33.538 -22.830 -16.954  0.00  0.00    -0.055 C 
ATOM     16  C   UNL     1      36.144 -21.703 -16.455  0.00  0.00    +0.068 C 
ATOM     17  C   UNL     1      34.120 -22.811 -15.539  0.00  0.00    +0.068 C 
ATOM     18  H   UNL     1      33.772 -20.828 -17.273  0.00  0.00    -0.080 HD
BRANCH  13  20
ATOM     19 CL   UNL     1      39.611 -25.263 -13.670  0.00  0.00    -0.082 Cl
ATOM     20  C   UNL     1      36.300 -23.162 -14.458  0.00  0.00    +0.049 C 
ATOM     21  C   UNL     1      37.463 -23.916 -14.610  0.00  0.00    +0.026 C 
ATOM     22  C   UNL     1      35.850 -22.820 -13.182  0.00  0.00    +0.015 C 
ATOM     23  C   UNL     1      38.176 -24.330 -13.485  0.00  0.00    +0.059 C 
ATOM     24  C   UNL     1      36.564 -23.234 -12.058  0.00  0.00    +0.002 C 
ATOM     25  C   UNL     1      37.727 -23.989 -12.209  0.00  0.00    +0.011 C 
ENDBRANCH  13  20
ENDBRANCH  11  12
ENDBRANCH  10  11
ENDBRANCH   9  10
ENDBRANCH   2   9
BRANCH   3  26
ATOM     26  C   UNL     1      34.905 -15.717 -22.883  0.00  0.00    +0.159 C 
BRANCH  26  27
ATOM     27  C   UNL     1      33.912 -14.800 -22.194  0.00  0.00    +0.230 C 
BRANCH  27  28
ATOM     28  O   UNL     1      33.888 -13.544 -22.860  0.00  0.00    -0.473 OA
BRANCH  28  29
ATOM     29  C   UNL     1      33.023 -12.601 -22.371  0.00  0.00    +0.139 C 
ATOM     30  C   UNL     1      32.364 -12.820 -21.161  0.00  0.00    +0.037 C 
ATOM     31  C   UNL     1      32.801 -11.422 -23.082  0.00  0.00    +0.037 C 
ATOM     32  C   UNL     1      31.483 -11.860 -20.662  0.00  0.00    +0.003 C 
ATOM     33  C   UNL     1      31.921 -10.462 -22.583  0.00  0.00    +0.003 C 
ATOM     34  C   UNL     1      31.262 -10.681 -21.374  0.00  0.00    +0.000 C 
ENDBRANCH  28  29
ENDBRANCH  27  28
ENDBRANCH  26  27
ENDBRANCH   3  26
TORSDOF 10
ENDMDL
