MODEL 1
REMARK VINA RESULT:     -12.0      0.000      0.000
REMARK  Name = 25113614
REMARK  7 active torsions:
REMARK  status: ('A' for Active; 'I' for Inactive)
REMARK    1  A    between atoms: C_3  and  C_10
REMARK    2  A    between atoms: C_7  and  C_25
REMARK    3  A    between atoms: N_9  and  C_12
REMARK    4  A    between atoms: C_12  and  C_13
REMARK    5  A    between atoms: C_18  and  C_21
REMARK    6  A    between atoms: C_25  and  N_26
REMARK    7  A    between atoms: N_26  and  C_29
REMARK                            x       y       z     vdW  Elec       q    Type
REMARK                         _______ _______ _______ _____ _____    ______ ____
ROOT
ATOM      1  O   UNL     1      34.649 -24.697 -11.369  0.00  0.00    -0.277 OA
ATOM      2  N   UNL     1      35.545 -23.648 -13.223  0.00  0.00    -0.275 N 
ATOM      3  C   UNL     1      35.523 -22.667 -14.305  0.00  0.00    +0.152 C 
ATOM      4  C   UNL     1      36.995 -22.400 -14.609  0.00  0.00    +0.031 C 
ATOM      5  C   UNL     1      36.881 -24.199 -13.042  0.00  0.00    +0.094 C 
ATOM      6  C   UNL     1      37.674 -23.719 -14.247  0.00  0.00    +0.024 C 
ATOM      7  C   UNL     1      34.518 -23.955 -12.345  0.00  0.00    +0.204 C 
ENDROOT
BRANCH   3  10
ATOM      8  O   UNL     1      34.809 -24.511 -15.643  0.00  0.00    -0.273 OA
ATOM      9  N   UNL     1      34.306 -22.349 -16.344  0.00  0.00    -0.299 N 
ATOM     10  C   UNL     1      34.844 -23.293 -15.486  0.00  0.00    +0.241 C 
ATOM     11  H   UNL     1      34.398 -21.397 -16.108  0.00  0.00    +0.150 HD
BRANCH   9  12
ATOM     12  C   UNL     1      33.618 -22.692 -17.567  0.00  0.00    +0.116 C 
BRANCH  12  13
ATOM     13  C   UNL     1      33.829 -21.662 -18.638  0.00  0.00    -0.003 C 
ATOM     14  C   UNL     1      35.123 -21.323 -19.035  0.00  0.00    -0.003 C 
ATOM     15  C   UNL     1      32.732 -21.041 -19.235  0.00  0.00    -0.003 C 
ATOM     16  C   UNL     1      35.319 -20.365 -20.028  0.00  0.00    +0.002 C 
ATOM     17  C   UNL     1      32.928 -20.083 -20.229  0.00  0.00    +0.002 C 
ATOM     18  C   UNL     1      34.222 -19.744 -20.626  0.00  0.00    +0.031 C 
BRANCH  18  21
ATOM     19  N   UNL     1      34.980 -17.501 -21.372  0.00  0.00    -0.343 N 
ATOM     20  N   UNL     1      34.082 -19.012 -22.911  0.00  0.00    -0.285 NA
ATOM     21  C   UNL     1      34.428 -18.746 -21.663  0.00  0.00    +0.117 C 
ATOM     22  H   UNL     1      35.111 -16.839 -22.089  0.00  0.00    +0.144 HD
ATOM     23  H   UNL     1      35.241 -17.282 -20.448  0.00  0.00    +0.144 HD
ATOM     24  H   UNL     1      34.221 -18.338 -23.614  0.00  0.00    +0.188 HD
ENDBRANCH  18  21
ENDBRANCH  12  13
ENDBRANCH   9  12
ENDBRANCH   3  10
BRANCH   7  25
ATOM     25  C   UNL     1      33.183 -23.320 -12.638  0.00  0.00    +0.006 C 
BRANCH  25  26
ATOM     26  N   UNL     1      32.215 -24.398 -12.756  0.00  0.00    +0.391 N 
ATOM     27  H   UNL     1      32.710 -25.289 -12.793  0.00  0.00    -0.084 HD
ATOM     28  H   UNL     1      31.594 -24.373 -11.947  0.00  0.00    -0.084 HD
BRANCH  26  29
ATOM     29  C   UNL     1      31.414 -24.239 -13.975  0.00  0.00    -0.061 C 
ATOM     30  C   UNL     1      31.396 -22.750 -14.338  0.00  0.00    -0.021 C 
ATOM     31  C   UNL     1      30.029 -24.858 -13.738  0.00  0.00    -0.021 C 
ATOM     32  C   UNL     1      30.544 -22.383 -15.553  0.00  0.00    -0.002 C 
ATOM     33  C   UNL     1      29.224 -25.021 -15.026  0.00  0.00    -0.002 C 
ATOM     34  C   UNL     1      29.049 -22.436 -15.260  0.00  0.00    -0.000 C 
ATOM     35  C   UNL     1      28.403 -23.805 -15.439  0.00  0.00    -0.000 C 
ENDBRANCH  26  29
ENDBRANCH  25  26
ENDBRANCH   7  25
TORSDOF 7
ENDMDL
MODEL 2
REMARK VINA RESULT:     -11.7      2.329      6.314
REMARK  Name = 25113614
REMARK  7 active torsions:
REMARK  status: ('A' for Active; 'I' for Inactive)
REMARK    1  A    between atoms: C_3  and  C_10
REMARK    2  A    between atoms: C_7  and  C_25
REMARK    3  A    between atoms: N_9  and  C_12
REMARK    4  A    between atoms: C_12  and  C_13
REMARK    5  A    between atoms: C_18  and  C_21
REMARK    6  A    between atoms: C_25  and  N_26
REMARK    7  A    between atoms: N_26  and  C_29
REMARK                            x       y       z     vdW  Elec       q    Type
REMARK                         _______ _______ _______ _____ _____    ______ ____
ROOT
ATOM      1  O   UNL     1      38.264 -22.158 -15.700  0.00  0.00    -0.277 OA
ATOM      2  N   UNL     1      36.917 -23.874 -14.939  0.00  0.00    -0.275 N 
ATOM      3  C   UNL     1      35.682 -24.655 -14.922  0.00  0.00    +0.152 C 
ATOM      4  C   UNL     1      36.112 -26.039 -14.444  0.00  0.00    +0.031 C 
ATOM      5  C   UNL     1      37.991 -24.579 -14.252  0.00  0.00    +0.094 C 
ATOM      6  C   UNL     1      37.315 -25.747 -13.551  0.00  0.00    +0.024 C 
ATOM      7  C   UNL     1      37.156 -22.693 -15.622  0.00  0.00    +0.204 C 
ENDROOT
BRANCH   3  10
ATOM      8  O   UNL     1      35.124 -23.166 -13.141  0.00  0.00    -0.273 OA
ATOM      9  N   UNL     1      33.461 -24.529 -14.034  0.00  0.00    -0.299 N 
ATOM     10  C   UNL     1      34.746 -24.022 -13.938  0.00  0.00    +0.241 C 
ATOM     11  H   UNL     1      33.279 -25.215 -14.717  0.00  0.00    +0.150 HD
BRANCH   9  12
ATOM     12  C   UNL     1      32.375 -24.101 -13.183  0.00  0.00    +0.116 C 
BRANCH  12  13
ATOM     13  C   UNL     1      31.136 -23.787 -13.968  0.00  0.00    -0.003 C 
ATOM     14  C   UNL     1      30.024 -24.626 -13.881  0.00  0.00    -0.003 C 
ATOM     15  C   UNL     1      31.094 -22.659 -14.787  0.00  0.00    -0.003 C 
ATOM     16  C   UNL     1      28.873 -24.336 -14.613  0.00  0.00    +0.002 C 
ATOM     17  C   UNL     1      29.943 -22.369 -15.518  0.00  0.00    +0.002 C 
ATOM     18  C   UNL     1      28.831 -23.207 -15.431  0.00  0.00    +0.031 C 
BRANCH  18  21
ATOM     19  N   UNL     1      26.673 -22.013 -15.714  0.00  0.00    -0.343 N 
ATOM     20  N   UNL     1      27.429 -23.487 -17.362  0.00  0.00    -0.285 NA
ATOM     21  C   UNL     1      27.630 -22.905 -16.192  0.00  0.00    +0.117 C 
ATOM     22  H   UNL     1      25.867 -21.823 -16.247  0.00  0.00    +0.144 HD
ATOM     23  H   UNL     1      26.803 -21.572 -14.844  0.00  0.00    +0.144 HD
ATOM     24  H   UNL     1      26.617 -23.284 -17.879  0.00  0.00    +0.188 HD
ENDBRANCH  18  21
ENDBRANCH  12  13
ENDBRANCH   9  12
ENDBRANCH   3  10
BRANCH   7  25
ATOM     25  C   UNL     1      35.963 -22.062 -16.293  0.00  0.00    +0.006 C 
BRANCH  25  26
ATOM     26  N   UNL     1      36.457 -21.353 -17.461  0.00  0.00    +0.391 N 
ATOM     27  H   UNL     1      36.584 -20.368 -17.227  0.00  0.00    -0.084 HD
ATOM     28  H   UNL     1      37.346 -21.764 -17.745  0.00  0.00    -0.084 HD
BRANCH  26  29
ATOM     29  C   UNL     1      35.505 -21.466 -18.573  0.00  0.00    -0.061 C 
ATOM     30  C   UNL     1      35.734 -20.278 -19.514  0.00  0.00    -0.021 C 
ATOM     31  C   UNL     1      34.086 -21.564 -17.996  0.00  0.00    -0.021 C 
ATOM     32  C   UNL     1      34.777 -20.192 -20.703  0.00  0.00    -0.002 C 
ATOM     33  C   UNL     1      33.051 -21.988 -19.037  0.00  0.00    -0.002 C 
ATOM     34  C   UNL     1      33.379 -19.737 -20.301  0.00  0.00    -0.000 C 
ATOM     35  C   UNL     1      32.441 -20.851 -19.850  0.00  0.00    -0.000 C 
ENDBRANCH  26  29
ENDBRANCH  25  26
ENDBRANCH   7  25
TORSDOF 7
ENDMDL
MODEL 3
REMARK VINA RESULT:     -11.4      1.521      2.425
REMARK  Name = 25113614
REMARK  7 active torsions:
REMARK  status: ('A' for Active; 'I' for Inactive)
REMARK    1  A    between atoms: C_3  and  C_10
REMARK    2  A    between atoms: C_7  and  C_25
REMARK    3  A    between atoms: N_9  and  C_12
REMARK    4  A    between atoms: C_12  and  C_13
REMARK    5  A    between atoms: C_18  and  C_21
REMARK    6  A    between atoms: C_25  and  N_26
REMARK    7  A    between atoms: N_26  and  C_29
REMARK                            x       y       z     vdW  Elec       q    Type
REMARK                         _______ _______ _______ _____ _____    ______ ____
ROOT
ATOM      1  O   UNL     1      34.679 -24.397 -13.453  0.00  0.00    -0.277 OA
ATOM      2  N   UNL     1      35.641 -22.904 -14.931  0.00  0.00    -0.275 N 
ATOM      3  C   UNL     1      35.641 -21.691 -15.746  0.00  0.00    +0.152 C 
ATOM      4  C   UNL     1      37.114 -21.312 -15.866  0.00  0.00    +0.031 C 
ATOM      5  C   UNL     1      36.988 -23.439 -14.787  0.00  0.00    +0.094 C 
ATOM      6  C   UNL     1      37.833 -22.657 -15.779  0.00  0.00    +0.024 C 
ATOM      7  C   UNL     1      34.575 -23.446 -14.230  0.00  0.00    +0.204 C 
ENDROOT
BRANCH   3  10
ATOM      8  O   UNL     1      34.201 -22.892 -17.225  0.00  0.00    -0.273 OA
ATOM      9  N   UNL     1      35.653 -21.302 -18.109  0.00  0.00    -0.299 N 
ATOM     10  C   UNL     1      35.071 -22.036 -17.090  0.00  0.00    +0.241 C 
ATOM     11  H   UNL     1      36.343 -20.639 -17.874  0.00  0.00    +0.150 HD
BRANCH   9  12
ATOM     12  C   UNL     1      35.297 -21.459 -19.500  0.00  0.00    +0.116 C 
BRANCH  12  13
ATOM     13  C   UNL     1      35.138 -20.138 -20.193  0.00  0.00    -0.003 C 
ATOM     14  C   UNL     1      33.875 -19.714 -20.607  0.00  0.00    -0.003 C 
ATOM     15  C   UNL     1      36.254 -19.333 -20.426  0.00  0.00    -0.003 C 
ATOM     16  C   UNL     1      33.728 -18.487 -21.252  0.00  0.00    +0.002 C 
ATOM     17  C   UNL     1      36.107 -18.106 -21.071  0.00  0.00    +0.002 C 
ATOM     18  C   UNL     1      34.844 -17.682 -21.484  0.00  0.00    +0.031 C 
BRANCH  18  21
ATOM     19  N   UNL     1      34.267 -15.267 -21.469  0.00  0.00    -0.343 N 
ATOM     20  N   UNL     1      34.946 -16.303 -23.450  0.00  0.00    -0.285 NA
ATOM     21  C   UNL     1      34.689 -16.402 -22.157  0.00  0.00    +0.117 C 
ATOM     22  H   UNL     1      34.169 -14.410 -21.943  0.00  0.00    +0.144 HD
ATOM     23  H   UNL     1      34.067 -15.321 -20.506  0.00  0.00    +0.144 HD
ATOM     24  H   UNL     1      34.844 -15.438 -23.907  0.00  0.00    +0.188 HD
ENDBRANCH  18  21
ENDBRANCH  12  13
ENDBRANCH   9  12
ENDBRANCH   3  10
BRANCH   7  25
ATOM     25  C   UNL     1      33.232 -22.802 -14.463  0.00  0.00    +0.006 C 
BRANCH  25  26
ATOM     26  N   UNL     1      32.485 -22.916 -13.222  0.00  0.00    +0.391 N 
ATOM     27  H   UNL     1      32.822 -23.725 -12.700  0.00  0.00    -0.084 HD
ATOM     28  H   UNL     1      32.620 -22.064 -12.677  0.00  0.00    -0.084 HD
BRANCH  26  29
ATOM     29  C   UNL     1      31.053 -23.081 -13.497  0.00  0.00    -0.061 C 
ATOM     30  C   UNL     1      30.746 -24.583 -13.516  0.00  0.00    -0.021 C 
ATOM     31  C   UNL     1      30.713 -22.341 -14.799  0.00  0.00    -0.021 C 
ATOM     32  C   UNL     1      29.302 -24.951 -13.859  0.00  0.00    -0.002 C 
ATOM     33  C   UNL     1      29.209 -22.190 -15.020  0.00  0.00    -0.002 C 
ATOM     34  C   UNL     1      28.984 -24.763 -15.338  0.00  0.00    -0.000 C 
ATOM     35  C   UNL     1      28.534 -23.360 -15.729  0.00  0.00    -0.000 C 
ENDBRANCH  26  29
ENDBRANCH  25  26
ENDBRANCH   7  25
TORSDOF 7
ENDMDL
MODEL 4
REMARK VINA RESULT:     -10.8      7.777     12.340
REMARK  Name = 25113614
REMARK  7 active torsions:
REMARK  status: ('A' for Active; 'I' for Inactive)
REMARK    1  A    between atoms: C_3  and  C_10
REMARK    2  A    between atoms: C_7  and  C_25
REMARK    3  A    between atoms: N_9  and  C_12
REMARK    4  A    between atoms: C_12  and  C_13
REMARK    5  A    between atoms: C_18  and  C_21
REMARK    6  A    between atoms: C_25  and  N_26
REMARK    7  A    between atoms: N_26  and  C_29
REMARK                            x       y       z     vdW  Elec       q    Type
REMARK                         _______ _______ _______ _____ _____    ______ ____
ROOT
ATOM      1  O   UNL     1      33.580 -16.931 -24.638  0.00  0.00    -0.277 OA
ATOM      2  N   UNL     1      33.490 -14.655 -24.248  0.00  0.00    -0.275 N 
ATOM      3  C   UNL     1      33.882 -13.434 -23.548  0.00  0.00    +0.152 C 
ATOM      4  C   UNL     1      33.651 -12.320 -24.565  0.00  0.00    +0.031 C 
ATOM      5  C   UNL     1      32.787 -14.346 -25.486  0.00  0.00    +0.094 C 
ATOM      6  C   UNL     1      32.505 -12.854 -25.421  0.00  0.00    +0.024 C 
ATOM      7  C   UNL     1      33.834 -15.958 -23.925  0.00  0.00    +0.204 C 
ENDROOT
BRANCH   3  10
ATOM      8  O   UNL     1      32.982 -14.060 -21.427  0.00  0.00    -0.273 OA
ATOM      9  N   UNL     1      32.156 -12.158 -22.485  0.00  0.00    -0.299 N 
ATOM     10  C   UNL     1      32.976 -13.267 -22.365  0.00  0.00    +0.241 C 
ATOM     11  H   UNL     1      32.246 -11.595 -23.288  0.00  0.00    +0.150 HD
BRANCH   9  12
ATOM     12  C   UNL     1      31.177 -11.786 -21.490  0.00  0.00    +0.116 C 
BRANCH  12  13
ATOM     13  C   UNL     1      31.312 -10.350 -21.078  0.00  0.00    -0.003 C 
ATOM     14  C   UNL     1      31.578  -9.371 -22.036  0.00  0.00    -0.003 C 
ATOM     15  C   UNL     1      31.173  -9.992 -19.737  0.00  0.00    -0.003 C 
ATOM     16  C   UNL     1      31.705  -8.036 -21.654  0.00  0.00    +0.002 C 
ATOM     17  C   UNL     1      31.301  -8.657 -19.354  0.00  0.00    +0.002 C 
ATOM     18  C   UNL     1      31.566  -7.678 -20.312  0.00  0.00    +0.031 C 
BRANCH  18  21
ATOM     19  N   UNL     1      30.818  -5.312 -20.379  0.00  0.00    -0.343 N 
ATOM     20  N   UNL     1      32.673  -5.925 -19.097  0.00  0.00    -0.285 NA
ATOM     21  C   UNL     1      31.698  -6.287 -19.914  0.00  0.00    +0.117 C 
ATOM     22  H   UNL     1      30.926  -4.375 -20.097  0.00  0.00    +0.144 HD
ATOM     23  H   UNL     1      30.088  -5.560 -20.991  0.00  0.00    +0.144 HD
ATOM     24  H   UNL     1      32.764  -4.984 -18.826  0.00  0.00    +0.188 HD
ENDBRANCH  18  21
ENDBRANCH  12  13
ENDBRANCH   9  12
ENDBRANCH   3  10
BRANCH   7  25
ATOM     25  C   UNL     1      34.562 -16.146 -22.618  0.00  0.00    +0.006 C 
BRANCH  25  26
ATOM     26  N   UNL     1      35.178 -17.462 -22.660  0.00  0.00    +0.391 N 
ATOM     27  H   UNL     1      34.764 -18.002 -23.420  0.00  0.00    -0.084 HD
ATOM     28  H   UNL     1      36.180 -17.352 -22.811  0.00  0.00    -0.084 HD
BRANCH  26  29
ATOM     29  C   UNL     1      34.963 -18.170 -21.392  0.00  0.00    -0.061 C 
ATOM     30  C   UNL     1      36.321 -18.689 -20.906  0.00  0.00    -0.021 C 
ATOM     31  C   UNL     1      33.902 -19.258 -21.611  0.00  0.00    -0.021 C 
ATOM     32  C   UNL     1      36.282 -19.520 -19.622  0.00  0.00    -0.002 C 
ATOM     33  C   UNL     1      33.382 -19.850 -20.301  0.00  0.00    -0.002 C 
ATOM     34  C   UNL     1      35.711 -20.916 -19.843  0.00  0.00    -0.000 C 
ATOM     35  C   UNL     1      34.193 -21.016 -19.747  0.00  0.00    -0.000 C 
ENDBRANCH  26  29
ENDBRANCH  25  26
ENDBRANCH   7  25
TORSDOF 7
ENDMDL
MODEL 5
REMARK VINA RESULT:     -10.8      6.971     11.236
REMARK  Name = 25113614
REMARK  7 active torsions:
REMARK  status: ('A' for Active; 'I' for Inactive)
REMARK    1  A    between atoms: C_3  and  C_10
REMARK    2  A    between atoms: C_7  and  C_25
REMARK    3  A    between atoms: N_9  and  C_12
REMARK    4  A    between atoms: C_12  and  C_13
REMARK    5  A    between atoms: C_18  and  C_21
REMARK    6  A    between atoms: C_25  and  N_26
REMARK    7  A    between atoms: N_26  and  C_29
REMARK                            x       y       z     vdW  Elec       q    Type
REMARK                         _______ _______ _______ _____ _____    ______ ____
ROOT
ATOM      1  O   UNL     1      33.798 -18.004 -23.830  0.00  0.00    -0.277 OA
ATOM      2  N   UNL     1      33.853 -15.712 -23.537  0.00  0.00    -0.275 N 
ATOM      3  C   UNL     1      34.364 -14.486 -22.929  0.00  0.00    +0.152 C 
ATOM      4  C   UNL     1      34.098 -13.404 -23.972  0.00  0.00    +0.031 C 
ATOM      5  C   UNL     1      33.059 -15.418 -24.723  0.00  0.00    +0.094 C 
ATOM      6  C   UNL     1      32.856 -13.912 -24.701  0.00  0.00    +0.024 C 
ATOM      7  C   UNL     1      34.161 -17.017 -23.186  0.00  0.00    +0.204 C 
ENDROOT
BRANCH   3  10
ATOM      8  O   UNL     1      33.790 -14.836 -20.638  0.00  0.00    -0.273 OA
ATOM      9  N   UNL     1      32.605 -13.255 -21.869  0.00  0.00    -0.299 N 
ATOM     10  C   UNL     1      33.576 -14.223 -21.681  0.00  0.00    +0.241 C 
ATOM     11  H   UNL     1      32.530 -12.832 -22.756  0.00  0.00    +0.150 HD
BRANCH   9  12
ATOM     12  C   UNL     1      31.696 -12.834 -20.828  0.00  0.00    +0.116 C 
BRANCH  12  13
ATOM     13  C   UNL     1      31.595 -11.339 -20.741  0.00  0.00    -0.003 C 
ATOM     14  C   UNL     1      31.569 -10.712 -19.494  0.00  0.00    -0.003 C 
ATOM     15  C   UNL     1      31.525 -10.575 -21.906  0.00  0.00    -0.003 C 
ATOM     16  C   UNL     1      31.473  -9.324 -19.413  0.00  0.00    +0.002 C 
ATOM     17  C   UNL     1      31.429  -9.186 -21.825  0.00  0.00    +0.002 C 
ATOM     18  C   UNL     1      31.404  -8.560 -20.579  0.00  0.00    +0.031 C 
BRANCH  18  21
ATOM     19  N   UNL     1      30.862  -6.350 -21.572  0.00  0.00    -0.343 N 
ATOM     20  N   UNL     1      31.645  -6.494 -19.375  0.00  0.00    -0.285 NA
ATOM     21  C   UNL     1      31.305  -7.112 -20.494  0.00  0.00    +0.117 C 
ATOM     22  H   UNL     1      30.803  -5.370 -21.493  0.00  0.00    +0.144 HD
ATOM     23  H   UNL     1      30.608  -6.791 -22.415  0.00  0.00    +0.144 HD
ATOM     24  H   UNL     1      31.578  -5.514 -19.315  0.00  0.00    +0.188 HD
ENDBRANCH  18  21
ENDBRANCH  12  13
ENDBRANCH   9  12
ENDBRANCH   3  10
BRANCH   7  25
ATOM     25  C   UNL     1      34.992 -17.189 -21.940  0.00  0.00    +0.006 C 
BRANCH  25  26
ATOM     26  N   UNL     1      35.352 -18.595 -21.860  0.00  0.00    +0.391 N 
ATOM     27  H   UNL     1      34.979 -19.084 -22.674  0.00  0.00    -0.084 HD
ATOM     28  H   UNL     1      36.368 -18.674 -21.837  0.00  0.00    -0.084 HD
BRANCH  26  29
ATOM     29  C   UNL     1      34.801 -19.198 -20.640  0.00  0.00    -0.061 C 
ATOM     30  C   UNL     1      35.832 -20.195 -20.100  0.00  0.00    -0.021 C 
ATOM     31  C   UNL     1      33.431 -19.807 -20.969  0.00  0.00    -0.021 C 
ATOM     32  C   UNL     1      35.398 -20.977 -18.859  0.00  0.00    -0.002 C 
ATOM     33  C   UNL     1      32.637 -20.189 -19.720  0.00  0.00    -0.002 C 
ATOM     34  C   UNL     1      34.368 -22.055 -19.176  0.00  0.00    -0.000 C 
ATOM     35  C   UNL     1      32.917 -21.585 -19.172  0.00  0.00    -0.000 C 
ENDBRANCH  26  29
ENDBRANCH  25  26
ENDBRANCH   7  25
TORSDOF 7
ENDMDL
MODEL 6
REMARK VINA RESULT:     -10.3      2.990      5.749
REMARK  Name = 25113614
REMARK  7 active torsions:
REMARK  status: ('A' for Active; 'I' for Inactive)
REMARK    1  A    between atoms: C_3  and  C_10
REMARK    2  A    between atoms: C_7  and  C_25
REMARK    3  A    between atoms: N_9  and  C_12
REMARK    4  A    between atoms: C_12  and  C_13
REMARK    5  A    between atoms: C_18  and  C_21
REMARK    6  A    between atoms: C_25  and  N_26
REMARK    7  A    between atoms: N_26  and  C_29
REMARK                            x       y       z     vdW  Elec       q    Type
REMARK                         _______ _______ _______ _____ _____    ______ ____
ROOT
ATOM      1  O   UNL     1      33.747 -22.460 -15.094  0.00  0.00    -0.277 OA
ATOM      2  N   UNL     1      34.028 -22.142 -17.365  0.00  0.00    -0.275 N 
ATOM      3  C   UNL     1      34.790 -22.220 -18.609  0.00  0.00    +0.152 C 
ATOM      4  C   UNL     1      33.729 -22.296 -19.703  0.00  0.00    +0.031 C 
ATOM      5  C   UNL     1      32.619 -21.884 -17.629  0.00  0.00    +0.094 C 
ATOM      6  C   UNL     1      32.550 -21.530 -19.105  0.00  0.00    +0.024 C 
ATOM      7  C   UNL     1      34.480 -22.415 -16.084  0.00  0.00    +0.204 C 
ENDROOT
BRANCH   3  10
ATOM      8  O   UNL     1      36.319 -20.558 -17.833  0.00  0.00    -0.273 OA
ATOM      9  N   UNL     1      35.400 -20.338 -19.960  0.00  0.00    -0.299 N 
ATOM     10  C   UNL     1      35.595 -20.961 -18.740  0.00  0.00    +0.241 C 
ATOM     11  H   UNL     1      34.792 -20.762 -20.610  0.00  0.00    +0.150 HD
BRANCH   9  12
ATOM     12  C   UNL     1      36.042 -19.098 -20.327  0.00  0.00    +0.116 C 
BRANCH  12  13
ATOM     13  C   UNL     1      35.311 -18.391 -21.431  0.00  0.00    -0.003 C 
ATOM     14  C   UNL     1      34.701 -19.127 -22.448  0.00  0.00    -0.003 C 
ATOM     15  C   UNL     1      35.242 -16.998 -21.442  0.00  0.00    -0.003 C 
ATOM     16  C   UNL     1      34.024 -18.471 -23.474  0.00  0.00    +0.002 C 
ATOM     17  C   UNL     1      34.564 -16.341 -22.469  0.00  0.00    +0.002 C 
ATOM     18  C   UNL     1      33.954 -17.077 -23.485  0.00  0.00    +0.031 C 
BRANCH  18  21
ATOM     19  N   UNL     1      33.537 -15.074 -24.891  0.00  0.00    -0.343 N 
ATOM     20  N   UNL     1      32.301 -17.027 -25.228  0.00  0.00    -0.285 NA
ATOM     21  C   UNL     1      33.246 -16.394 -24.555  0.00  0.00    +0.117 C 
ATOM     22  H   UNL     1      33.046 -14.630 -25.619  0.00  0.00    +0.144 HD
ATOM     23  H   UNL     1      34.235 -14.584 -24.399  0.00  0.00    +0.144 HD
ATOM     24  H   UNL     1      31.821 -16.567 -25.954  0.00  0.00    +0.188 HD
ENDBRANCH  18  21
ENDBRANCH  12  13
ENDBRANCH   9  12
ENDBRANCH   3  10
BRANCH   7  25
ATOM     25  C   UNL     1      35.960 -22.667 -15.942  0.00  0.00    +0.006 C 
BRANCH  25  26
ATOM     26  N   UNL     1      36.420 -21.873 -14.815  0.00  0.00    +0.391 N 
ATOM     27  H   UNL     1      37.040 -21.137 -15.154  0.00  0.00    -0.084 HD
ATOM     28  H   UNL     1      35.611 -21.464 -14.347  0.00  0.00    -0.084 HD
BRANCH  26  29
ATOM     29  C   UNL     1      37.147 -22.714 -13.857  0.00  0.00    -0.061 C 
ATOM     30  C   UNL     1      37.769 -23.883 -14.630  0.00  0.00    -0.021 C 
ATOM     31  C   UNL     1      36.183 -23.128 -12.735  0.00  0.00    -0.021 C 
ATOM     32  C   UNL     1      38.513 -24.910 -13.777  0.00  0.00    -0.002 C 
ATOM     33  C   UNL     1      36.900 -23.746 -11.535  0.00  0.00    -0.002 C 
ATOM     34  C   UNL     1      37.571 -25.804 -12.979  0.00  0.00    -0.000 C 
ATOM     35  C   UNL     1      37.144 -25.248 -11.625  0.00  0.00    -0.000 C 
ENDBRANCH  26  29
ENDBRANCH  25  26
ENDBRANCH   7  25
TORSDOF 7
ENDMDL
MODEL 7
REMARK VINA RESULT:     -10.1      6.325     10.615
REMARK  Name = 25113614
REMARK  7 active torsions:
REMARK  status: ('A' for Active; 'I' for Inactive)
REMARK    1  A    between atoms: C_3  and  C_10
REMARK    2  A    between atoms: C_7  and  C_25
REMARK    3  A    between atoms: N_9  and  C_12
REMARK    4  A    between atoms: C_12  and  C_13
REMARK    5  A    between atoms: C_18  and  C_21
REMARK    6  A    between atoms: C_25  and  N_26
REMARK    7  A    between atoms: N_26  and  C_29
REMARK                            x       y       z     vdW  Elec       q    Type
REMARK                         _______ _______ _______ _____ _____    ______ ____
ROOT
ATOM      1  O   UNL     1      33.411 -19.004 -23.860  0.00  0.00    -0.277 OA
ATOM      2  N   UNL     1      33.937 -16.761 -23.681  0.00  0.00    -0.275 N 
ATOM      3  C   UNL     1      34.727 -15.642 -23.172  0.00  0.00    +0.152 C 
ATOM      4  C   UNL     1      34.591 -14.562 -24.241  0.00  0.00    +0.031 C 
ATOM      5  C   UNL     1      33.117 -16.351 -24.813  0.00  0.00    +0.094 C 
ATOM      6  C   UNL     1      33.216 -14.835 -24.846  0.00  0.00    +0.024 C 
ATOM      7  C   UNL     1      34.013 -18.089 -23.294  0.00  0.00    +0.204 C 
ENDROOT
BRANCH   3  10
ATOM      8  O   UNL     1      34.376 -15.738 -20.813  0.00  0.00    -0.273 OA
ATOM      9  N   UNL     1      33.239 -14.133 -22.058  0.00  0.00    -0.299 N 
ATOM     10  C   UNL     1      34.115 -15.190 -21.881  0.00  0.00    +0.241 C 
ATOM     11  H   UNL     1      33.113 -13.777 -22.968  0.00  0.00    +0.150 HD
BRANCH   9  12
ATOM     12  C   UNL     1      32.502 -13.526 -20.973  0.00  0.00    +0.116 C 
BRANCH  12  13
ATOM     13  C   UNL     1      32.111 -12.110 -21.283  0.00  0.00    -0.003 C 
ATOM     14  C   UNL     1      32.326 -11.590 -22.560  0.00  0.00    -0.003 C 
ATOM     15  C   UNL     1      31.534 -11.313 -20.294  0.00  0.00    -0.003 C 
ATOM     16  C   UNL     1      31.965 -10.275 -22.846  0.00  0.00    +0.002 C 
ATOM     17  C   UNL     1      31.173  -9.998 -20.581  0.00  0.00    +0.002 C 
ATOM     18  C   UNL     1      31.387  -9.478 -21.857  0.00  0.00    +0.031 C 
BRANCH  18  21
ATOM     19  N   UNL     1      31.166  -7.088 -21.220  0.00  0.00    -0.343 N 
ATOM     20  N   UNL     1      30.502  -7.808 -23.342  0.00  0.00    -0.285 NA
ATOM     21  C   UNL     1      31.010  -8.106 -22.158  0.00  0.00    +0.117 C 
ATOM     22  H   UNL     1      30.905  -6.166 -21.444  0.00  0.00    +0.144 HD
ATOM     23  H   UNL     1      31.539  -7.291 -20.332  0.00  0.00    +0.144 HD
ATOM     24  H   UNL     1      30.247  -6.880 -23.548  0.00  0.00    +0.188 HD
ENDBRANCH  18  21
ENDBRANCH  12  13
ENDBRANCH   9  12
ENDBRANCH   3  10
BRANCH   7  25
ATOM     25  C   UNL     1      34.897 -18.385 -22.109  0.00  0.00    +0.006 C 
BRANCH  25  26
ATOM     26  N   UNL     1      34.021 -18.663 -20.983  0.00  0.00    +0.391 N 
ATOM     27  H   UNL     1      34.185 -17.971 -20.251  0.00  0.00    -0.084 HD
ATOM     28  H   UNL     1      33.052 -18.617 -21.300  0.00  0.00    -0.084 HD
BRANCH  26  29
ATOM     29  C   UNL     1      34.282 -20.004 -20.448  0.00  0.00    -0.061 C 
ATOM     30  C   UNL     1      33.000 -20.500 -19.769  0.00  0.00    -0.021 C 
ATOM     31  C   UNL     1      35.509 -19.936 -19.528  0.00  0.00    -0.021 C 
ATOM     32  C   UNL     1      33.106 -21.865 -19.087  0.00  0.00    -0.002 C 
ATOM     33  C   UNL     1      36.052 -21.317 -19.160  0.00  0.00    -0.002 C 
ATOM     34  C   UNL     1      33.898 -21.811 -17.786  0.00  0.00    -0.000 C 
ATOM     35  C   UNL     1      35.407 -21.965 -17.940  0.00  0.00    -0.000 C 
ENDBRANCH  26  29
ENDBRANCH  25  26
ENDBRANCH   7  25
TORSDOF 7
ENDMDL
MODEL 8
REMARK VINA RESULT:     -10.1      1.597      2.384
REMARK  Name = 25113614
REMARK  7 active torsions:
REMARK  status: ('A' for Active; 'I' for Inactive)
REMARK    1  A    between atoms: C_3  and  C_10
REMARK    2  A    between atoms: C_7  and  C_25
REMARK    3  A    between atoms: N_9  and  C_12
REMARK    4  A    between atoms: C_12  and  C_13
REMARK    5  A    between atoms: C_18  and  C_21
REMARK    6  A    between atoms: C_25  and  N_26
REMARK    7  A    between atoms: N_26  and  C_29
REMARK                            x       y       z     vdW  Elec       q    Type
REMARK                         _______ _______ _______ _____ _____    ______ ____
ROOT
ATOM      1  O   UNL     1      32.927 -24.554 -12.373  0.00  0.00    -0.277 OA
ATOM      2  N   UNL     1      35.049 -23.653 -12.521  0.00  0.00    -0.275 N 
ATOM      3  C   UNL     1      36.008 -22.635 -12.942  0.00  0.00    +0.152 C 
ATOM      4  C   UNL     1      37.136 -22.725 -11.917  0.00  0.00    +0.031 C 
ATOM      5  C   UNL     1      35.625 -24.528 -11.509  0.00  0.00    +0.094 C 
ATOM      6  C   UNL     1      37.107 -24.190 -11.488  0.00  0.00    +0.024 C 
ATOM      7  C   UNL     1      33.712 -23.746 -12.873  0.00  0.00    +0.204 C 
ENDROOT
BRANCH   3  10
ATOM      8  O   UNL     1      36.756 -24.164 -14.616  0.00  0.00    -0.273 OA
ATOM      9  N   UNL     1      36.652 -21.895 -15.127  0.00  0.00    -0.299 N 
ATOM     10  C   UNL     1      36.505 -23.001 -14.308  0.00  0.00    +0.241 C 
ATOM     11  H   UNL     1      36.416 -21.010 -14.765  0.00  0.00    +0.150 HD
BRANCH   9  12
ATOM     12  C   UNL     1      37.137 -21.975 -16.486  0.00  0.00    +0.116 C 
BRANCH  12  13
ATOM     13  C   UNL     1      36.089 -21.567 -17.480  0.00  0.00    -0.003 C 
ATOM     14  C   UNL     1      36.427 -20.734 -18.547  0.00  0.00    -0.003 C 
ATOM     15  C   UNL     1      34.777 -22.020 -17.338  0.00  0.00    -0.003 C 
ATOM     16  C   UNL     1      35.454 -20.353 -19.470  0.00  0.00    +0.002 C 
ATOM     17  C   UNL     1      33.804 -21.639 -18.261  0.00  0.00    +0.002 C 
ATOM     18  C   UNL     1      34.142 -20.806 -19.328  0.00  0.00    +0.031 C 
BRANCH  18  21
ATOM     19  N   UNL     1      33.435 -19.583 -21.370  0.00  0.00    -0.343 N 
ATOM     20  N   UNL     1      31.883 -20.832 -20.148  0.00  0.00    -0.285 NA
ATOM     21  C   UNL     1      33.128 -20.410 -20.291  0.00  0.00    +0.117 C 
ATOM     22  H   UNL     1      32.733 -19.327 -22.011  0.00  0.00    +0.144 HD
ATOM     23  H   UNL     1      34.355 -19.255 -21.492  0.00  0.00    +0.144 HD
ATOM     24  H   UNL     1      31.195 -20.566 -20.799  0.00  0.00    +0.188 HD
ENDBRANCH  18  21
ENDBRANCH  12  13
ENDBRANCH   9  12
ENDBRANCH   3  10
BRANCH   7  25
ATOM     25  C   UNL     1      33.237 -22.783 -13.931  0.00  0.00    +0.006 C 
BRANCH  25  26
ATOM     26  N   UNL     1      32.510 -23.561 -14.919  0.00  0.00    +0.391 N 
ATOM     27  H   UNL     1      32.863 -23.335 -15.850  0.00  0.00    -0.084 HD
ATOM     28  H   UNL     1      32.645 -24.553 -14.723  0.00  0.00    -0.084 HD
BRANCH  26  29
ATOM     29  C   UNL     1      31.075 -23.256 -14.861  0.00  0.00    -0.061 C 
ATOM     30  C   UNL     1      30.333 -24.547 -14.500  0.00  0.00    -0.021 C 
ATOM     31  C   UNL     1      30.652 -22.624 -16.194  0.00  0.00    -0.021 C 
ATOM     32  C   UNL     1      28.808 -24.436 -14.461  0.00  0.00    -0.002 C 
ATOM     33  C   UNL     1      29.262 -21.992 -16.136  0.00  0.00    -0.002 C 
ATOM     34  C   UNL     1      28.190 -24.347 -15.852  0.00  0.00    -0.000 C 
ATOM     35  C   UNL     1      28.104 -22.939 -16.432  0.00  0.00    -0.000 C 
ENDBRANCH  26  29
ENDBRANCH  25  26
ENDBRANCH   7  25
TORSDOF 7
ENDMDL
MODEL 9
REMARK VINA RESULT:     -10.0      1.823      2.952
REMARK  Name = 25113614
REMARK  7 active torsions:
REMARK  status: ('A' for Active; 'I' for Inactive)
REMARK    1  A    between atoms: C_3  and  C_10
REMARK    2  A    between atoms: C_7  and  C_25
REMARK    3  A    between atoms: N_9  and  C_12
REMARK    4  A    between atoms: C_12  and  C_13
REMARK    5  A    between atoms: C_18  and  C_21
REMARK    6  A    between atoms: C_25  and  N_26
REMARK    7  A    between atoms: N_26  and  C_29
REMARK                            x       y       z     vdW  Elec       q    Type
REMARK                         _______ _______ _______ _____ _____    ______ ____
ROOT
ATOM      1  O   UNL     1      35.307 -26.306 -15.413  0.00  0.00    -0.277 OA
ATOM      2  N   UNL     1      36.483 -24.990 -13.922  0.00  0.00    -0.275 N 
ATOM      3  C   UNL     1      36.606 -23.894 -12.964  0.00  0.00    +0.152 C 
ATOM      4  C   UNL     1      37.752 -24.315 -12.048  0.00  0.00    +0.031 C 
ATOM      5  C   UNL     1      37.625 -25.891 -13.837  0.00  0.00    +0.094 C 
ATOM      6  C   UNL     1      38.632 -25.172 -12.955  0.00  0.00    +0.024 C 
ATOM      7  C   UNL     1      35.394 -25.286 -14.726  0.00  0.00    +0.204 C 
ENDROOT
BRANCH   3  10
ATOM      8  O   UNL     1      37.045 -21.557 -13.173  0.00  0.00    -0.273 OA
ATOM      9  N   UNL     1      37.159 -22.899 -15.071  0.00  0.00    -0.299 N 
ATOM     10  C   UNL     1      36.964 -22.652 -13.723  0.00  0.00    +0.241 C 
ATOM     11  H   UNL     1      37.066 -23.824 -15.396  0.00  0.00    +0.150 HD
BRANCH   9  12
ATOM     12  C   UNL     1      37.491 -21.866 -16.025  0.00  0.00    +0.116 C 
BRANCH  12  13
ATOM     13  C   UNL     1      36.375 -21.619 -16.998  0.00  0.00    -0.003 C 
ATOM     14  C   UNL     1      35.123 -22.197 -16.785  0.00  0.00    -0.003 C 
ATOM     15  C   UNL     1      36.589 -20.813 -18.116  0.00  0.00    -0.003 C 
ATOM     16  C   UNL     1      34.087 -21.969 -17.689  0.00  0.00    +0.002 C 
ATOM     17  C   UNL     1      35.553 -20.585 -19.021  0.00  0.00    +0.002 C 
ATOM     18  C   UNL     1      34.301 -21.162 -18.808  0.00  0.00    +0.031 C 
BRANCH  18  21
ATOM     19  N   UNL     1      33.359 -20.024 -20.803  0.00  0.00    -0.343 N 
ATOM     20  N   UNL     1      32.073 -21.568 -19.611  0.00  0.00    -0.285 NA
ATOM     21  C   UNL     1      33.220 -20.925 -19.750  0.00  0.00    +0.117 C 
ATOM     22  H   UNL     1      32.614 -19.878 -21.430  0.00  0.00    +0.144 HD
ATOM     23  H   UNL     1      34.204 -19.532 -20.921  0.00  0.00    +0.144 HD
ATOM     24  H   UNL     1      31.340 -21.410 -20.248  0.00  0.00    +0.188 HD
ENDBRANCH  18  21
ENDBRANCH  12  13
ENDBRANCH   9  12
ENDBRANCH   3  10
BRANCH   7  25
ATOM     25  C   UNL     1      34.275 -24.276 -14.726  0.00  0.00    +0.006 C 
BRANCH  25  26
ATOM     26  N   UNL     1      33.347 -24.669 -13.679  0.00  0.00    +0.391 N 
ATOM     27  H   UNL     1      33.176 -25.673 -13.742  0.00  0.00    -0.084 HD
ATOM     28  H   UNL     1      33.754 -24.437 -12.773  0.00  0.00    -0.084 HD
BRANCH  26  29
ATOM     29  C   UNL     1      32.074 -23.952 -13.825  0.00  0.00    -0.061 C 
ATOM     30  C   UNL     1      30.948 -24.896 -13.389  0.00  0.00    -0.021 C 
ATOM     31  C   UNL     1      31.960 -23.442 -15.269  0.00  0.00    -0.021 C 
ATOM     32  C   UNL     1      29.532 -24.339 -13.540  0.00  0.00    -0.002 C 
ATOM     33  C   UNL     1      30.829 -22.431 -15.452  0.00  0.00    -0.002 C 
ATOM     34  C   UNL     1      29.071 -24.293 -14.992  0.00  0.00    -0.000 C 
ATOM     35  C   UNL     1      29.461 -23.031 -15.755  0.00  0.00    -0.000 C 
ENDBRANCH  26  29
ENDBRANCH  25  26
ENDBRANCH   7  25
TORSDOF 7
ENDMDL
