MODEL 1
REMARK VINA RESULT:     -13.7      0.000      0.000
REMARK  Name = 11633167
REMARK  7 active torsions:
REMARK  status: ('A' for Active; 'I' for Inactive)
REMARK    1  A    between atoms: C_1  and  C_8
REMARK    2  A    between atoms: C_2  and  C_25
REMARK    3  A    between atoms: C_4  and  O_17
REMARK    4  A    between atoms: O_17  and  C_18
REMARK    5  A    between atoms: C_18  and  C_20
REMARK    6  A    between atoms: C_25  and  N_26
REMARK    7  A    between atoms: N_26  and  C_29
REMARK                            x       y       z     vdW  Elec       q    Type
REMARK                         _______ _______ _______ _____ _____    ______ ____
ROOT
ATOM      1  C   UNL     1      34.620 -19.793 -20.391  0.00  0.00    -0.000 C 
ATOM      2  C   UNL     1      33.702 -21.370 -18.810  0.00  0.00    +0.031 C 
ATOM      3  C   UNL     1      33.523 -20.473 -19.863  0.00  0.00    +0.000 C 
ATOM      4  C   UNL     1      34.975 -21.587 -18.287  0.00  0.00    +0.137 C 
ATOM      5  C   UNL     1      35.894 -20.009 -19.869  0.00  0.00    +0.003 C 
ATOM      6  C   UNL     1      36.072 -20.907 -18.816  0.00  0.00    +0.037 C 
ENDROOT
BRANCH   1   8
ATOM      7  N   UNL     1      34.594 -15.263 -22.426  0.00  0.00    -0.312 N 
ATOM      8  C   UNL     1      34.435 -18.861 -21.484  0.00  0.00    +0.001 C 
ATOM      9  C   UNL     1      34.459 -16.630 -22.348  0.00  0.00    +0.048 C 
ATOM     10  C   UNL     1      34.073 -17.078 -23.614  0.00  0.00    +0.015 C 
ATOM     11  C   UNL     1      34.648 -17.497 -21.265  0.00  0.00    +0.015 C 
ATOM     12  C   UNL     1      34.050 -19.336 -22.735  0.00  0.00    +0.000 C 
ATOM     13  C   UNL     1      33.865 -18.458 -23.810  0.00  0.00    +0.001 C 
ATOM     14  C   UNL     1      33.983 -15.933 -24.453  0.00  0.00    +0.017 C 
ATOM     15  C   UNL     1      34.307 -14.831 -23.694  0.00  0.00    +0.062 C 
ATOM     16  H   UNL     1      34.857 -14.678 -21.679  0.00  0.00    +0.152 HD
ENDBRANCH   1   8
BRANCH   4  17
ATOM     17  O   UNL     1      35.168 -22.459 -17.259  0.00  0.00    -0.469 OA
BRANCH  17  18
ATOM     18  C   UNL     1      36.054 -22.052 -16.219  0.00  0.00    +0.251 C 
BRANCH  18  20
ATOM     19  N   UNL     1      35.493 -24.242 -15.354  0.00  0.00    -0.244 NA
ATOM     20  C   UNL     1      36.398 -23.242 -15.373  0.00  0.00    +0.103 C 
ATOM     21  C   UNL     1      37.591 -23.251 -14.678  0.00  0.00    +0.018 C 
ATOM     22  C   UNL     1      37.879 -24.368 -13.903  0.00  0.00    +0.003 C 
ATOM     23  C   UNL     1      35.807 -25.312 -14.590  0.00  0.00    +0.099 C 
ATOM     24  C   UNL     1      36.975 -25.424 -13.853  0.00  0.00    +0.021 C 
ENDBRANCH  18  20
ENDBRANCH  17  18
ENDBRANCH   4  17
BRANCH   2  25
ATOM     25  C   UNL     1      32.517 -22.090 -18.256  0.00  0.00    +0.117 C 
BRANCH  25  26
ATOM     26  N   UNL     1      32.675 -22.410 -16.837  0.00  0.00    -0.327 N 
ATOM     27  H   UNL     1      33.584 -22.541 -16.482  0.00  0.00    +0.147 HD
BRANCH  26  29
ATOM     28  N   UNL     1      30.739 -22.851 -13.709  0.00  0.00    -0.228 NA
ATOM     29  C   UNL     1      31.612 -22.536 -15.972  0.00  0.00    +0.077 C 
ATOM     30  C   UNL     1      31.758 -22.722 -14.589  0.00  0.00    +0.139 C 
ATOM     31  C   UNL     1      30.288 -22.484 -16.444  0.00  0.00    +0.019 C 
ATOM     32  C   UNL     1      29.213 -22.612 -15.570  0.00  0.00    +0.022 C 
ATOM     33  C   UNL     1      29.491 -22.792 -14.224  0.00  0.00    +0.100 C 
ATOM     34  N   UNL     1      33.080 -22.779 -14.080  0.00  0.00    -0.342 N 
ATOM     35  H   UNL     1      33.230 -22.908 -13.116  0.00  0.00    +0.144 HD
ATOM     36  H   UNL     1      33.847 -22.690 -14.691  0.00  0.00    +0.144 HD
ENDBRANCH  26  29
ENDBRANCH  25  26
ENDBRANCH   2  25
TORSDOF 7
ENDMDL
MODEL 2
REMARK VINA RESULT:     -13.3      1.343      1.730
REMARK  Name = 11633167
REMARK  7 active torsions:
REMARK  status: ('A' for Active; 'I' for Inactive)
REMARK    1  A    between atoms: C_1  and  C_8
REMARK    2  A    between atoms: C_2  and  C_25
REMARK    3  A    between atoms: C_4  and  O_17
REMARK    4  A    between atoms: O_17  and  C_18
REMARK    5  A    between atoms: C_18  and  C_20
REMARK    6  A    between atoms: C_25  and  N_26
REMARK    7  A    between atoms: N_26  and  C_29
REMARK                            x       y       z     vdW  Elec       q    Type
REMARK                         _______ _______ _______ _____ _____    ______ ____
ROOT
ATOM      1  C   UNL     1      34.916 -20.467 -19.456  0.00  0.00    -0.000 C 
ATOM      2  C   UNL     1      33.803 -21.973 -17.930  0.00  0.00    +0.031 C 
ATOM      3  C   UNL     1      33.760 -21.125 -19.038  0.00  0.00    +0.000 C 
ATOM      4  C   UNL     1      35.001 -22.161 -17.243  0.00  0.00    +0.137 C 
ATOM      5  C   UNL     1      36.114 -20.654 -18.769  0.00  0.00    +0.003 C 
ATOM      6  C   UNL     1      36.158 -21.503 -17.662  0.00  0.00    +0.037 C 
ENDROOT
BRANCH   1   8
ATOM      7  N   UNL     1      32.925 -18.724 -23.658  0.00  0.00    -0.312 N 
ATOM      8  C   UNL     1      34.871 -19.586 -20.604  0.00  0.00    +0.001 C 
ATOM      9  C   UNL     1      33.816 -18.835 -22.615  0.00  0.00    +0.048 C 
ATOM     10  C   UNL     1      34.807 -17.871 -22.818  0.00  0.00    +0.015 C 
ATOM     11  C   UNL     1      33.821 -19.706 -21.519  0.00  0.00    +0.015 C 
ATOM     12  C   UNL     1      35.873 -18.635 -20.780  0.00  0.00    +0.000 C 
ATOM     13  C   UNL     1      35.856 -17.771 -21.881  0.00  0.00    +0.001 C 
ATOM     14  C   UNL     1      34.478 -17.179 -24.016  0.00  0.00    +0.017 C 
ATOM     15  C   UNL     1      33.316 -17.726 -24.511  0.00  0.00    +0.062 C 
ATOM     16  H   UNL     1      32.121 -19.281 -23.775  0.00  0.00    +0.152 HD
ENDBRANCH   1   8
BRANCH   4  17
ATOM     17  O   UNL     1      35.062 -22.985 -16.160  0.00  0.00    -0.469 OA
BRANCH  17  18
ATOM     18  C   UNL     1      36.142 -22.784 -15.251  0.00  0.00    +0.251 C 
BRANCH  18  20
ATOM     19  N   UNL     1      35.923 -25.194 -15.174  0.00  0.00    -0.244 NA
ATOM     20  C   UNL     1      36.572 -24.112 -14.699  0.00  0.00    +0.103 C 
ATOM     21  C   UNL     1      37.582 -24.153 -13.759  0.00  0.00    +0.018 C 
ATOM     22  C   UNL     1      37.956 -25.398 -13.268  0.00  0.00    +0.003 C 
ATOM     23  C   UNL     1      36.313 -26.387 -14.674  0.00  0.00    +0.099 C 
ATOM     24  C   UNL     1      37.315 -26.543 -13.729  0.00  0.00    +0.021 C 
ENDBRANCH  18  20
ENDBRANCH  17  18
ENDBRANCH   4  17
BRANCH   2  25
ATOM     25  C   UNL     1      32.557 -22.670 -17.496  0.00  0.00    +0.117 C 
BRANCH  25  26
ATOM     26  N   UNL     1      32.291 -22.494 -16.068  0.00  0.00    -0.327 N 
ATOM     27  H   UNL     1      32.801 -21.811 -15.575  0.00  0.00    +0.147 HD
BRANCH  26  29
ATOM     28  N   UNL     1      30.806 -24.854 -13.629  0.00  0.00    -0.228 NA
ATOM     29  C   UNL     1      31.361 -23.238 -15.380  0.00  0.00    +0.077 C 
ATOM     30  C   UNL     1      31.690 -24.107 -14.328  0.00  0.00    +0.139 C 
ATOM     31  C   UNL     1      29.994 -23.165 -15.704  0.00  0.00    +0.019 C 
ATOM     32  C   UNL     1      29.054 -23.918 -15.008  0.00  0.00    +0.022 C 
ATOM     33  C   UNL     1      29.508 -24.740 -13.988  0.00  0.00    +0.100 C 
ATOM     34  N   UNL     1      33.060 -24.206 -13.975  0.00  0.00    -0.342 N 
ATOM     35  H   UNL     1      33.337 -24.803 -13.243  0.00  0.00    +0.144 HD
ATOM     36  H   UNL     1      33.733 -23.677 -14.462  0.00  0.00    +0.144 HD
ENDBRANCH  26  29
ENDBRANCH  25  26
ENDBRANCH   2  25
TORSDOF 7
ENDMDL
MODEL 3
REMARK VINA RESULT:     -13.2      1.117      4.295
REMARK  Name = 11633167
REMARK  7 active torsions:
REMARK  status: ('A' for Active; 'I' for Inactive)
REMARK    1  A    between atoms: C_1  and  C_8
REMARK    2  A    between atoms: C_2  and  C_25
REMARK    3  A    between atoms: C_4  and  O_17
REMARK    4  A    between atoms: O_17  and  C_18
REMARK    5  A    between atoms: C_18  and  C_20
REMARK    6  A    between atoms: C_25  and  N_26
REMARK    7  A    between atoms: N_26  and  C_29
REMARK                            x       y       z     vdW  Elec       q    Type
REMARK                         _______ _______ _______ _____ _____    ______ ____
ROOT
ATOM      1  C   UNL     1      34.045 -19.830 -20.375  0.00  0.00    -0.000 C 
ATOM      2  C   UNL     1      35.171 -21.137 -18.686  0.00  0.00    +0.031 C 
ATOM      3  C   UNL     1      35.220 -20.212 -19.730  0.00  0.00    +0.000 C 
ATOM      4  C   UNL     1      33.949 -21.677 -18.289  0.00  0.00    +0.137 C 
ATOM      5  C   UNL     1      32.822 -20.369 -19.979  0.00  0.00    +0.003 C 
ATOM      6  C   UNL     1      32.774 -21.292 -18.934  0.00  0.00    +0.037 C 
ENDROOT
BRANCH   1   8
ATOM      7  N   UNL     1      34.518 -15.260 -22.263  0.00  0.00    -0.312 N 
ATOM      8  C   UNL     1      34.095 -18.871 -21.459  0.00  0.00    +0.001 C 
ATOM      9  C   UNL     1      34.337 -16.625 -22.246  0.00  0.00    +0.048 C 
ATOM     10  C   UNL     1      34.188 -17.036 -23.573  0.00  0.00    +0.015 C 
ATOM     11  C   UNL     1      34.296 -17.518 -21.169  0.00  0.00    +0.015 C 
ATOM     12  C   UNL     1      33.943 -19.309 -22.772  0.00  0.00    +0.000 C 
ATOM     13  C   UNL     1      33.986 -18.405 -23.840  0.00  0.00    +0.001 C 
ATOM     14  C   UNL     1      34.287 -15.872 -24.384  0.00  0.00    +0.017 C 
ATOM     15  C   UNL     1      34.488 -14.795 -23.551  0.00  0.00    +0.062 C 
ATOM     16  H   UNL     1      34.649 -14.699 -21.465  0.00  0.00    +0.152 HD
ENDBRANCH   1   8
BRANCH   4  17
ATOM     17  O   UNL     1      33.883 -22.580 -17.271  0.00  0.00    -0.469 OA
BRANCH  17  18
ATOM     18  C   UNL     1      32.765 -23.465 -17.261  0.00  0.00    +0.251 C 
BRANCH  18  20
ATOM     19  N   UNL     1      32.495 -23.650 -14.862  0.00  0.00    -0.244 NA
ATOM     20  C   UNL     1      31.957 -23.219 -16.021  0.00  0.00    +0.103 C 
ATOM     21  C   UNL     1      30.737 -22.581 -16.130  0.00  0.00    +0.018 C 
ATOM     22  C   UNL     1      30.013 -22.369 -14.963  0.00  0.00    +0.003 C 
ATOM     23  C   UNL     1      31.763 -23.426 -13.748  0.00  0.00    +0.099 C 
ATOM     24  C   UNL     1      30.529 -22.796 -13.744  0.00  0.00    +0.021 C 
ENDBRANCH  18  20
ENDBRANCH  17  18
ENDBRANCH   4  17
BRANCH   2  25
ATOM     25  C   UNL     1      36.438 -21.536 -18.005  0.00  0.00    +0.117 C 
BRANCH  25  26
ATOM     26  N   UNL     1      36.393 -21.298 -16.562  0.00  0.00    -0.327 N 
ATOM     27  H   UNL     1      36.039 -20.439 -16.238  0.00  0.00    +0.147 HD
BRANCH  26  29
ATOM     28  N   UNL     1      36.459 -23.492 -13.578  0.00  0.00    -0.228 NA
ATOM     29  C   UNL     1      36.822 -22.220 -15.635  0.00  0.00    +0.077 C 
ATOM     30  C   UNL     1      36.071 -22.593 -14.510  0.00  0.00    +0.139 C 
ATOM     31  C   UNL     1      38.071 -22.853 -15.771  0.00  0.00    +0.019 C 
ATOM     32  C   UNL     1      38.504 -23.785 -14.833  0.00  0.00    +0.022 C 
ATOM     33  C   UNL     1      37.668 -24.066 -13.765  0.00  0.00    +0.100 C 
ATOM     34  N   UNL     1      34.807 -21.973 -14.341  0.00  0.00    -0.342 N 
ATOM     35  H   UNL     1      34.246 -22.204 -13.567  0.00  0.00    +0.144 HD
ATOM     36  H   UNL     1      34.491 -21.312 -15.000  0.00  0.00    +0.144 HD
ENDBRANCH  26  29
ENDBRANCH  25  26
ENDBRANCH   2  25
TORSDOF 7
ENDMDL
MODEL 4
REMARK VINA RESULT:     -13.0      1.691      5.060
REMARK  Name = 11633167
REMARK  7 active torsions:
REMARK  status: ('A' for Active; 'I' for Inactive)
REMARK    1  A    between atoms: C_1  and  C_8
REMARK    2  A    between atoms: C_2  and  C_25
REMARK    3  A    between atoms: C_4  and  O_17
REMARK    4  A    between atoms: O_17  and  C_18
REMARK    5  A    between atoms: C_18  and  C_20
REMARK    6  A    between atoms: C_25  and  N_26
REMARK    7  A    between atoms: N_26  and  C_29
REMARK                            x       y       z     vdW  Elec       q    Type
REMARK                         _______ _______ _______ _____ _____    ______ ____
ROOT
ATOM      1  C   UNL     1      34.700 -21.211 -18.568  0.00  0.00    -0.000 C 
ATOM      2  C   UNL     1      35.505 -22.177 -16.507  0.00  0.00    +0.031 C 
ATOM      3  C   UNL     1      35.691 -21.322 -17.593  0.00  0.00    +0.000 C 
ATOM      4  C   UNL     1      34.330 -22.920 -16.397  0.00  0.00    +0.137 C 
ATOM      5  C   UNL     1      33.526 -21.953 -18.459  0.00  0.00    +0.003 C 
ATOM      6  C   UNL     1      33.340 -22.808 -17.372  0.00  0.00    +0.037 C 
ENDROOT
BRANCH   1   8
ATOM      7  N   UNL     1      33.242 -18.891 -22.711  0.00  0.00    -0.312 N 
ATOM      8  C   UNL     1      34.892 -20.323 -19.696  0.00  0.00    +0.001 C 
ATOM      9  C   UNL     1      34.073 -19.265 -21.679  0.00  0.00    +0.048 C 
ATOM     10  C   UNL     1      35.288 -18.601 -21.869  0.00  0.00    +0.015 C 
ATOM     11  C   UNL     1      33.846 -20.131 -20.604  0.00  0.00    +0.015 C 
ATOM     12  C   UNL     1      36.114 -19.674 -19.860  0.00  0.00    +0.000 C 
ATOM     13  C   UNL     1      36.327 -18.811 -20.941  0.00  0.00    +0.001 C 
ATOM     14  C   UNL     1      35.155 -17.816 -23.048  0.00  0.00    +0.017 C 
ATOM     15  C   UNL     1      33.886 -18.016 -23.544  0.00  0.00    +0.062 C 
ATOM     16  H   UNL     1      32.317 -19.207 -22.833  0.00  0.00    +0.152 HD
ENDBRANCH   1   8
BRANCH   4  17
ATOM     17  O   UNL     1      34.133 -23.760 -15.343  0.00  0.00    -0.469 OA
BRANCH  17  18
ATOM     18  C   UNL     1      33.594 -23.191 -14.152  0.00  0.00    +0.251 C 
BRANCH  18  20
ATOM     19  N   UNL     1      31.702 -24.657 -13.788  0.00  0.00    -0.244 NA
ATOM     20  C   UNL     1      32.111 -23.418 -14.128  0.00  0.00    +0.103 C 
ATOM     21  C   UNL     1      31.267 -22.372 -14.445  0.00  0.00    +0.018 C 
ATOM     22  C   UNL     1      29.898 -22.615 -14.413  0.00  0.00    +0.003 C 
ATOM     23  C   UNL     1      30.365 -24.856 -13.767  0.00  0.00    +0.099 C 
ATOM     24  C   UNL     1      29.430 -23.878 -14.068  0.00  0.00    +0.021 C 
ENDBRANCH  18  20
ENDBRANCH  17  18
ENDBRANCH   4  17
BRANCH   2  25
ATOM     25  C   UNL     1      36.575 -22.285 -15.471  0.00  0.00    +0.117 C 
BRANCH  25  26
ATOM     26  N   UNL     1      37.142 -23.632 -15.397  0.00  0.00    -0.327 N 
ATOM     27  H   UNL     1      37.524 -24.027 -16.214  0.00  0.00    +0.147 HD
BRANCH  26  29
ATOM     28  N   UNL     1      36.774 -26.476 -13.052  0.00  0.00    -0.228 NA
ATOM     29  C   UNL     1      37.167 -24.373 -14.238  0.00  0.00    +0.077 C 
ATOM     30  C   UNL     1      36.765 -25.715 -14.170  0.00  0.00    +0.139 C 
ATOM     31  C   UNL     1      37.610 -23.808 -13.028  0.00  0.00    +0.019 C 
ATOM     32  C   UNL     1      37.634 -24.558 -11.857  0.00  0.00    +0.022 C 
ATOM     33  C   UNL     1      37.210 -25.876 -11.922  0.00  0.00    +0.100 C 
ATOM     34  N   UNL     1      36.312 -26.317 -15.372  0.00  0.00    -0.342 N 
ATOM     35  H   UNL     1      36.020 -27.257 -15.371  0.00  0.00    +0.144 HD
ATOM     36  H   UNL     1      36.290 -25.794 -16.206  0.00  0.00    +0.144 HD
ENDBRANCH  26  29
ENDBRANCH  25  26
ENDBRANCH   2  25
TORSDOF 7
ENDMDL
MODEL 5
REMARK VINA RESULT:     -12.0      2.705      9.120
REMARK  Name = 11633167
REMARK  7 active torsions:
REMARK  status: ('A' for Active; 'I' for Inactive)
REMARK    1  A    between atoms: C_1  and  C_8
REMARK    2  A    between atoms: C_2  and  C_25
REMARK    3  A    between atoms: C_4  and  O_17
REMARK    4  A    between atoms: O_17  and  C_18
REMARK    5  A    between atoms: C_18  and  C_20
REMARK    6  A    between atoms: C_25  and  N_26
REMARK    7  A    between atoms: N_26  and  C_29
REMARK                            x       y       z     vdW  Elec       q    Type
REMARK                         _______ _______ _______ _____ _____    ______ ____
ROOT
ATOM      1  C   UNL     1      34.182 -23.702 -14.276  0.00  0.00    -0.000 C 
ATOM      2  C   UNL     1      32.574 -22.835 -15.855  0.00  0.00    +0.031 C 
ATOM      3  C   UNL     1      33.868 -23.265 -15.563  0.00  0.00    +0.000 C 
ATOM      4  C   UNL     1      31.596 -22.842 -14.862  0.00  0.00    +0.137 C 
ATOM      5  C   UNL     1      33.205 -23.709 -13.283  0.00  0.00    +0.003 C 
ATOM      6  C   UNL     1      31.910 -23.279 -13.575  0.00  0.00    +0.037 C 
ENDROOT
BRANCH   1   8
ATOM      7  N   UNL     1      38.996 -24.366 -15.302  0.00  0.00    -0.312 N 
ATOM      8  C   UNL     1      35.525 -24.148 -13.972  0.00  0.00    +0.001 C 
ATOM      9  C   UNL     1      37.823 -24.412 -14.583  0.00  0.00    +0.048 C 
ATOM     10  C   UNL     1      38.116 -25.020 -13.359  0.00  0.00    +0.015 C 
ATOM     11  C   UNL     1      36.539 -23.966 -14.917  0.00  0.00    +0.015 C 
ATOM     12  C   UNL     1      35.788 -24.751 -12.744  0.00  0.00    +0.000 C 
ATOM     13  C   UNL     1      37.077 -25.193 -12.423  0.00  0.00    +0.001 C 
ATOM     14  C   UNL     1      39.503 -25.334 -13.370  0.00  0.00    +0.017 C 
ATOM     15  C   UNL     1      40.017 -24.922 -14.578  0.00  0.00    +0.062 C 
ATOM     16  H   UNL     1      39.088 -23.988 -16.207  0.00  0.00    +0.152 HD
ENDBRANCH   1   8
BRANCH   4  17
ATOM     17  O   UNL     1      30.327 -22.425 -15.130  0.00  0.00    -0.469 OA
BRANCH  17  18
ATOM     18  C   UNL     1      29.379 -23.425 -15.497  0.00  0.00    +0.251 C 
BRANCH  18  20
ATOM     19  N   UNL     1      27.796 -22.834 -17.230  0.00  0.00    -0.244 NA
ATOM     20  C   UNL     1      28.102 -22.760 -15.919  0.00  0.00    +0.103 C 
ATOM     21  C   UNL     1      27.329 -22.125 -14.967  0.00  0.00    +0.018 C 
ATOM     22  C   UNL     1      26.153 -21.518 -15.391  0.00  0.00    +0.003 C 
ATOM     23  C   UNL     1      26.645 -22.233 -17.605  0.00  0.00    +0.099 C 
ATOM     24  C   UNL     1      25.796 -21.569 -16.734  0.00  0.00    +0.021 C 
ENDBRANCH  18  20
ENDBRANCH  17  18
ENDBRANCH   4  17
BRANCH   2  25
ATOM     25  C   UNL     1      32.254 -22.371 -17.237  0.00  0.00    +0.117 C 
BRANCH  25  26
ATOM     26  N   UNL     1      33.411 -22.442 -18.129  0.00  0.00    -0.327 N 
ATOM     27  H   UNL     1      33.963 -23.257 -18.119  0.00  0.00    +0.147 HD
BRANCH  26  29
ATOM     28  N   UNL     1      35.457 -19.918 -19.909  0.00  0.00    -0.228 NA
ATOM     29  C   UNL     1      33.766 -21.422 -18.983  0.00  0.00    +0.077 C 
ATOM     30  C   UNL     1      35.071 -20.918 -19.084  0.00  0.00    +0.139 C 
ATOM     31  C   UNL     1      32.811 -20.817 -19.820  0.00  0.00    +0.019 C 
ATOM     32  C   UNL     1      33.170 -19.786 -20.683  0.00  0.00    +0.022 C 
ATOM     33  C   UNL     1      34.495 -19.378 -20.688  0.00  0.00    +0.100 C 
ATOM     34  N   UNL     1      36.058 -21.505 -18.253  0.00  0.00    -0.342 N 
ATOM     35  H   UNL     1      36.987 -21.183 -18.291  0.00  0.00    +0.144 HD
ATOM     36  H   UNL     1      35.814 -22.235 -17.639  0.00  0.00    +0.144 HD
ENDBRANCH  26  29
ENDBRANCH  25  26
ENDBRANCH   2  25
TORSDOF 7
ENDMDL
MODEL 6
REMARK VINA RESULT:     -11.8      7.323     14.445
REMARK  Name = 11633167
REMARK  7 active torsions:
REMARK  status: ('A' for Active; 'I' for Inactive)
REMARK    1  A    between atoms: C_1  and  C_8
REMARK    2  A    between atoms: C_2  and  C_25
REMARK    3  A    between atoms: C_4  and  O_17
REMARK    4  A    between atoms: O_17  and  C_18
REMARK    5  A    between atoms: C_18  and  C_20
REMARK    6  A    between atoms: C_25  and  N_26
REMARK    7  A    between atoms: N_26  and  C_29
REMARK                            x       y       z     vdW  Elec       q    Type
REMARK                         _______ _______ _______ _____ _____    ______ ____
ROOT
ATOM      1  C   UNL     1      32.722 -12.829 -21.876  0.00  0.00    -0.000 C 
ATOM      2  C   UNL     1      32.073 -10.600 -22.542  0.00  0.00    +0.031 C 
ATOM      3  C   UNL     1      32.716 -11.806 -22.823  0.00  0.00    +0.000 C 
ATOM      4  C   UNL     1      31.438 -10.418 -21.314  0.00  0.00    +0.137 C 
ATOM      5  C   UNL     1      32.087 -12.648 -20.648  0.00  0.00    +0.003 C 
ATOM      6  C   UNL     1      31.444 -11.442 -20.367  0.00  0.00    +0.037 C 
ENDROOT
BRANCH   1   8
ATOM      7  N   UNL     1      34.976 -17.072 -20.621  0.00  0.00    -0.312 N 
ATOM      8  C   UNL     1      33.389 -14.081 -22.167  0.00  0.00    +0.001 C 
ATOM      9  C   UNL     1      34.457 -16.092 -21.436  0.00  0.00    +0.048 C 
ATOM     10  C   UNL     1      34.676 -16.498 -22.756  0.00  0.00    +0.015 C 
ATOM     11  C   UNL     1      33.817 -14.891 -21.111  0.00  0.00    +0.015 C 
ATOM     12  C   UNL     1      33.593 -14.459 -23.491  0.00  0.00    +0.000 C 
ATOM     13  C   UNL     1      34.235 -15.663 -23.802  0.00  0.00    +0.001 C 
ATOM     14  C   UNL     1      35.341 -17.753 -22.702  0.00  0.00    +0.017 C 
ATOM     15  C   UNL     1      35.514 -18.080 -21.377  0.00  0.00    +0.062 C 
ATOM     16  H   UNL     1      34.964 -17.052 -19.637  0.00  0.00    +0.152 HD
ENDBRANCH   1   8
BRANCH   4  17
ATOM     17  O   UNL     1      30.806  -9.247 -21.023  0.00  0.00    -0.469 OA
BRANCH  17  18
ATOM     18  C   UNL     1      31.445  -8.380 -20.088  0.00  0.00    +0.251 C 
BRANCH  18  20
ATOM     19  N   UNL     1      30.507  -6.760 -21.623  0.00  0.00    -0.244 NA
ATOM     20  C   UNL     1      31.329  -6.965 -20.574  0.00  0.00    +0.103 C 
ATOM     21  C   UNL     1      32.050  -5.975 -19.937  0.00  0.00    +0.018 C 
ATOM     22  C   UNL     1      31.921  -4.675 -20.412  0.00  0.00    +0.003 C 
ATOM     23  C   UNL     1      30.407  -5.484 -22.058  0.00  0.00    +0.099 C 
ATOM     24  C   UNL     1      31.085  -4.416 -21.492  0.00  0.00    +0.021 C 
ENDBRANCH  18  20
ENDBRANCH  17  18
ENDBRANCH   4  17
BRANCH   2  25
ATOM     25  C   UNL     1      32.075  -9.515 -23.567  0.00  0.00    +0.117 C 
BRANCH  25  26
ATOM     26  N   UNL     1      32.986  -8.424 -23.219  0.00  0.00    -0.327 N 
ATOM     27  H   UNL     1      33.663  -8.581 -22.522  0.00  0.00    +0.147 HD
BRANCH  26  29
ATOM     28  N   UNL     1      33.735  -4.881 -23.998  0.00  0.00    -0.228 NA
ATOM     29  C   UNL     1      32.940  -7.187 -23.820  0.00  0.00    +0.077 C 
ATOM     30  C   UNL     1      33.751  -6.109 -23.433  0.00  0.00    +0.139 C 
ATOM     31  C   UNL     1      32.053  -6.932 -24.881  0.00  0.00    +0.019 C 
ATOM     32  C   UNL     1      32.007  -5.681 -25.488  0.00  0.00    +0.022 C 
ATOM     33  C   UNL     1      32.861  -4.699 -25.013  0.00  0.00    +0.100 C 
ATOM     34  N   UNL     1      34.657  -6.331 -22.365  0.00  0.00    -0.342 N 
ATOM     35  H   UNL     1      35.246  -5.604 -22.061  0.00  0.00    +0.144 HD
ATOM     36  H   UNL     1      34.697  -7.213 -21.929  0.00  0.00    +0.144 HD
ENDBRANCH  26  29
ENDBRANCH  25  26
ENDBRANCH   2  25
TORSDOF 7
ENDMDL
MODEL 7
REMARK VINA RESULT:     -11.8      1.870      5.427
REMARK  Name = 11633167
REMARK  7 active torsions:
REMARK  status: ('A' for Active; 'I' for Inactive)
REMARK    1  A    between atoms: C_1  and  C_8
REMARK    2  A    between atoms: C_2  and  C_25
REMARK    3  A    between atoms: C_4  and  O_17
REMARK    4  A    between atoms: O_17  and  C_18
REMARK    5  A    between atoms: C_18  and  C_20
REMARK    6  A    between atoms: C_25  and  N_26
REMARK    7  A    between atoms: N_26  and  C_29
REMARK                            x       y       z     vdW  Elec       q    Type
REMARK                         _______ _______ _______ _____ _____    ______ ____
ROOT
ATOM      1  C   UNL     1      33.941 -21.394 -18.383  0.00  0.00    -0.000 C 
ATOM      2  C   UNL     1      34.588 -22.467 -16.319  0.00  0.00    +0.031 C 
ATOM      3  C   UNL     1      34.898 -21.642 -17.401  0.00  0.00    +0.000 C 
ATOM      4  C   UNL     1      33.321 -23.042 -16.222  0.00  0.00    +0.137 C 
ATOM      5  C   UNL     1      32.674 -21.969 -18.287  0.00  0.00    +0.003 C 
ATOM      6  C   UNL     1      32.364 -22.793 -17.205  0.00  0.00    +0.037 C 
ENDROOT
BRANCH   1   8
ATOM      7  N   UNL     1      37.022 -18.684 -21.181  0.00  0.00    -0.312 N 
ATOM      8  C   UNL     1      34.262 -20.538 -19.506  0.00  0.00    +0.001 C 
ATOM      9  C   UNL     1      35.843 -19.265 -20.772  0.00  0.00    +0.048 C 
ATOM     10  C   UNL     1      34.859 -18.885 -21.687  0.00  0.00    +0.015 C 
ATOM     11  C   UNL     1      35.575 -20.090 -19.673  0.00  0.00    +0.015 C 
ATOM     12  C   UNL     1      33.260 -20.175 -20.403  0.00  0.00    +0.000 C 
ATOM     13  C   UNL     1      33.542 -19.349 -21.497  0.00  0.00    +0.001 C 
ATOM     14  C   UNL     1      35.488 -18.058 -22.659  0.00  0.00    +0.017 C 
ATOM     15  C   UNL     1      36.818 -17.952 -22.320  0.00  0.00    +0.062 C 
ATOM     16  H   UNL     1      37.888 -18.781 -20.721  0.00  0.00    +0.152 HD
ENDBRANCH   1   8
BRANCH   4  17
ATOM     17  O   UNL     1      33.001 -23.850 -15.172  0.00  0.00    -0.469 OA
BRANCH  17  18
ATOM     18  C   UNL     1      32.185 -23.288 -14.147  0.00  0.00    +0.251 C 
BRANCH  18  20
ATOM     19  N   UNL     1      30.010 -22.725 -15.048  0.00  0.00    -0.244 NA
ATOM     20  C   UNL     1      30.753 -23.650 -14.408  0.00  0.00    +0.103 C 
ATOM     21  C   UNL     1      30.284 -24.880 -13.990  0.00  0.00    +0.018 C 
ATOM     22  C   UNL     1      28.952 -25.185 -14.247  0.00  0.00    +0.003 C 
ATOM     23  C   UNL     1      28.720 -23.056 -15.281  0.00  0.00    +0.099 C 
ATOM     24  C   UNL     1      28.148 -24.260 -14.905  0.00  0.00    +0.021 C 
ENDBRANCH  18  20
ENDBRANCH  17  18
ENDBRANCH   4  17
BRANCH   2  25
ATOM     25  C   UNL     1      35.624 -22.722 -15.275  0.00  0.00    +0.117 C 
BRANCH  25  26
ATOM     26  N   UNL     1      35.751 -24.145 -14.955  0.00  0.00    -0.327 N 
ATOM     27  H   UNL     1      35.275 -24.798 -15.518  0.00  0.00    +0.147 HD
BRANCH  26  29
ATOM     28  N   UNL     1      36.691 -25.297 -11.562  0.00  0.00    -0.228 NA
ATOM     29  C   UNL     1      36.504 -24.613 -13.903  0.00  0.00    +0.077 C 
ATOM     30  C   UNL     1      35.983 -24.838 -12.620  0.00  0.00    +0.139 C 
ATOM     31  C   UNL     1      37.872 -24.898 -14.065  0.00  0.00    +0.019 C 
ATOM     32  C   UNL     1      38.633 -25.372 -13.001  0.00  0.00    +0.022 C 
ATOM     33  C   UNL     1      37.999 -25.552 -11.781  0.00  0.00    +0.100 C 
ATOM     34  N   UNL     1      34.607 -24.560 -12.421  0.00  0.00    -0.342 N 
ATOM     35  H   UNL     1      34.199 -24.704 -11.537  0.00  0.00    +0.144 HD
ATOM     36  H   UNL     1      34.060 -24.225 -13.168  0.00  0.00    +0.144 HD
ENDBRANCH  26  29
ENDBRANCH  25  26
ENDBRANCH   2  25
TORSDOF 7
ENDMDL
MODEL 8
REMARK VINA RESULT:     -11.2      1.978      8.517
REMARK  Name = 11633167
REMARK  7 active torsions:
REMARK  status: ('A' for Active; 'I' for Inactive)
REMARK    1  A    between atoms: C_1  and  C_8
REMARK    2  A    between atoms: C_2  and  C_25
REMARK    3  A    between atoms: C_4  and  O_17
REMARK    4  A    between atoms: O_17  and  C_18
REMARK    5  A    between atoms: C_18  and  C_20
REMARK    6  A    between atoms: C_25  and  N_26
REMARK    7  A    between atoms: N_26  and  C_29
REMARK                            x       y       z     vdW  Elec       q    Type
REMARK                         _______ _______ _______ _____ _____    ______ ____
ROOT
ATOM      1  C   UNL     1      33.203 -22.600 -16.815  0.00  0.00    -0.000 C 
ATOM      2  C   UNL     1      35.422 -21.826 -17.371  0.00  0.00    +0.031 C 
ATOM      3  C   UNL     1      34.526 -22.360 -16.445  0.00  0.00    +0.000 C 
ATOM      4  C   UNL     1      34.995 -21.532 -18.665  0.00  0.00    +0.137 C 
ATOM      5  C   UNL     1      32.776 -22.307 -18.109  0.00  0.00    +0.003 C 
ATOM      6  C   UNL     1      33.673 -21.773 -19.036  0.00  0.00    +0.037 C 
ENDROOT
BRANCH   1   8
ATOM      7  N   UNL     1      28.756 -24.281 -15.380  0.00  0.00    -0.312 N 
ATOM      8  C   UNL     1      32.272 -23.154 -15.855  0.00  0.00    +0.001 C 
ATOM      9  C   UNL     1      30.086 -23.939 -15.285  0.00  0.00    +0.048 C 
ATOM     10  C   UNL     1      30.491 -24.228 -13.979  0.00  0.00    +0.015 C 
ATOM     11  C   UNL     1      30.953 -23.403 -16.243  0.00  0.00    +0.015 C 
ATOM     12  C   UNL     1      32.705 -23.432 -14.560  0.00  0.00    +0.000 C 
ATOM     13  C   UNL     1      31.826 -23.968 -13.611  0.00  0.00    +0.001 C 
ATOM     14  C   UNL     1      29.359 -24.755 -13.297  0.00  0.00    +0.017 C 
ATOM     15  C   UNL     1      28.307 -24.774 -14.184  0.00  0.00    +0.062 C 
ATOM     16  H   UNL     1      28.206 -24.184 -16.191  0.00  0.00    +0.152 HD
ENDBRANCH   1   8
BRANCH   4  17
ATOM     17  O   UNL     1      35.857 -21.010 -19.582  0.00  0.00    -0.469 OA
BRANCH  17  18
ATOM     18  C   UNL     1      36.046 -19.597 -19.564  0.00  0.00    +0.251 C 
BRANCH  18  20
ATOM     19  N   UNL     1      34.326 -19.602 -21.267  0.00  0.00    -0.244 NA
ATOM     20  C   UNL     1      35.442 -19.005 -20.803  0.00  0.00    +0.103 C 
ATOM     21  C   UNL     1      36.046 -17.909 -21.387  0.00  0.00    +0.018 C 
ATOM     22  C   UNL     1      35.462 -17.386 -22.534  0.00  0.00    +0.003 C 
ATOM     23  C   UNL     1      33.786 -19.066 -22.383  0.00  0.00    +0.099 C 
ATOM     24  C   UNL     1      34.309 -17.969 -23.049  0.00  0.00    +0.021 C 
ENDBRANCH  18  20
ENDBRANCH  17  18
ENDBRANCH   4  17
BRANCH   2  25
ATOM     25  C   UNL     1      36.835 -21.575 -16.959  0.00  0.00    +0.117 C 
BRANCH  25  26
ATOM     26  N   UNL     1      37.011 -21.646 -15.508  0.00  0.00    -0.327 N 
ATOM     27  H   UNL     1      36.778 -20.858 -14.966  0.00  0.00    +0.147 HD
BRANCH  26  29
ATOM     28  N   UNL     1      37.373 -24.364 -13.017  0.00  0.00    -0.228 NA
ATOM     29  C   UNL     1      37.488 -22.764 -14.864  0.00  0.00    +0.077 C 
ATOM     30  C   UNL     1      36.933 -23.270 -13.679  0.00  0.00    +0.139 C 
ATOM     31  C   UNL     1      38.588 -23.478 -15.374  0.00  0.00    +0.019 C 
ATOM     32  C   UNL     1      39.070 -24.608 -14.722  0.00  0.00    +0.022 C 
ATOM     33  C   UNL     1      38.433 -25.005 -13.557  0.00  0.00    +0.100 C 
ATOM     34  N   UNL     1      35.823 -22.574 -13.136  0.00  0.00    -0.342 N 
ATOM     35  H   UNL     1      35.401 -22.893 -12.306  0.00  0.00    +0.144 HD
ATOM     36  H   UNL     1      35.474 -21.773 -13.590  0.00  0.00    +0.144 HD
ENDBRANCH  26  29
ENDBRANCH  25  26
ENDBRANCH   2  25
TORSDOF 7
ENDMDL
MODEL 9
REMARK VINA RESULT:     -11.1      2.299      4.746
REMARK  Name = 11633167
REMARK  7 active torsions:
REMARK  status: ('A' for Active; 'I' for Inactive)
REMARK    1  A    between atoms: C_1  and  C_8
REMARK    2  A    between atoms: C_2  and  C_25
REMARK    3  A    between atoms: C_4  and  O_17
REMARK    4  A    between atoms: O_17  and  C_18
REMARK    5  A    between atoms: C_18  and  C_20
REMARK    6  A    between atoms: C_25  and  N_26
REMARK    7  A    between atoms: N_26  and  C_29
REMARK                            x       y       z     vdW  Elec       q    Type
REMARK                         _______ _______ _______ _____ _____    ______ ____
ROOT
ATOM      1  C   UNL     1      34.770 -21.158 -18.504  0.00  0.00    -0.000 C 
ATOM      2  C   UNL     1      35.679 -22.206 -16.527  0.00  0.00    +0.031 C 
ATOM      3  C   UNL     1      35.839 -21.372 -17.634  0.00  0.00    +0.000 C 
ATOM      4  C   UNL     1      34.452 -22.823 -16.290  0.00  0.00    +0.137 C 
ATOM      5  C   UNL     1      33.543 -21.775 -18.268  0.00  0.00    +0.003 C 
ATOM      6  C   UNL     1      33.383 -22.608 -17.160  0.00  0.00    +0.037 C 
ENDROOT
BRANCH   1   8
ATOM      7  N   UNL     1      33.225 -18.948 -22.674  0.00  0.00    -0.312 N 
ATOM      8  C   UNL     1      34.935 -20.293 -19.653  0.00  0.00    +0.001 C 
ATOM      9  C   UNL     1      34.076 -19.289 -21.647  0.00  0.00    +0.048 C 
ATOM     10  C   UNL     1      35.279 -18.615 -21.869  0.00  0.00    +0.015 C 
ATOM     11  C   UNL     1      33.874 -20.134 -20.549  0.00  0.00    +0.015 C 
ATOM     12  C   UNL     1      36.146 -19.634 -19.849  0.00  0.00    +0.000 C 
ATOM     13  C   UNL     1      36.334 -18.792 -20.952  0.00  0.00    +0.001 C 
ATOM     14  C   UNL     1      35.120 -17.858 -23.063  0.00  0.00    +0.017 C 
ATOM     15  C   UNL     1      33.847 -18.083 -23.535  0.00  0.00    +0.062 C 
ATOM     16  H   UNL     1      32.303 -19.277 -22.776  0.00  0.00    +0.152 HD
ENDBRANCH   1   8
BRANCH   4  17
ATOM     17  O   UNL     1      34.278 -23.640 -15.214  0.00  0.00    -0.469 OA
BRANCH  17  18
ATOM     18  C   UNL     1      33.582 -23.098 -14.094  0.00  0.00    +0.251 C 
BRANCH  18  20
ATOM     19  N   UNL     1      35.470 -22.393 -12.753  0.00  0.00    -0.244 NA
ATOM     20  C   UNL     1      34.433 -23.248 -12.868  0.00  0.00    +0.103 C 
ATOM     21  C   UNL     1      34.117 -24.226 -11.946  0.00  0.00    +0.018 C 
ATOM     22  C   UNL     1      34.926 -24.338 -10.821  0.00  0.00    +0.003 C 
ATOM     23  C   UNL     1      36.234 -22.532 -11.647  0.00  0.00    +0.099 C 
ATOM     24  C   UNL     1      36.007 -23.478 -10.661  0.00  0.00    +0.021 C 
ENDBRANCH  18  20
ENDBRANCH  17  18
ENDBRANCH   4  17
BRANCH   2  25
ATOM     25  C   UNL     1      36.833 -22.425 -15.606  0.00  0.00    +0.117 C 
BRANCH  25  26
ATOM     26  N   UNL     1      37.308 -23.809 -15.630  0.00  0.00    -0.327 N 
ATOM     27  H   UNL     1      37.487 -24.230 -16.502  0.00  0.00    +0.147 HD
BRANCH  26  29
ATOM     28  N   UNL     1      36.932 -26.436 -13.045  0.00  0.00    -0.228 NA
ATOM     29  C   UNL     1      37.517 -24.551 -14.490  0.00  0.00    +0.077 C 
ATOM     30  C   UNL     1      36.758 -25.683 -14.155  0.00  0.00    +0.139 C 
ATOM     31  C   UNL     1      38.530 -24.204 -13.578  0.00  0.00    +0.019 C 
ATOM     32  C   UNL     1      38.740 -24.955 -12.426  0.00  0.00    +0.022 C 
ATOM     33  C   UNL     1      37.921 -26.052 -12.209  0.00  0.00    +0.100 C 
ATOM     34  N   UNL     1      35.728 -26.060 -15.052  0.00  0.00    -0.342 N 
ATOM     35  H   UNL     1      35.170 -26.848 -14.857  0.00  0.00    +0.144 HD
ATOM     36  H   UNL     1      35.570 -25.535 -15.871  0.00  0.00    +0.144 HD
ENDBRANCH  26  29
ENDBRANCH  25  26
ENDBRANCH   2  25
TORSDOF 7
ENDMDL
