MODEL 1
REMARK VINA RESULT:      -9.9      0.000      0.000
REMARK  Name = 11988953
REMARK  11 active torsions:
REMARK  status: ('A' for Active; 'I' for Inactive)
REMARK    1  A    between atoms: C_1  and  C_11
REMARK    2  A    between atoms: C_3  and  O_23
REMARK    3  A    between atoms: C_4  and  C_25
REMARK    4  A    between atoms: C_9  and  O_14
REMARK    5  A    between atoms: C_10  and  O_16
REMARK    6  A    between atoms: C_12  and  O_18
REMARK    7  A    between atoms: C_13  and  C_20
REMARK    8  A    between atoms: C_20  and  O_21
REMARK    9  A    between atoms: C_25  and  C_26
REMARK   10  A    between atoms: C_31  and  O_32
REMARK   11  A    between atoms: O_32  and  C_33
REMARK                            x       y       z     vdW  Elec       q    Type
REMARK                         _______ _______ _______ _____ _____    ______ ____
ROOT
ATOM      1  C   UNL     1      33.836 -23.569 -14.909  0.00  0.00    +0.024 C 
ATOM      2  C   UNL     1      33.988 -23.509 -16.292  0.00  0.00    -0.005 C 
ATOM      3  C   UNL     1      32.671 -23.094 -14.309  0.00  0.00    +0.135 C 
ATOM      4  C   UNL     1      32.971 -22.973 -17.080  0.00  0.00    -0.022 C 
ATOM      5  C   UNL     1      31.804 -22.496 -16.483  0.00  0.00    -0.022 C 
ATOM      6  C   UNL     1      31.654 -22.557 -15.098  0.00  0.00    +0.032 C 
ATOM      7  C   UNL     1      30.700 -21.916 -17.307  0.00  0.00    +0.031 C 
ENDROOT
BRANCH   1  11
ATOM      8  S   UNL     1      35.949 -22.808 -13.330  0.00  0.00    -0.130 S 
ATOM      9  C   UNL     1      35.846 -25.144 -14.839  0.00  0.00    +0.154 C 
ATOM     10  C   UNL     1      36.948 -25.789 -13.990  0.00  0.00    +0.166 C 
ATOM     11  C   UNL     1      34.956 -24.156 -14.064  0.00  0.00    +0.102 C 
ATOM     12  C   UNL     1      37.874 -24.792 -13.284  0.00  0.00    +0.152 C 
ATOM     13  C   UNL     1      37.131 -23.810 -12.372  0.00  0.00    +0.107 C 
BRANCH   9  14
ATOM     14  O   UNL     1      35.017 -26.203 -15.342  0.00  0.00    -0.381 OA
ATOM     15  H   UNL     1      34.978 -26.921 -14.689  0.00  0.00    +0.210 HD
ENDBRANCH   9  14
BRANCH  10  16
ATOM     16  O   UNL     1      37.746 -26.590 -14.872  0.00  0.00    -0.380 OA
ATOM     17  H   UNL     1      37.166 -27.116 -15.446  0.00  0.00    +0.211 HD
ENDBRANCH  10  16
BRANCH  12  18
ATOM     18  O   UNL     1      38.780 -25.571 -12.492  0.00  0.00    -0.381 OA
ATOM     19  H   UNL     1      38.398 -26.448 -12.333  0.00  0.00    +0.210 HD
ENDBRANCH  12  18
BRANCH  13  20
ATOM     20  C   UNL     1      38.079 -22.853 -11.646  0.00  0.00    +0.150 C 
BRANCH  20  21
ATOM     21  O   UNL     1      37.547 -21.545 -11.734  0.00  0.00    -0.381 OA
ATOM     22  H   UNL     1      37.560 -21.252 -12.659  0.00  0.00    +0.210 HD
ENDBRANCH  20  21
ENDBRANCH  13  20
ENDBRANCH   1  11
BRANCH   3  23
ATOM     23  O   UNL     1      32.510 -23.146 -12.958  0.00  0.00    -0.472 OA
ATOM     24  C   UNL     1      31.178 -23.032 -12.460  0.00  0.00    +0.252 C 
ENDBRANCH   3  23
BRANCH   4  25
ATOM     25  C   UNL     1      33.153 -22.917 -18.561  0.00  0.00    +0.052 C 
BRANCH  25  26
ATOM     26  C   UNL     1      33.989 -21.744 -19.032  0.00  0.00    -0.018 C 
ATOM     27  C   UNL     1      33.439 -20.838 -19.921  0.00  0.00    -0.001 C 
ATOM     28  C   UNL     1      35.283 -21.606 -18.560  0.00  0.00    -0.001 C 
ATOM     29  C   UNL     1      34.210 -19.758 -20.354  0.00  0.00    +0.037 C 
ATOM     30  C   UNL     1      36.052 -20.527 -18.993  0.00  0.00    +0.037 C 
ATOM     31  C   UNL     1      35.516 -19.603 -19.890  0.00  0.00    +0.139 C 
BRANCH  31  32
ATOM     32  O   UNL     1      36.266 -18.549 -20.312  0.00  0.00    -0.475 OA
BRANCH  32  33
ATOM     33  C   UNL     1      36.141 -18.170 -21.682  0.00  0.00    +0.206 C 
ATOM     34  C   UNL     1      35.151 -17.031 -21.791  0.00  0.00    +0.051 C 
ENDBRANCH  32  33
ENDBRANCH  31  32
ENDBRANCH  25  26
ENDBRANCH   4  25
TORSDOF 11
ENDMDL
MODEL 2
REMARK VINA RESULT:      -9.5     11.095     17.528
REMARK  Name = 11988953
REMARK  11 active torsions:
REMARK  status: ('A' for Active; 'I' for Inactive)
REMARK    1  A    between atoms: C_1  and  C_11
REMARK    2  A    between atoms: C_3  and  O_23
REMARK    3  A    between atoms: C_4  and  C_25
REMARK    4  A    between atoms: C_9  and  O_14
REMARK    5  A    between atoms: C_10  and  O_16
REMARK    6  A    between atoms: C_12  and  O_18
REMARK    7  A    between atoms: C_13  and  C_20
REMARK    8  A    between atoms: C_20  and  O_21
REMARK    9  A    between atoms: C_25  and  C_26
REMARK   10  A    between atoms: C_31  and  O_32
REMARK   11  A    between atoms: O_32  and  C_33
REMARK                            x       y       z     vdW  Elec       q    Type
REMARK                         _______ _______ _______ _____ _____    ______ ____
ROOT
ATOM      1  C   UNL     1      31.275  -7.376 -22.175  0.00  0.00    +0.024 C 
ATOM      2  C   UNL     1      30.855  -8.702 -22.261  0.00  0.00    -0.005 C 
ATOM      3  C   UNL     1      31.770  -6.873 -20.974  0.00  0.00    +0.135 C 
ATOM      4  C   UNL     1      30.932  -9.528 -21.141  0.00  0.00    -0.022 C 
ATOM      5  C   UNL     1      31.427  -9.028 -19.937  0.00  0.00    -0.022 C 
ATOM      6  C   UNL     1      31.846  -7.700 -19.854  0.00  0.00    +0.032 C 
ATOM      7  C   UNL     1      31.518  -9.894 -18.724  0.00  0.00    +0.031 C 
ENDROOT
BRANCH   1  11
ATOM      8  S   UNL     1      32.773  -6.514 -24.308  0.00  0.00    -0.130 S 
ATOM      9  C   UNL     1      30.749  -5.047 -23.084  0.00  0.00    +0.154 C 
ATOM     10  C   UNL     1      30.597  -4.151 -24.319  0.00  0.00    +0.166 C 
ATOM     11  C   UNL     1      31.183  -6.488 -23.407  0.00  0.00    +0.102 C 
ATOM     12  C   UNL     1      31.846  -4.068 -25.204  0.00  0.00    +0.152 C 
ATOM     13  C   UNL     1      32.329  -5.433 -25.706  0.00  0.00    +0.107 C 
BRANCH   9  14
ATOM     14  O   UNL     1      29.473  -5.094 -22.429  0.00  0.00    -0.381 OA
ATOM     15  H   UNL     1      28.767  -4.979 -23.085  0.00  0.00    +0.210 HD
ENDBRANCH   9  14
BRANCH  10  16
ATOM     16  O   UNL     1      30.297  -2.830 -23.847  0.00  0.00    -0.380 OA
ATOM     17  H   UNL     1      30.078  -2.866 -22.903  0.00  0.00    +0.211 HD
ENDBRANCH  10  16
BRANCH  12  18
ATOM     18  O   UNL     1      31.491  -3.256 -26.330  0.00  0.00    -0.381 OA
ATOM     19  H   UNL     1      30.974  -3.782 -26.959  0.00  0.00    +0.210 HD
ENDBRANCH  12  18
BRANCH  13  20
ATOM     20  C   UNL     1      33.550  -5.322 -26.620  0.00  0.00    +0.150 C 
BRANCH  20  21
ATOM     21  O   UNL     1      33.102  -5.261 -27.960  0.00  0.00    -0.381 OA
ATOM     22  H   UNL     1      33.279  -6.108 -28.400  0.00  0.00    +0.210 HD
ENDBRANCH  20  21
ENDBRANCH  13  20
ENDBRANCH   1  11
BRANCH   3  23
ATOM     23  O   UNL     1      32.183  -5.579 -20.876  0.00  0.00    -0.472 OA
ATOM     24  C   UNL     1      32.255  -5.019 -19.566  0.00  0.00    +0.252 C 
ENDBRANCH   3  23
BRANCH   4  25
ATOM     25  C   UNL     1      30.476 -10.947 -21.254  0.00  0.00    +0.052 C 
BRANCH  25  26
ATOM     26  C   UNL     1      31.576 -11.914 -21.642  0.00  0.00    -0.018 C 
ATOM     27  C   UNL     1      32.178 -11.789 -22.881  0.00  0.00    -0.001 C 
ATOM     28  C   UNL     1      31.952 -12.900 -20.747  0.00  0.00    -0.001 C 
ATOM     29  C   UNL     1      33.190 -12.681 -23.238  0.00  0.00    +0.037 C 
ATOM     30  C   UNL     1      32.965 -13.791 -21.104  0.00  0.00    +0.037 C 
ATOM     31  C   UNL     1      33.583 -13.681 -22.349  0.00  0.00    +0.139 C 
BRANCH  31  32
ATOM     32  O   UNL     1      34.571 -14.550 -22.698  0.00  0.00    -0.475 OA
BRANCH  32  33
ATOM     33  C   UNL     1      34.526 -15.852 -22.117  0.00  0.00    +0.206 C 
ATOM     34  C   UNL     1      34.474 -16.884 -23.223  0.00  0.00    +0.051 C 
ENDBRANCH  32  33
ENDBRANCH  31  32
ENDBRANCH  25  26
ENDBRANCH   4  25
TORSDOF 11
ENDMDL
MODEL 3
REMARK VINA RESULT:      -9.2      1.455      1.740
REMARK  Name = 11988953
REMARK  11 active torsions:
REMARK  status: ('A' for Active; 'I' for Inactive)
REMARK    1  A    between atoms: C_1  and  C_11
REMARK    2  A    between atoms: C_3  and  O_23
REMARK    3  A    between atoms: C_4  and  C_25
REMARK    4  A    between atoms: C_9  and  O_14
REMARK    5  A    between atoms: C_10  and  O_16
REMARK    6  A    between atoms: C_12  and  O_18
REMARK    7  A    between atoms: C_13  and  C_20
REMARK    8  A    between atoms: C_20  and  O_21
REMARK    9  A    between atoms: C_25  and  C_26
REMARK   10  A    between atoms: C_31  and  O_32
REMARK   11  A    between atoms: O_32  and  C_33
REMARK                            x       y       z     vdW  Elec       q    Type
REMARK                         _______ _______ _______ _____ _____    ______ ____
ROOT
ATOM      1  C   UNL     1      34.091 -23.186 -14.842  0.00  0.00    +0.024 C 
ATOM      2  C   UNL     1      34.048 -23.212 -16.235  0.00  0.00    -0.005 C 
ATOM      3  C   UNL     1      32.959 -22.834 -14.111  0.00  0.00    +0.135 C 
ATOM      4  C   UNL     1      32.866 -22.886 -16.898  0.00  0.00    -0.022 C 
ATOM      5  C   UNL     1      31.730 -22.533 -16.169  0.00  0.00    -0.022 C 
ATOM      6  C   UNL     1      31.777 -22.507 -14.775  0.00  0.00    +0.032 C 
ATOM      7  C   UNL     1      30.453 -22.179 -16.858  0.00  0.00    +0.031 C 
ENDROOT
BRANCH   1  11
ATOM      8  S   UNL     1      36.771 -23.526 -15.330  0.00  0.00    -0.130 S 
ATOM      9  C   UNL     1      35.320 -24.885 -13.383  0.00  0.00    +0.154 C 
ATOM     10  C   UNL     1      36.601 -25.236 -12.616  0.00  0.00    +0.166 C 
ATOM     11  C   UNL     1      35.389 -23.544 -14.134  0.00  0.00    +0.102 C 
ATOM     12  C   UNL     1      37.872 -25.255 -13.474  0.00  0.00    +0.152 C 
ATOM     13  C   UNL     1      38.139 -23.929 -14.196  0.00  0.00    +0.107 C 
BRANCH   9  14
ATOM     14  O   UNL     1      34.254 -24.814 -12.424  0.00  0.00    -0.381 OA
ATOM     15  H   UNL     1      33.688 -25.599 -12.510  0.00  0.00    +0.210 HD
ENDBRANCH   9  14
BRANCH  10  16
ATOM     16  O   UNL     1      36.417 -26.548 -12.067  0.00  0.00    -0.380 OA
ATOM     17  H   UNL     1      35.623 -26.557 -11.509  0.00  0.00    +0.211 HD
ENDBRANCH  10  16
BRANCH  12  18
ATOM     18  O   UNL     1      38.959 -25.527 -12.581  0.00  0.00    -0.381 OA
ATOM     19  H   UNL     1      39.727 -25.831 -13.090  0.00  0.00    +0.210 HD
ENDBRANCH  12  18
BRANCH  13  20
ATOM     20  C   UNL     1      39.433 -23.956 -15.011  0.00  0.00    +0.150 C 
BRANCH  20  21
ATOM     21  O   UNL     1      39.651 -25.280 -15.460  0.00  0.00    -0.381 OA
ATOM     22  H   UNL     1      39.285 -25.383 -16.353  0.00  0.00    +0.210 HD
ENDBRANCH  20  21
ENDBRANCH  13  20
ENDBRANCH   1  11
BRANCH   3  23
ATOM     23  O   UNL     1      32.988 -22.803 -12.749  0.00  0.00    -0.472 OA
ATOM     24  C   UNL     1      31.757 -22.531 -12.081  0.00  0.00    +0.252 C 
ENDBRANCH   3  23
BRANCH   4  25
ATOM     25  C   UNL     1      32.839 -22.919 -18.391  0.00  0.00    +0.052 C 
BRANCH  25  26
ATOM     26  C   UNL     1      33.581 -21.770 -19.042  0.00  0.00    -0.018 C 
ATOM     27  C   UNL     1      32.868 -20.832 -19.767  0.00  0.00    -0.001 C 
ATOM     28  C   UNL     1      34.955 -21.686 -18.897  0.00  0.00    -0.001 C 
ATOM     29  C   UNL     1      33.552 -19.774 -20.367  0.00  0.00    +0.037 C 
ATOM     30  C   UNL     1      35.638 -20.628 -19.496  0.00  0.00    +0.037 C 
ATOM     31  C   UNL     1      34.936 -19.672 -20.232  0.00  0.00    +0.139 C 
BRANCH  31  32
ATOM     32  O   UNL     1      35.602 -18.639 -20.817  0.00  0.00    -0.475 OA
BRANCH  32  33
ATOM     33  C   UNL     1      34.870 -17.433 -21.030  0.00  0.00    +0.206 C 
ATOM     34  C   UNL     1      34.864 -17.114 -22.509  0.00  0.00    +0.051 C 
ENDBRANCH  32  33
ENDBRANCH  31  32
ENDBRANCH  25  26
ENDBRANCH   4  25
TORSDOF 11
ENDMDL
MODEL 4
REMARK VINA RESULT:      -9.1      1.312      2.484
REMARK  Name = 11988953
REMARK  11 active torsions:
REMARK  status: ('A' for Active; 'I' for Inactive)
REMARK    1  A    between atoms: C_1  and  C_11
REMARK    2  A    between atoms: C_3  and  O_23
REMARK    3  A    between atoms: C_4  and  C_25
REMARK    4  A    between atoms: C_9  and  O_14
REMARK    5  A    between atoms: C_10  and  O_16
REMARK    6  A    between atoms: C_12  and  O_18
REMARK    7  A    between atoms: C_13  and  C_20
REMARK    8  A    between atoms: C_20  and  O_21
REMARK    9  A    between atoms: C_25  and  C_26
REMARK   10  A    between atoms: C_31  and  O_32
REMARK   11  A    between atoms: O_32  and  C_33
REMARK                            x       y       z     vdW  Elec       q    Type
REMARK                         _______ _______ _______ _____ _____    ______ ____
ROOT
ATOM      1  C   UNL     1      33.828 -23.108 -15.558  0.00  0.00    +0.024 C 
ATOM      2  C   UNL     1      33.561 -22.682 -16.858  0.00  0.00    -0.005 C 
ATOM      3  C   UNL     1      32.787 -23.269 -14.646  0.00  0.00    +0.135 C 
ATOM      4  C   UNL     1      32.249 -22.419 -17.247  0.00  0.00    -0.022 C 
ATOM      5  C   UNL     1      31.205 -22.580 -16.336  0.00  0.00    -0.022 C 
ATOM      6  C   UNL     1      31.475 -23.005 -15.035  0.00  0.00    +0.032 C 
ATOM      7  C   UNL     1      29.791 -22.304 -16.730  0.00  0.00    +0.031 C 
ENDROOT
BRANCH   1  11
ATOM      8  S   UNL     1      35.488 -25.181 -14.866  0.00  0.00    -0.130 S 
ATOM      9  C   UNL     1      35.721 -22.571 -13.929  0.00  0.00    +0.154 C 
ATOM     10  C   UNL     1      37.185 -22.800 -13.537  0.00  0.00    +0.166 C 
ATOM     11  C   UNL     1      35.266 -23.389 -15.150  0.00  0.00    +0.102 C 
ATOM     12  C   UNL     1      37.552 -24.264 -13.271  0.00  0.00    +0.152 C 
ATOM     13  C   UNL     1      37.264 -25.190 -14.459  0.00  0.00    +0.107 C 
BRANCH   9  14
ATOM     14  O   UNL     1      35.573 -21.177 -14.236  0.00  0.00    -0.381 OA
ATOM     15  H   UNL     1      34.960 -21.073 -14.982  0.00  0.00    +0.210 HD
ENDBRANCH   9  14
BRANCH  10  16
ATOM     16  O   UNL     1      37.420 -22.058 -12.332  0.00  0.00    -0.380 OA
ATOM     17  H   UNL     1      37.635 -22.670 -11.611  0.00  0.00    +0.211 HD
ENDBRANCH  10  16
BRANCH  12  18
ATOM     18  O   UNL     1      38.958 -24.286 -12.994  0.00  0.00    -0.381 OA
ATOM     19  H   UNL     1      39.376 -25.002 -13.498  0.00  0.00    +0.210 HD
ENDBRANCH  12  18
BRANCH  13  20
ATOM     20  C   UNL     1      37.677 -26.638 -14.187  0.00  0.00    +0.150 C 
BRANCH  20  21
ATOM     21  O   UNL     1      39.075 -26.747 -14.374  0.00  0.00    -0.381 OA
ATOM     22  H   UNL     1      39.277 -26.731 -15.322  0.00  0.00    +0.210 HD
ENDBRANCH  20  21
ENDBRANCH  13  20
ENDBRANCH   1  11
BRANCH   3  23
ATOM     23  O   UNL     1      33.034 -23.684 -13.372  0.00  0.00    -0.472 OA
ATOM     24  C   UNL     1      32.058 -24.529 -12.765  0.00  0.00    +0.252 C 
ENDBRANCH   3  23
BRANCH   4  25
ATOM     25  C   UNL     1      31.984 -21.964 -18.645  0.00  0.00    +0.052 C 
BRANCH  25  26
ATOM     26  C   UNL     1      33.114 -21.157 -19.251  0.00  0.00    -0.018 C 
ATOM     27  C   UNL     1      34.420 -21.467 -18.913  0.00  0.00    -0.001 C 
ATOM     28  C   UNL     1      32.814 -20.130 -20.128  0.00  0.00    -0.001 C 
ATOM     29  C   UNL     1      35.460 -20.723 -19.471  0.00  0.00    +0.037 C 
ATOM     30  C   UNL     1      33.855 -19.388 -20.686  0.00  0.00    +0.037 C 
ATOM     31  C   UNL     1      35.177 -19.684 -20.357  0.00  0.00    +0.139 C 
BRANCH  31  32
ATOM     32  O   UNL     1      36.194 -18.960 -20.901  0.00  0.00    -0.475 OA
BRANCH  32  33
ATOM     33  C   UNL     1      35.937 -18.316 -22.148  0.00  0.00    +0.206 C 
ATOM     34  C   UNL     1      35.284 -16.976 -21.886  0.00  0.00    +0.051 C 
ENDBRANCH  32  33
ENDBRANCH  31  32
ENDBRANCH  25  26
ENDBRANCH   4  25
TORSDOF 11
ENDMDL
MODEL 5
REMARK VINA RESULT:      -8.8      5.381      9.934
REMARK  Name = 11988953
REMARK  11 active torsions:
REMARK  status: ('A' for Active; 'I' for Inactive)
REMARK    1  A    between atoms: C_1  and  C_11
REMARK    2  A    between atoms: C_3  and  O_23
REMARK    3  A    between atoms: C_4  and  C_25
REMARK    4  A    between atoms: C_9  and  O_14
REMARK    5  A    between atoms: C_10  and  O_16
REMARK    6  A    between atoms: C_12  and  O_18
REMARK    7  A    between atoms: C_13  and  C_20
REMARK    8  A    between atoms: C_20  and  O_21
REMARK    9  A    between atoms: C_25  and  C_26
REMARK   10  A    between atoms: C_31  and  O_32
REMARK   11  A    between atoms: O_32  and  C_33
REMARK                            x       y       z     vdW  Elec       q    Type
REMARK                         _______ _______ _______ _____ _____    ______ ____
ROOT
ATOM      1  C   UNL     1      34.194 -17.537 -22.978  0.00  0.00    +0.024 C 
ATOM      2  C   UNL     1      34.544 -16.239 -22.613  0.00  0.00    -0.005 C 
ATOM      3  C   UNL     1      33.462 -17.766 -24.142  0.00  0.00    +0.135 C 
ATOM      4  C   UNL     1      34.162 -15.165 -23.415  0.00  0.00    -0.022 C 
ATOM      5  C   UNL     1      33.429 -15.391 -24.581  0.00  0.00    -0.022 C 
ATOM      6  C   UNL     1      33.080 -16.692 -24.944  0.00  0.00    +0.032 C 
ATOM      7  C   UNL     1      33.008 -14.256 -25.456  0.00  0.00    +0.031 C 
ENDROOT
BRANCH   1  11
ATOM      8  S   UNL     1      33.164 -19.359 -21.201  0.00  0.00    -0.130 S 
ATOM      9  C   UNL     1      35.748 -18.331 -21.112  0.00  0.00    +0.154 C 
ATOM     10  C   UNL     1      36.228 -19.503 -20.247  0.00  0.00    +0.166 C 
ATOM     11  C   UNL     1      34.618 -18.697 -22.090  0.00  0.00    +0.102 C 
ATOM     12  C   UNL     1      35.123 -20.189 -19.436  0.00  0.00    +0.152 C 
ATOM     13  C   UNL     1      33.973 -20.719 -20.298  0.00  0.00    +0.107 C 
BRANCH   9  14
ATOM     14  O   UNL     1      36.875 -17.872 -21.874  0.00  0.00    -0.381 OA
ATOM     15  H   UNL     1      37.676 -17.918 -21.328  0.00  0.00    +0.210 HD
ENDBRANCH   9  14
BRANCH  10  16
ATOM     16  O   UNL     1      37.195 -18.978 -19.327  0.00  0.00    -0.380 OA
ATOM     17  H   UNL     1      37.449 -18.082 -19.599  0.00  0.00    +0.211 HD
ENDBRANCH  10  16
BRANCH  12  18
ATOM     18  O   UNL     1      35.743 -21.288 -18.757  0.00  0.00    -0.381 OA
ATOM     19  H   UNL     1      35.306 -21.428 -17.902  0.00  0.00    +0.210 HD
ENDBRANCH  12  18
BRANCH  13  20
ATOM     20  C   UNL     1      32.904 -21.437 -19.473  0.00  0.00    +0.150 C 
BRANCH  20  21
ATOM     21  O   UNL     1      33.356 -22.749 -19.199  0.00  0.00    -0.381 OA
ATOM     22  H   UNL     1      33.886 -23.070 -19.945  0.00  0.00    +0.210 HD
ENDBRANCH  20  21
ENDBRANCH  13  20
ENDBRANCH   1  11
BRANCH   3  23
ATOM     23  O   UNL     1      33.113 -19.030 -24.510  0.00  0.00    -0.472 OA
ATOM     24  C   UNL     1      31.879 -19.184 -25.208  0.00  0.00    +0.252 C 
ENDBRANCH   3  23
BRANCH   4  25
ATOM     25  C   UNL     1      34.546 -13.781 -23.006  0.00  0.00    +0.052 C 
BRANCH  25  26
ATOM     26  C   UNL     1      33.405 -12.978 -22.416  0.00  0.00    -0.018 C 
ATOM     27  C   UNL     1      32.777 -13.438 -21.273  0.00  0.00    -0.001 C 
ATOM     28  C   UNL     1      33.018 -11.802 -23.035  0.00  0.00    -0.001 C 
ATOM     29  C   UNL     1      31.725 -12.698 -20.731  0.00  0.00    +0.037 C 
ATOM     30  C   UNL     1      31.967 -11.063 -22.492  0.00  0.00    +0.037 C 
ATOM     31  C   UNL     1      31.321 -11.511 -21.341  0.00  0.00    +0.139 C 
BRANCH  31  32
ATOM     32  O   UNL     1      30.296 -10.790 -20.810  0.00  0.00    -0.475 OA
BRANCH  32  33
ATOM     33  C   UNL     1      30.616  -9.510 -20.267  0.00  0.00    +0.206 C 
ATOM     34  C   UNL     1      31.370  -9.699 -18.969  0.00  0.00    +0.051 C 
ENDBRANCH  32  33
ENDBRANCH  31  32
ENDBRANCH  25  26
ENDBRANCH   4  25
TORSDOF 11
ENDMDL
MODEL 6
REMARK VINA RESULT:      -8.7     10.969     17.313
REMARK  Name = 11988953
REMARK  11 active torsions:
REMARK  status: ('A' for Active; 'I' for Inactive)
REMARK    1  A    between atoms: C_1  and  C_11
REMARK    2  A    between atoms: C_3  and  O_23
REMARK    3  A    between atoms: C_4  and  C_25
REMARK    4  A    between atoms: C_9  and  O_14
REMARK    5  A    between atoms: C_10  and  O_16
REMARK    6  A    between atoms: C_12  and  O_18
REMARK    7  A    between atoms: C_13  and  C_20
REMARK    8  A    between atoms: C_20  and  O_21
REMARK    9  A    between atoms: C_25  and  C_26
REMARK   10  A    between atoms: C_31  and  O_32
REMARK   11  A    between atoms: O_32  and  C_33
REMARK                            x       y       z     vdW  Elec       q    Type
REMARK                         _______ _______ _______ _____ _____    ______ ____
ROOT
ATOM      1  C   UNL     1      32.060  -7.099 -21.630  0.00  0.00    +0.024 C 
ATOM      2  C   UNL     1      31.540  -8.316 -22.068  0.00  0.00    -0.005 C 
ATOM      3  C   UNL     1      32.269  -6.874 -20.271  0.00  0.00    +0.135 C 
ATOM      4  C   UNL     1      31.231  -9.312 -21.143  0.00  0.00    -0.022 C 
ATOM      5  C   UNL     1      31.439  -9.090 -19.782  0.00  0.00    -0.022 C 
ATOM      6  C   UNL     1      31.959  -7.870 -19.346  0.00  0.00    +0.032 C 
ATOM      7  C   UNL     1      31.115 -10.142 -18.773  0.00  0.00    +0.031 C 
ENDROOT
BRANCH   1  11
ATOM      8  S   UNL     1      30.888  -5.059 -23.044  0.00  0.00    -0.130 S 
ATOM      9  C   UNL     1      33.043  -6.580 -23.930  0.00  0.00    +0.154 C 
ATOM     10  C   UNL     1      33.436  -5.504 -24.949  0.00  0.00    +0.166 C 
ATOM     11  C   UNL     1      32.391  -6.023 -22.652  0.00  0.00    +0.102 C 
ATOM     12  C   UNL     1      32.286  -4.588 -25.383  0.00  0.00    +0.152 C 
ATOM     13  C   UNL     1      31.610  -3.862 -24.213  0.00  0.00    +0.107 C 
BRANCH   9  14
ATOM     14  O   UNL     1      34.243  -7.277 -23.559  0.00  0.00    -0.381 OA
ATOM     15  H   UNL     1      34.557  -7.803 -24.312  0.00  0.00    +0.210 HD
ENDBRANCH   9  14
BRANCH  10  16
ATOM     16  O   UNL     1      33.925  -6.185 -26.113  0.00  0.00    -0.380 OA
ATOM     17  H   UNL     1      34.740  -6.662 -25.891  0.00  0.00    +0.211 HD
ENDBRANCH  10  16
BRANCH  12  18
ATOM     18  O   UNL     1      32.854  -3.615 -26.269  0.00  0.00    -0.381 OA
ATOM     19  H   UNL     1      33.812  -3.569 -26.126  0.00  0.00    +0.210 HD
ENDBRANCH  12  18
BRANCH  13  20
ATOM     20  C   UNL     1      30.494  -2.923 -24.673  0.00  0.00    +0.150 C 
BRANCH  20  21
ATOM     21  O   UNL     1      31.085  -1.786 -25.271  0.00  0.00    -0.381 OA
ATOM     22  H   UNL     1      31.210  -1.947 -26.219  0.00  0.00    +0.210 HD
ENDBRANCH  20  21
ENDBRANCH  13  20
ENDBRANCH   1  11
BRANCH   3  23
ATOM     23  O   UNL     1      32.776  -5.689 -19.829  0.00  0.00    -0.472 OA
ATOM     24  C   UNL     1      31.847  -4.747 -19.294  0.00  0.00    +0.252 C 
ENDBRANCH   3  23
BRANCH   4  25
ATOM     25  C   UNL     1      30.674 -10.608 -21.633  0.00  0.00    +0.052 C 
BRANCH  25  26
ATOM     26  C   UNL     1      31.731 -11.643 -21.962  0.00  0.00    -0.018 C 
ATOM     27  C   UNL     1      32.435 -11.534 -23.148  0.00  0.00    -0.001 C 
ATOM     28  C   UNL     1      31.968 -12.672 -21.068  0.00  0.00    -0.001 C 
ATOM     29  C   UNL     1      33.407 -12.488 -23.451  0.00  0.00    +0.037 C 
ATOM     30  C   UNL     1      32.941 -13.624 -21.371  0.00  0.00    +0.037 C 
ATOM     31  C   UNL     1      33.661 -13.532 -22.562  0.00  0.00    +0.139 C 
BRANCH  31  32
ATOM     32  O   UNL     1      34.611 -14.461 -22.859  0.00  0.00    -0.475 OA
BRANCH  32  33
ATOM     33  C   UNL     1      34.382 -15.792 -22.401  0.00  0.00    +0.206 C 
ATOM     34  C   UNL     1      34.249 -16.709 -23.598  0.00  0.00    +0.051 C 
ENDBRANCH  32  33
ENDBRANCH  31  32
ENDBRANCH  25  26
ENDBRANCH   4  25
TORSDOF 11
ENDMDL
MODEL 7
REMARK VINA RESULT:      -8.6      2.999      7.470
REMARK  Name = 11988953
REMARK  11 active torsions:
REMARK  status: ('A' for Active; 'I' for Inactive)
REMARK    1  A    between atoms: C_1  and  C_11
REMARK    2  A    between atoms: C_3  and  O_23
REMARK    3  A    between atoms: C_4  and  C_25
REMARK    4  A    between atoms: C_9  and  O_14
REMARK    5  A    between atoms: C_10  and  O_16
REMARK    6  A    between atoms: C_12  and  O_18
REMARK    7  A    between atoms: C_13  and  C_20
REMARK    8  A    between atoms: C_20  and  O_21
REMARK    9  A    between atoms: C_25  and  C_26
REMARK   10  A    between atoms: C_31  and  O_32
REMARK   11  A    between atoms: O_32  and  C_33
REMARK                            x       y       z     vdW  Elec       q    Type
REMARK                         _______ _______ _______ _____ _____    ______ ____
ROOT
ATOM      1  C   UNL     1      34.101 -22.744 -16.200  0.00  0.00    +0.024 C 
ATOM      2  C   UNL     1      32.920 -23.160 -15.588  0.00  0.00    -0.005 C 
ATOM      3  C   UNL     1      35.305 -22.781 -15.500  0.00  0.00    +0.135 C 
ATOM      4  C   UNL     1      32.945 -23.617 -14.272  0.00  0.00    -0.022 C 
ATOM      5  C   UNL     1      34.148 -23.656 -13.568  0.00  0.00    -0.022 C 
ATOM      6  C   UNL     1      35.329 -23.238 -14.183  0.00  0.00    +0.032 C 
ATOM      7  C   UNL     1      34.199 -24.141 -12.156  0.00  0.00    +0.031 C 
ENDROOT
BRANCH   1  11
ATOM      8  S   UNL     1      35.543 -21.242 -17.990  0.00  0.00    -0.130 S 
ATOM      9  C   UNL     1      32.769 -21.473 -17.971  0.00  0.00    +0.154 C 
ATOM     10  C   UNL     1      32.681 -21.012 -19.431  0.00  0.00    +0.166 C 
ATOM     11  C   UNL     1      34.057 -22.246 -17.637  0.00  0.00    +0.102 C 
ATOM     12  C   UNL     1      33.864 -20.159 -19.903  0.00  0.00    +0.152 C 
ATOM     13  C   UNL     1      35.220 -20.857 -19.741  0.00  0.00    +0.107 C 
BRANCH   9  14
ATOM     14  O   UNL     1      31.646 -22.333 -17.725  0.00  0.00    -0.381 OA
ATOM     15  H   UNL     1      30.845 -21.936 -18.104  0.00  0.00    +0.210 HD
ENDBRANCH   9  14
BRANCH  10  16
ATOM     16  O   UNL     1      31.489 -20.223 -19.552  0.00  0.00    -0.380 OA
ATOM     17  H   UNL     1      30.806 -20.574 -18.959  0.00  0.00    +0.211 HD
ENDBRANCH  10  16
BRANCH  12  18
ATOM     18  O   UNL     1      33.642 -19.889 -21.292  0.00  0.00    -0.381 OA
ATOM     19  H   UNL     1      34.170 -19.122 -21.561  0.00  0.00    +0.210 HD
ENDBRANCH  12  18
BRANCH  13  20
ATOM     20  C   UNL     1      36.382 -20.005 -20.257  0.00  0.00    +0.150 C 
BRANCH  20  21
ATOM     21  O   UNL     1      35.981 -18.649 -20.248  0.00  0.00    -0.381 OA
ATOM     22  H   UNL     1      35.013 -18.598 -20.269  0.00  0.00    +0.210 HD
ENDBRANCH  20  21
ENDBRANCH  13  20
ENDBRANCH   1  11
BRANCH   3  23
ATOM     23  O   UNL     1      36.467 -22.377 -16.086  0.00  0.00    -0.472 OA
ATOM     24  C   UNL     1      37.683 -22.760 -15.446  0.00  0.00    +0.252 C 
ENDBRANCH   3  23
BRANCH   4  25
ATOM     25  C   UNL     1      31.668 -24.058 -13.633  0.00  0.00    +0.052 C 
BRANCH  25  26
ATOM     26  C   UNL     1      30.430 -23.703 -14.431  0.00  0.00    -0.018 C 
ATOM     27  C   UNL     1      29.995 -22.390 -14.452  0.00  0.00    -0.001 C 
ATOM     28  C   UNL     1      29.763 -24.701 -15.120  0.00  0.00    -0.001 C 
ATOM     29  C   UNL     1      28.854 -22.064 -15.186  0.00  0.00    +0.037 C 
ATOM     30  C   UNL     1      28.624 -24.374 -15.855  0.00  0.00    +0.037 C 
ATOM     31  C   UNL     1      28.169 -23.056 -15.888  0.00  0.00    +0.139 C 
BRANCH  31  32
ATOM     32  O   UNL     1      27.057 -22.736 -16.604  0.00  0.00    -0.475 OA
BRANCH  32  33
ATOM     33  C   UNL     1      26.218 -21.709 -16.078  0.00  0.00    +0.206 C 
ATOM     34  C   UNL     1      25.569 -20.966 -17.225  0.00  0.00    +0.051 C 
ENDBRANCH  32  33
ENDBRANCH  31  32
ENDBRANCH  25  26
ENDBRANCH   4  25
TORSDOF 11
ENDMDL
MODEL 8
REMARK VINA RESULT:      -8.5      2.769      5.322
REMARK  Name = 11988953
REMARK  11 active torsions:
REMARK  status: ('A' for Active; 'I' for Inactive)
REMARK    1  A    between atoms: C_1  and  C_11
REMARK    2  A    between atoms: C_3  and  O_23
REMARK    3  A    between atoms: C_4  and  C_25
REMARK    4  A    between atoms: C_9  and  O_14
REMARK    5  A    between atoms: C_10  and  O_16
REMARK    6  A    between atoms: C_12  and  O_18
REMARK    7  A    between atoms: C_13  and  C_20
REMARK    8  A    between atoms: C_20  and  O_21
REMARK    9  A    between atoms: C_25  and  C_26
REMARK   10  A    between atoms: C_31  and  O_32
REMARK   11  A    between atoms: O_32  and  C_33
REMARK                            x       y       z     vdW  Elec       q    Type
REMARK                         _______ _______ _______ _____ _____    ______ ____
ROOT
ATOM      1  C   UNL     1      33.053 -22.917 -16.235  0.00  0.00    +0.024 C 
ATOM      2  C   UNL     1      33.357 -22.798 -17.590  0.00  0.00    -0.005 C 
ATOM      3  C   UNL     1      33.947 -22.451 -15.273  0.00  0.00    +0.135 C 
ATOM      4  C   UNL     1      34.558 -22.210 -17.983  0.00  0.00    -0.022 C 
ATOM      5  C   UNL     1      35.454 -21.744 -17.022  0.00  0.00    -0.022 C 
ATOM      6  C   UNL     1      35.148 -21.864 -15.667  0.00  0.00    +0.032 C 
ATOM      7  C   UNL     1      36.748 -21.110 -17.420  0.00  0.00    +0.031 C 
ENDROOT
BRANCH   1  11
ATOM      8  S   UNL     1      30.359 -22.402 -16.128  0.00  0.00    -0.130 S 
ATOM      9  C   UNL     1      31.737 -24.060 -14.368  0.00  0.00    +0.154 C 
ATOM     10  C   UNL     1      30.440 -24.763 -13.951  0.00  0.00    +0.166 C 
ATOM     11  C   UNL     1      31.739 -23.562 -15.824  0.00  0.00    +0.102 C 
ATOM     12  C   UNL     1      29.170 -23.929 -14.153  0.00  0.00    +0.152 C 
ATOM     13  C   UNL     1      28.972 -23.459 -15.599  0.00  0.00    +0.107 C 
BRANCH   9  14
ATOM     14  O   UNL     1      32.807 -25.004 -14.210  0.00  0.00    -0.381 OA
ATOM     15  H   UNL     1      33.562 -24.570 -13.782  0.00  0.00    +0.210 HD
ENDBRANCH   9  14
BRANCH  10  16
ATOM     16  O   UNL     1      30.555 -25.067 -12.554  0.00  0.00    -0.380 OA
ATOM     17  H   UNL     1      31.452 -24.854 -12.249  0.00  0.00    +0.211 HD
ENDBRANCH  10  16
BRANCH  12  18
ATOM     18  O   UNL     1      28.070 -24.769 -13.781  0.00  0.00    -0.381 OA
ATOM     19  H   UNL     1      27.268 -24.231 -13.691  0.00  0.00    +0.210 HD
ENDBRANCH  12  18
BRANCH  13  20
ATOM     20  C   UNL     1      27.678 -22.666 -15.785  0.00  0.00    +0.150 C 
BRANCH  20  21
ATOM     21  O   UNL     1      27.920 -21.629 -16.717  0.00  0.00    -0.381 OA
ATOM     22  H   UNL     1      27.462 -21.829 -17.549  0.00  0.00    +0.210 HD
ENDBRANCH  20  21
ENDBRANCH  13  20
ENDBRANCH   1  11
BRANCH   3  23
ATOM     23  O   UNL     1      33.662 -22.562 -13.945  0.00  0.00    -0.472 OA
ATOM     24  C   UNL     1      34.745 -22.891 -13.076  0.00  0.00    +0.252 C 
ENDBRANCH   3  23
BRANCH   4  25
ATOM     25  C   UNL     1      34.865 -22.093 -19.440  0.00  0.00    +0.052 C 
BRANCH  25  26
ATOM     26  C   UNL     1      34.813 -20.673 -19.965  0.00  0.00    -0.018 C 
ATOM     27  C   UNL     1      35.996 -19.991 -20.187  0.00  0.00    -0.001 C 
ATOM     28  C   UNL     1      33.582 -20.090 -20.209  0.00  0.00    -0.001 C 
ATOM     29  C   UNL     1      35.947 -18.683 -20.669  0.00  0.00    +0.037 C 
ATOM     30  C   UNL     1      33.533 -18.782 -20.692  0.00  0.00    +0.037 C 
ATOM     31  C   UNL     1      34.715 -18.079 -20.922  0.00  0.00    +0.139 C 
BRANCH  31  32
ATOM     32  O   UNL     1      34.669 -16.803 -21.393  0.00  0.00    -0.475 OA
BRANCH  32  33
ATOM     33  C   UNL     1      34.647 -16.635 -22.809  0.00  0.00    +0.206 C 
ATOM     34  C   UNL     1      34.360 -15.184 -23.129  0.00  0.00    +0.051 C 
ENDBRANCH  32  33
ENDBRANCH  31  32
ENDBRANCH  25  26
ENDBRANCH   4  25
TORSDOF 11
ENDMDL
MODEL 9
REMARK VINA RESULT:      -8.3      2.927      7.733
REMARK  Name = 11988953
REMARK  11 active torsions:
REMARK  status: ('A' for Active; 'I' for Inactive)
REMARK    1  A    between atoms: C_1  and  C_11
REMARK    2  A    between atoms: C_3  and  O_23
REMARK    3  A    between atoms: C_4  and  C_25
REMARK    4  A    between atoms: C_9  and  O_14
REMARK    5  A    between atoms: C_10  and  O_16
REMARK    6  A    between atoms: C_12  and  O_18
REMARK    7  A    between atoms: C_13  and  C_20
REMARK    8  A    between atoms: C_20  and  O_21
REMARK    9  A    between atoms: C_25  and  C_26
REMARK   10  A    between atoms: C_31  and  O_32
REMARK   11  A    between atoms: O_32  and  C_33
REMARK                            x       y       z     vdW  Elec       q    Type
REMARK                         _______ _______ _______ _____ _____    ______ ____
ROOT
ATOM      1  C   UNL     1      33.223 -22.780 -16.127  0.00  0.00    +0.024 C 
ATOM      2  C   UNL     1      34.124 -22.586 -15.082  0.00  0.00    -0.005 C 
ATOM      3  C   UNL     1      33.534 -22.341 -17.413  0.00  0.00    +0.135 C 
ATOM      4  C   UNL     1      35.341 -21.951 -15.324  0.00  0.00    -0.022 C 
ATOM      5  C   UNL     1      35.655 -21.509 -16.610  0.00  0.00    -0.022 C 
ATOM      6  C   UNL     1      34.751 -21.705 -17.654  0.00  0.00    +0.032 C 
ATOM      7  C   UNL     1      36.953 -20.826 -16.893  0.00  0.00    +0.031 C 
ENDROOT
BRANCH   1  11
ATOM      8  S   UNL     1      30.516 -22.416 -16.401  0.00  0.00    -0.130 S 
ATOM      9  C   UNL     1      31.731 -23.883 -14.372  0.00  0.00    +0.154 C 
ATOM     10  C   UNL     1      30.426 -24.634 -14.079  0.00  0.00    +0.166 C 
ATOM     11  C   UNL     1      31.900 -23.474 -15.846  0.00  0.00    +0.102 C 
ATOM     12  C   UNL     1      29.154 -23.888 -14.497  0.00  0.00    +0.152 C 
ATOM     13  C   UNL     1      29.126 -23.518 -15.985  0.00  0.00    +0.107 C 
BRANCH   9  14
ATOM     14  O   UNL     1      32.815 -24.753 -14.015  0.00  0.00    -0.381 OA
ATOM     15  H   UNL     1      33.031 -24.633 -13.076  0.00  0.00    +0.210 HD
ENDBRANCH   9  14
BRANCH  10  16
ATOM     16  O   UNL     1      30.371 -24.845 -12.661  0.00  0.00    -0.380 OA
ATOM     17  H   UNL     1      31.081 -24.343 -12.231  0.00  0.00    +0.211 HD
ENDBRANCH  10  16
BRANCH  12  18
ATOM     18  O   UNL     1      28.057 -24.766 -14.215  0.00  0.00    -0.381 OA
ATOM     19  H   UNL     1      27.247 -24.245 -14.101  0.00  0.00    +0.210 HD
ENDBRANCH  12  18
BRANCH  13  20
ATOM     20  C   UNL     1      27.830 -22.812 -16.389  0.00  0.00    +0.150 C 
BRANCH  20  21
ATOM     21  O   UNL     1      27.051 -23.712 -17.152  0.00  0.00    -0.381 OA
ATOM     22  H   UNL     1      27.627 -24.382 -17.551  0.00  0.00    +0.210 HD
ENDBRANCH  20  21
ENDBRANCH  13  20
ENDBRANCH   1  11
BRANCH   3  23
ATOM     23  O   UNL     1      32.662 -22.524 -18.443  0.00  0.00    -0.472 OA
ATOM     24  C   UNL     1      32.634 -21.518 -19.454  0.00  0.00    +0.252 C 
ENDBRANCH   3  23
BRANCH   4  25
ATOM     25  C   UNL     1      36.293 -21.751 -14.191  0.00  0.00    +0.052 C 
BRANCH  25  26
ATOM     26  C   UNL     1      37.163 -22.957 -13.902  0.00  0.00    -0.018 C 
ATOM     27  C   UNL     1      37.924 -23.499 -14.921  0.00  0.00    -0.001 C 
ATOM     28  C   UNL     1      37.175 -23.489 -12.624  0.00  0.00    -0.001 C 
ATOM     29  C   UNL     1      38.724 -24.611 -14.655  0.00  0.00    +0.037 C 
ATOM     30  C   UNL     1      37.975 -24.599 -12.358  0.00  0.00    +0.037 C 
ATOM     31  C   UNL     1      38.750 -25.161 -13.373  0.00  0.00    +0.139 C 
BRANCH  31  32
ATOM     32  O   UNL     1      39.531 -26.244 -13.114  0.00  0.00    -0.475 OA
BRANCH  32  33
ATOM     33  C   UNL     1      40.684 -26.424 -13.934  0.00  0.00    +0.206 C 
ATOM     34  C   UNL     1      41.657 -27.341 -13.224  0.00  0.00    +0.051 C 
ENDBRANCH  32  33
ENDBRANCH  31  32
ENDBRANCH  25  26
ENDBRANCH   4  25
TORSDOF 11
ENDMDL
