MODEL 1
REMARK VINA RESULT:     -10.2      0.000      0.000
REMARK  Name = 54676478
REMARK  3 active torsions:
REMARK  status: ('A' for Active; 'I' for Inactive)
REMARK    1  A    between atoms: C_5  and  C_15
REMARK    2  A    between atoms: C_6  and  O_23
REMARK    3  A    between atoms: N_14  and  C_17
REMARK                            x       y       z     vdW  Elec       q    Type
REMARK                         _______ _______ _______ _____ _____    ______ ____
ROOT
ATOM      1  O   UNL     1      33.459 -22.183 -14.880  0.00  0.00    -0.267 OA
ATOM      2  N   UNL     1      34.754 -23.553 -13.531  0.00  0.00    -0.293 N 
ATOM      3  C   UNL     1      36.022 -24.157 -13.270  0.00  0.00    +0.065 A 
ATOM      4  C   UNL     1      37.092 -23.911 -14.145  0.00  0.00    +0.050 A 
ATOM      5  C   UNL     1      35.697 -22.467 -15.550  0.00  0.00    +0.143 A 
ATOM      6  C   UNL     1      36.893 -23.037 -15.315  0.00  0.00    +0.144 A 
ATOM      7  C   UNL     1      34.539 -22.719 -14.629  0.00  0.00    +0.268 A 
ATOM      8  C   UNL     1      36.227 -24.994 -12.156  0.00  0.00    +0.017 C 
ATOM      9  C   UNL     1      38.340 -24.509 -13.886  0.00  0.00    +0.004 C 
ATOM     10  C   UNL     1      33.643 -23.816 -12.617  0.00  0.00    +0.134 C 
ATOM     11  C   UNL     1      37.471 -25.578 -11.915  0.00  0.00    +0.001 C 
ATOM     12  C   UNL     1      38.527 -25.335 -12.780  0.00  0.00    +0.000 C 
ENDROOT
BRANCH   5  15
ATOM     13  O   UNL     1      36.183 -20.559 -16.766  0.00  0.00    -0.269 OA
ATOM     14  N   UNL     1      34.545 -21.993 -17.667  0.00  0.00    -0.253 N 
ATOM     15  C   UNL     1      35.497 -21.582 -16.716  0.00  0.00    +0.260 C 
ATOM     16  C   UNL     1      33.783 -23.241 -17.500  0.00  0.00    +0.120 C 
BRANCH  14  17
ATOM     17  C   UNL     1      34.310 -21.166 -18.840  0.00  0.00    +0.054 C 
ATOM     18  C   UNL     1      35.389 -20.674 -19.574  0.00  0.00    +0.015 C 
ATOM     19  C   UNL     1      33.005 -20.865 -19.229  0.00  0.00    +0.015 C 
ATOM     20  C   UNL     1      35.163 -19.881 -20.699  0.00  0.00    +0.001 C 
ATOM     21  C   UNL     1      32.778 -20.071 -20.354  0.00  0.00    +0.001 C 
ATOM     22  C   UNL     1      33.858 -19.580 -21.089  0.00  0.00    +0.000 C 
ENDBRANCH  14  17
ENDBRANCH   5  15
BRANCH   6  23
ATOM     23  O   UNL     1      38.017 -22.882 -16.100  0.00  0.00    -0.505 OA
ATOM     24  H   UNL     1      38.838 -23.233 -15.817  0.00  0.00    +0.292 HD
ENDBRANCH   6  23
TORSDOF 3
ENDMDL
MODEL 2
REMARK VINA RESULT:     -10.1      2.755      6.821
REMARK  Name = 54676478
REMARK  3 active torsions:
REMARK  status: ('A' for Active; 'I' for Inactive)
REMARK    1  A    between atoms: C_5  and  C_15
REMARK    2  A    between atoms: C_6  and  O_23
REMARK    3  A    between atoms: N_14  and  C_17
REMARK                            x       y       z     vdW  Elec       q    Type
REMARK                         _______ _______ _______ _____ _____    ______ ____
ROOT
ATOM      1  O   UNL     1      34.432 -22.860 -17.368  0.00  0.00    -0.267 OA
ATOM      2  N   UNL     1      32.200 -22.469 -16.876  0.00  0.00    -0.293 N 
ATOM      3  C   UNL     1      31.093 -22.675 -15.997  0.00  0.00    +0.065 A 
ATOM      4  C   UNL     1      31.268 -23.460 -14.846  0.00  0.00    +0.050 A 
ATOM      5  C   UNL     1      33.625 -23.854 -15.393  0.00  0.00    +0.143 A 
ATOM      6  C   UNL     1      32.586 -24.058 -14.563  0.00  0.00    +0.144 A 
ATOM      7  C   UNL     1      33.458 -23.021 -16.630  0.00  0.00    +0.268 A 
ATOM      8  C   UNL     1      29.829 -22.110 -16.254  0.00  0.00    +0.017 C 
ATOM      9  C   UNL     1      30.176 -23.662 -13.982  0.00  0.00    +0.004 C 
ATOM     10  C   UNL     1      32.010 -21.652 -18.074  0.00  0.00    +0.134 C 
ATOM     11  C   UNL     1      28.757 -22.321 -15.386  0.00  0.00    +0.001 C 
ATOM     12  C   UNL     1      28.930 -23.097 -14.250  0.00  0.00    +0.000 C 
ENDROOT
BRANCH   5  15
ATOM     13  O   UNL     1      35.108 -25.631 -15.398  0.00  0.00    -0.269 OA
ATOM     14  N   UNL     1      35.910 -23.592 -14.534  0.00  0.00    -0.253 N 
ATOM     15  C   UNL     1      34.949 -24.443 -15.107  0.00  0.00    +0.260 C 
ATOM     16  C   UNL     1      35.604 -22.185 -14.228  0.00  0.00    +0.120 C 
BRANCH  14  17
ATOM     17  C   UNL     1      37.234 -24.113 -14.236  0.00  0.00    +0.054 C 
ATOM     18  C   UNL     1      38.289 -23.883 -15.118  0.00  0.00    +0.015 C 
ATOM     19  C   UNL     1      37.448 -24.845 -13.067  0.00  0.00    +0.015 C 
ATOM     20  C   UNL     1      39.559 -24.384 -14.832  0.00  0.00    +0.001 C 
ATOM     21  C   UNL     1      38.718 -25.346 -12.782  0.00  0.00    +0.001 C 
ATOM     22  C   UNL     1      39.774 -25.115 -13.664  0.00  0.00    +0.000 C 
ENDBRANCH  14  17
ENDBRANCH   5  15
BRANCH   6  23
ATOM     23  O   UNL     1      32.625 -24.812 -13.408  0.00  0.00    -0.505 OA
ATOM     24  H   UNL     1      33.298 -25.453 -13.289  0.00  0.00    +0.292 HD
ENDBRANCH   6  23
TORSDOF 3
ENDMDL
MODEL 3
REMARK VINA RESULT:     -10.1      9.775     13.665
REMARK  Name = 54676478
REMARK  3 active torsions:
REMARK  status: ('A' for Active; 'I' for Inactive)
REMARK    1  A    between atoms: C_5  and  C_15
REMARK    2  A    between atoms: C_6  and  O_23
REMARK    3  A    between atoms: N_14  and  C_17
REMARK                            x       y       z     vdW  Elec       q    Type
REMARK                         _______ _______ _______ _____ _____    ______ ____
ROOT
ATOM      1  O   UNL     1      32.000 -11.916 -24.860  0.00  0.00    -0.267 OA
ATOM      2  N   UNL     1      33.075 -13.848 -24.161  0.00  0.00    -0.293 N 
ATOM      3  C   UNL     1      33.577 -14.640 -23.083  0.00  0.00    +0.065 A 
ATOM      4  C   UNL     1      33.436 -14.173 -21.767  0.00  0.00    +0.050 A 
ATOM      5  C   UNL     1      32.301 -12.142 -22.537  0.00  0.00    +0.143 A 
ATOM      6  C   UNL     1      32.776 -12.879 -21.516  0.00  0.00    +0.144 A 
ATOM      7  C   UNL     1      32.444 -12.621 -23.952  0.00  0.00    +0.268 A 
ATOM      8  C   UNL     1      34.209 -15.877 -23.307  0.00  0.00    +0.017 C 
ATOM      9  C   UNL     1      33.932 -14.955 -20.706  0.00  0.00    +0.004 C 
ATOM     10  C   UNL     1      33.227 -14.339 -25.530  0.00  0.00    +0.134 C 
ATOM     11  C   UNL     1      34.695 -16.639 -22.244  0.00  0.00    +0.001 C 
ATOM     12  C   UNL     1      34.557 -16.179 -20.944  0.00  0.00    +0.000 C 
ENDROOT
BRANCH   5  15
ATOM     13  O   UNL     1      30.511 -10.890 -21.772  0.00  0.00    -0.269 OA
ATOM     14  N   UNL     1      32.333  -9.689 -22.659  0.00  0.00    -0.253 N 
ATOM     15  C   UNL     1      31.630 -10.850 -22.289  0.00  0.00    +0.260 C 
ATOM     16  C   UNL     1      33.670  -9.765 -23.271  0.00  0.00    +0.120 C 
BRANCH  14  17
ATOM     17  C   UNL     1      31.727  -8.388 -22.433  0.00  0.00    +0.054 C 
ATOM     18  C   UNL     1      30.985  -7.779 -23.445  0.00  0.00    +0.015 C 
ATOM     19  C   UNL     1      31.887  -7.749 -21.203  0.00  0.00    +0.015 C 
ATOM     20  C   UNL     1      30.403  -6.530 -23.227  0.00  0.00    +0.001 C 
ATOM     21  C   UNL     1      31.304  -6.500 -20.986  0.00  0.00    +0.001 C 
ATOM     22  C   UNL     1      30.562  -5.891 -21.998  0.00  0.00    +0.000 C 
ENDBRANCH  14  17
ENDBRANCH   5  15
BRANCH   6  23
ATOM     23  O   UNL     1      32.708 -12.531 -20.183  0.00  0.00    -0.505 OA
ATOM     24  H   UNL     1      33.389 -12.015 -19.798  0.00  0.00    +0.292 HD
ENDBRANCH   6  23
TORSDOF 3
ENDMDL
MODEL 4
REMARK VINA RESULT:      -9.8     10.009     14.305
REMARK  Name = 54676478
REMARK  3 active torsions:
REMARK  status: ('A' for Active; 'I' for Inactive)
REMARK    1  A    between atoms: C_5  and  C_15
REMARK    2  A    between atoms: C_6  and  O_23
REMARK    3  A    between atoms: N_14  and  C_17
REMARK                            x       y       z     vdW  Elec       q    Type
REMARK                         _______ _______ _______ _____ _____    ______ ____
ROOT
ATOM      1  O   UNL     1      30.953 -11.962 -21.504  0.00  0.00    -0.267 OA
ATOM      2  N   UNL     1      31.360  -9.679 -21.510  0.00  0.00    -0.293 N 
ATOM      3  C   UNL     1      32.123  -8.580 -22.010  0.00  0.00    +0.065 A 
ATOM      4  C   UNL     1      33.147  -8.823 -22.939  0.00  0.00    +0.050 A 
ATOM      5  C   UNL     1      32.692 -11.230 -22.912  0.00  0.00    +0.143 A 
ATOM      6  C   UNL     1      33.419 -10.201 -23.384  0.00  0.00    +0.144 A 
ATOM      7  C   UNL     1      31.595 -10.993 -21.916  0.00  0.00    +0.268 A 
ATOM      8  C   UNL     1      31.875  -7.258 -21.595  0.00  0.00    +0.017 C 
ATOM      9  C   UNL     1      33.897  -7.737 -23.430  0.00  0.00    +0.004 C 
ATOM     10  C   UNL     1      30.297  -9.419 -20.540  0.00  0.00    +0.134 C 
ATOM     11  C   UNL     1      32.629  -6.194 -22.092  0.00  0.00    +0.001 C 
ATOM     12  C   UNL     1      33.640  -6.434 -23.009  0.00  0.00    +0.000 C 
ENDROOT
BRANCH   5  15
ATOM     13  O   UNL     1      32.609 -12.902 -24.511  0.00  0.00    -0.269 OA
ATOM     14  N   UNL     1      33.583 -13.471 -22.443  0.00  0.00    -0.253 N 
ATOM     15  C   UNL     1      32.955 -12.612 -23.363  0.00  0.00    +0.260 C 
ATOM     16  C   UNL     1      33.951 -13.011 -21.093  0.00  0.00    +0.120 C 
BRANCH  14  17
ATOM     17  C   UNL     1      33.874 -14.840 -22.832  0.00  0.00    +0.054 C 
ATOM     18  C   UNL     1      33.565 -15.280 -24.120  0.00  0.00    +0.015 C 
ATOM     19  C   UNL     1      34.461 -15.715 -21.918  0.00  0.00    +0.015 C 
ATOM     20  C   UNL     1      33.844 -16.594 -24.493  0.00  0.00    +0.001 C 
ATOM     21  C   UNL     1      34.740 -17.030 -22.291  0.00  0.00    +0.001 C 
ATOM     22  C   UNL     1      34.431 -17.469 -23.579  0.00  0.00    +0.000 C 
ENDBRANCH  14  17
ENDBRANCH   5  15
BRANCH   6  23
ATOM     23  O   UNL     1      34.453 -10.307 -24.291  0.00  0.00    -0.505 OA
ATOM     24  H   UNL     1      35.097  -9.629 -24.349  0.00  0.00    +0.292 HD
ENDBRANCH   6  23
TORSDOF 3
ENDMDL
MODEL 5
REMARK VINA RESULT:      -9.5      8.719     12.384
REMARK  Name = 54676478
REMARK  3 active torsions:
REMARK  status: ('A' for Active; 'I' for Inactive)
REMARK    1  A    between atoms: C_5  and  C_15
REMARK    2  A    between atoms: C_6  and  O_23
REMARK    3  A    between atoms: N_14  and  C_17
REMARK                            x       y       z     vdW  Elec       q    Type
REMARK                         _______ _______ _______ _____ _____    ______ ____
ROOT
ATOM      1  O   UNL     1      32.646 -13.437 -25.159  0.00  0.00    -0.267 OA
ATOM      2  N   UNL     1      33.367 -15.447 -24.256  0.00  0.00    -0.293 N 
ATOM      3  C   UNL     1      33.904 -16.156 -23.138  0.00  0.00    +0.065 A 
ATOM      4  C   UNL     1      34.189 -15.457 -21.955  0.00  0.00    +0.050 A 
ATOM      5  C   UNL     1      33.418 -13.348 -22.937  0.00  0.00    +0.143 A 
ATOM      6  C   UNL     1      33.929 -14.008 -21.882  0.00  0.00    +0.144 A 
ATOM      7  C   UNL     1      33.110 -14.076 -24.213  0.00  0.00    +0.268 A 
ATOM      8  C   UNL     1      34.157 -17.540 -23.193  0.00  0.00    +0.017 C 
ATOM      9  C   UNL     1      34.718 -16.159 -20.856  0.00  0.00    +0.004 C 
ATOM     10  C   UNL     1      33.076 -16.181 -25.487  0.00  0.00    +0.134 C 
ATOM     11  C   UNL     1      34.683 -18.219 -22.094  0.00  0.00    +0.001 C 
ATOM     12  C   UNL     1      34.964 -17.529 -20.925  0.00  0.00    +0.000 C 
ENDROOT
BRANCH   5  15
ATOM     13  O   UNL     1      33.906 -11.154 -23.491  0.00  0.00    -0.269 OA
ATOM     14  N   UNL     1      32.043 -11.497 -22.091  0.00  0.00    -0.253 N 
ATOM     15  C   UNL     1      33.148 -11.898 -22.864  0.00  0.00    +0.260 C 
ATOM     16  C   UNL     1      31.205 -12.480 -21.383  0.00  0.00    +0.120 C 
BRANCH  14  17
ATOM     17  C   UNL     1      31.723 -10.083 -21.987  0.00  0.00    +0.054 C 
ATOM     18  C   UNL     1      31.631  -9.303 -23.139  0.00  0.00    +0.015 C 
ATOM     19  C   UNL     1      31.509  -9.507 -20.734  0.00  0.00    +0.015 C 
ATOM     20  C   UNL     1      31.325  -7.946 -23.039  0.00  0.00    +0.001 C 
ATOM     21  C   UNL     1      31.203  -8.150 -20.635  0.00  0.00    +0.001 C 
ATOM     22  C   UNL     1      31.110  -7.369 -21.787  0.00  0.00    +0.000 C 
ENDBRANCH  14  17
ENDBRANCH   5  15
BRANCH   6  23
ATOM     23  O   UNL     1      34.258 -13.438 -20.669  0.00  0.00    -0.505 OA
ATOM     24  H   UNL     1      35.007 -13.741 -20.196  0.00  0.00    +0.292 HD
ENDBRANCH   6  23
TORSDOF 3
ENDMDL
MODEL 6
REMARK VINA RESULT:      -9.5     12.476     16.981
REMARK  Name = 54676478
REMARK  3 active torsions:
REMARK  status: ('A' for Active; 'I' for Inactive)
REMARK    1  A    between atoms: C_5  and  C_15
REMARK    2  A    between atoms: C_6  and  O_23
REMARK    3  A    between atoms: N_14  and  C_17
REMARK                            x       y       z     vdW  Elec       q    Type
REMARK                         _______ _______ _______ _____ _____    ______ ____
ROOT
ATOM      1  O   UNL     1      32.097  -8.481 -20.072  0.00  0.00    -0.267 OA
ATOM      2  N   UNL     1      31.667  -6.346 -20.867  0.00  0.00    -0.293 N 
ATOM      3  C   UNL     1      31.312  -5.504 -21.966  0.00  0.00    +0.065 A 
ATOM      4  C   UNL     1      31.083  -6.081 -23.225  0.00  0.00    +0.050 A 
ATOM      5  C   UNL     1      31.541  -8.326 -22.354  0.00  0.00    +0.143 A 
ATOM      6  C   UNL     1      31.212  -7.540 -23.395  0.00  0.00    +0.144 A 
ATOM      7  C   UNL     1      31.793  -7.729 -21.000  0.00  0.00    +0.268 A 
ATOM      8  C   UNL     1      31.185  -4.110 -21.818  0.00  0.00    +0.017 C 
ATOM      9  C   UNL     1      30.733  -5.249 -24.305  0.00  0.00    +0.004 C 
ATOM     10  C   UNL     1      31.907  -5.738 -19.559  0.00  0.00    +0.134 C 
ATOM     11  C   UNL     1      30.838  -3.301 -22.901  0.00  0.00    +0.001 C 
ATOM     12  C   UNL     1      30.612  -3.870 -24.144  0.00  0.00    +0.000 C 
ENDROOT
BRANCH   5  15
ATOM     13  O   UNL     1      30.699 -10.473 -22.164  0.00  0.00    -0.269 OA
ATOM     14  N   UNL     1      32.862 -10.268 -23.073  0.00  0.00    -0.253 N 
ATOM     15  C   UNL     1      31.661  -9.789 -22.518  0.00  0.00    +0.260 C 
ATOM     16  C   UNL     1      33.947  -9.351 -23.460  0.00  0.00    +0.120 C 
BRANCH  14  17
ATOM     17  C   UNL     1      33.035 -11.698 -23.265  0.00  0.00    +0.054 C 
ATOM     18  C   UNL     1      33.536 -12.486 -22.229  0.00  0.00    +0.015 C 
ATOM     19  C   UNL     1      32.700 -12.282 -24.487  0.00  0.00    +0.015 C 
ATOM     20  C   UNL     1      33.703 -13.858 -22.415  0.00  0.00    +0.001 C 
ATOM     21  C   UNL     1      32.866 -13.654 -24.673  0.00  0.00    +0.001 C 
ATOM     22  C   UNL     1      33.367 -14.443 -23.636  0.00  0.00    +0.000 C 
ENDBRANCH  14  17
ENDBRANCH   5  15
BRANCH   6  23
ATOM     23  O   UNL     1      30.969  -7.980 -24.680  0.00  0.00    -0.505 OA
ATOM     24  H   UNL     1      31.532  -8.620 -25.070  0.00  0.00    +0.292 HD
ENDBRANCH   6  23
TORSDOF 3
ENDMDL
MODEL 7
REMARK VINA RESULT:      -9.4     10.175     13.822
REMARK  Name = 54676478
REMARK  3 active torsions:
REMARK  status: ('A' for Active; 'I' for Inactive)
REMARK    1  A    between atoms: C_5  and  C_15
REMARK    2  A    between atoms: C_6  and  O_23
REMARK    3  A    between atoms: N_14  and  C_17
REMARK                            x       y       z     vdW  Elec       q    Type
REMARK                         _______ _______ _______ _____ _____    ______ ____
ROOT
ATOM      1  O   UNL     1      32.358 -12.064 -20.128  0.00  0.00    -0.267 OA
ATOM      2  N   UNL     1      33.256 -13.900 -21.223  0.00  0.00    -0.293 N 
ATOM      3  C   UNL     1      33.531 -14.567 -22.456  0.00  0.00    +0.065 A 
ATOM      4  C   UNL     1      33.137 -13.968 -23.662  0.00  0.00    +0.050 A 
ATOM      5  C   UNL     1      32.198 -12.040 -22.476  0.00  0.00    +0.143 A 
ATOM      6  C   UNL     1      32.448 -12.665 -23.641  0.00  0.00    +0.144 A 
ATOM      7  C   UNL     1      32.608 -12.665 -21.174  0.00  0.00    +0.268 A 
ATOM      8  C   UNL     1      34.189 -15.811 -22.492  0.00  0.00    +0.017 C 
ATOM      9  C   UNL     1      33.409 -14.628 -24.876  0.00  0.00    +0.004 C 
ATOM     10  C   UNL     1      33.668 -14.531 -19.969  0.00  0.00    +0.134 C 
ATOM     11  C   UNL     1      34.450 -16.452 -23.704  0.00  0.00    +0.001 C 
ATOM     12  C   UNL     1      34.060 -15.860 -24.896  0.00  0.00    +0.000 C 
ENDROOT
BRANCH   5  15
ATOM     13  O   UNL     1      30.339 -10.718 -22.087  0.00  0.00    -0.269 OA
ATOM     14  N   UNL     1      32.278  -9.612 -22.838  0.00  0.00    -0.253 N 
ATOM     15  C   UNL     1      31.517 -10.730 -22.451  0.00  0.00    +0.260 C 
ATOM     16  C   UNL     1      33.684  -9.749 -23.255  0.00  0.00    +0.120 C 
BRANCH  14  17
ATOM     17  C   UNL     1      31.664  -8.295 -22.827  0.00  0.00    +0.054 C 
ATOM     18  C   UNL     1      31.140  -7.760 -24.004  0.00  0.00    +0.015 C 
ATOM     19  C   UNL     1      31.601  -7.566 -21.639  0.00  0.00    +0.015 C 
ATOM     20  C   UNL     1      30.551  -6.496 -23.993  0.00  0.00    +0.001 C 
ATOM     21  C   UNL     1      31.011  -6.302 -21.629  0.00  0.00    +0.001 C 
ATOM     22  C   UNL     1      30.486  -5.767 -22.806  0.00  0.00    +0.000 C 
ENDBRANCH  14  17
ENDBRANCH   5  15
BRANCH   6  23
ATOM     23  O   UNL     1      32.106 -12.188 -24.890  0.00  0.00    -0.505 OA
ATOM     24  H   UNL     1      31.268 -12.389 -25.255  0.00  0.00    +0.292 HD
ENDBRANCH   6  23
TORSDOF 3
ENDMDL
MODEL 8
REMARK VINA RESULT:      -9.3      3.480      4.719
REMARK  Name = 54676478
REMARK  3 active torsions:
REMARK  status: ('A' for Active; 'I' for Inactive)
REMARK    1  A    between atoms: C_5  and  C_15
REMARK    2  A    between atoms: C_6  and  O_23
REMARK    3  A    between atoms: N_14  and  C_17
REMARK                            x       y       z     vdW  Elec       q    Type
REMARK                         _______ _______ _______ _____ _____    ______ ____
ROOT
ATOM      1  O   UNL     1      33.794 -22.855 -11.589  0.00  0.00    -0.267 OA
ATOM      2  N   UNL     1      35.987 -23.463 -12.034  0.00  0.00    -0.293 N 
ATOM      3  C   UNL     1      36.909 -24.177 -12.859  0.00  0.00    +0.065 A 
ATOM      4  C   UNL     1      36.424 -24.907 -13.955  0.00  0.00    +0.050 A 
ATOM      5  C   UNL     1      34.117 -24.247 -13.460  0.00  0.00    +0.143 A 
ATOM      6  C   UNL     1      34.978 -24.927 -14.238  0.00  0.00    +0.144 A 
ATOM      7  C   UNL     1      34.614 -23.462 -12.281  0.00  0.00    +0.268 A 
ATOM      8  C   UNL     1      38.293 -24.167 -12.601  0.00  0.00    +0.017 C 
ATOM      9  C   UNL     1      37.335 -25.611 -14.766  0.00  0.00    +0.004 C 
ATOM     10  C   UNL     1      36.499 -22.706 -10.891  0.00  0.00    +0.134 C 
ATOM     11  C   UNL     1      39.181 -24.871 -13.415  0.00  0.00    +0.001 C 
ATOM     12  C   UNL     1      38.703 -25.592 -14.497  0.00  0.00    +0.000 C 
ENDROOT
BRANCH   5  15
ATOM     13  O   UNL     1      31.952 -24.920 -12.994  0.00  0.00    -0.269 OA
ATOM     14  N   UNL     1      32.236 -23.499 -14.851  0.00  0.00    -0.253 N 
ATOM     15  C   UNL     1      32.668 -24.256 -13.747  0.00  0.00    +0.260 C 
ATOM     16  C   UNL     1      33.187 -22.742 -15.682  0.00  0.00    +0.120 C 
BRANCH  14  17
ATOM     17  C   UNL     1      30.820 -23.464 -15.179  0.00  0.00    +0.054 C 
ATOM     18  C   UNL     1      29.983 -24.500 -14.766  0.00  0.00    +0.015 C 
ATOM     19  C   UNL     1      30.300 -22.393 -15.907  0.00  0.00    +0.015 C 
ATOM     20  C   UNL     1      28.625 -24.466 -15.081  0.00  0.00    +0.001 C 
ATOM     21  C   UNL     1      28.942 -22.359 -16.222  0.00  0.00    +0.001 C 
ATOM     22  C   UNL     1      28.104 -23.396 -15.808  0.00  0.00    +0.000 C 
ENDBRANCH  14  17
ENDBRANCH   5  15
BRANCH   6  23
ATOM     23  O   UNL     1      34.630 -25.686 -15.337  0.00  0.00    -0.505 OA
ATOM     24  H   UNL     1      33.952 -25.394 -15.913  0.00  0.00    +0.292 HD
ENDBRANCH   6  23
TORSDOF 3
ENDMDL
MODEL 9
REMARK VINA RESULT:      -9.3      3.902      9.669
REMARK  Name = 54676478
REMARK  3 active torsions:
REMARK  status: ('A' for Active; 'I' for Inactive)
REMARK    1  A    between atoms: C_5  and  C_15
REMARK    2  A    between atoms: C_6  and  O_23
REMARK    3  A    between atoms: N_14  and  C_17
REMARK                            x       y       z     vdW  Elec       q    Type
REMARK                         _______ _______ _______ _____ _____    ______ ____
ROOT
ATOM      1  O   UNL     1      34.376 -20.123 -23.038  0.00  0.00    -0.267 OA
ATOM      2  N   UNL     1      33.882 -18.032 -23.908  0.00  0.00    -0.293 N 
ATOM      3  C   UNL     1      33.797 -16.620 -23.709  0.00  0.00    +0.065 A 
ATOM      4  C   UNL     1      34.131 -16.083 -22.456  0.00  0.00    +0.050 A 
ATOM      5  C   UNL     1      34.647 -18.307 -21.566  0.00  0.00    +0.143 A 
ATOM      6  C   UNL     1      34.564 -16.979 -21.369  0.00  0.00    +0.144 A 
ATOM      7  C   UNL     1      34.291 -18.902 -22.897  0.00  0.00    +0.268 A 
ATOM      8  C   UNL     1      33.386 -15.752 -24.739  0.00  0.00    +0.017 C 
ATOM      9  C   UNL     1      34.046 -14.691 -22.263  0.00  0.00    +0.004 C 
ATOM     10  C   UNL     1      33.530 -18.585 -25.216  0.00  0.00    +0.134 C 
ATOM     11  C   UNL     1      33.307 -14.375 -24.529  0.00  0.00    +0.001 C 
ATOM     12  C   UNL     1      33.637 -13.844 -23.292  0.00  0.00    +0.000 C 
ENDROOT
BRANCH   5  15
ATOM     13  O   UNL     1      36.284 -19.172 -20.178  0.00  0.00    -0.269 OA
ATOM     14  N   UNL     1      34.105 -20.017 -19.889  0.00  0.00    -0.253 N 
ATOM     15  C   UNL     1      35.090 -19.207 -20.481  0.00  0.00    +0.260 C 
ATOM     16  C   UNL     1      32.703 -19.973 -20.337  0.00  0.00    +0.120 C 
BRANCH  14  17
ATOM     17  C   UNL     1      34.480 -20.918 -18.811  0.00  0.00    +0.054 C 
ATOM     18  C   UNL     1      33.523 -21.756 -18.238  0.00  0.00    +0.015 C 
ATOM     19  C   UNL     1      35.796 -20.944 -18.351  0.00  0.00    +0.015 C 
ATOM     20  C   UNL     1      33.883 -22.620 -17.204  0.00  0.00    +0.001 C 
ATOM     21  C   UNL     1      36.156 -21.808 -17.317  0.00  0.00    +0.001 C 
ATOM     22  C   UNL     1      35.199 -22.647 -16.744  0.00  0.00    +0.000 C 
ENDBRANCH  14  17
ENDBRANCH   5  15
BRANCH   6  23
ATOM     23  O   UNL     1      34.856 -16.329 -20.187  0.00  0.00    -0.505 OA
ATOM     24  H   UNL     1      34.498 -15.480 -20.018  0.00  0.00    +0.292 HD
ENDBRANCH   6  23
TORSDOF 3
ENDMDL
