MODEL 1
REMARK VINA RESULT:     -11.6      0.000      0.000
REMARK  Name = 24180719
REMARK  6 active torsions:
REMARK  status: ('A' for Active; 'I' for Inactive)
REMARK    1  A    between atoms: C_3  and  N_22
REMARK    2  A    between atoms: C_4  and  C_10
REMARK    3  A    between atoms: C_10  and  C_14
REMARK    4  A    between atoms: N_22  and  S_24
REMARK    5  A    between atoms: S_24  and  C_27
REMARK    6  A    between atoms: C_27  and  C_28
REMARK                            x       y       z     vdW  Elec       q    Type
REMARK                         _______ _______ _______ _____ _____    ______ ____
ROOT
ATOM      1  F   UNL     1      32.529 -19.085 -21.413  0.00  0.00    -0.203 F 
ATOM      2  F   UNL     1      37.098 -17.817 -21.636  0.00  0.00    -0.204 F 
ATOM      3  C   UNL     1      34.131 -20.256 -20.117  0.00  0.00    +0.092 C 
ATOM      4  C   UNL     1      34.804 -18.428 -21.547  0.00  0.00    +0.095 C 
ATOM      5  C   UNL     1      33.805 -19.254 -21.031  0.00  0.00    +0.160 C 
ATOM      6  C   UNL     1      35.456 -20.432 -19.720  0.00  0.00    +0.020 C 
ATOM      7  C   UNL     1      36.128 -18.604 -21.149  0.00  0.00    +0.145 C 
ATOM      8  C   UNL     1      36.455 -19.607 -20.235  0.00  0.00    +0.031 C 
ENDROOT
BRANCH   4  10
ATOM      9  O   UNL     1      34.435 -17.703 -23.720  0.00  0.00    -0.286 OA
ATOM     10  C   UNL     1      34.454 -17.354 -22.526  0.00  0.00    +0.201 C 
BRANCH  10  14
ATOM     11 CL   UNL     1      32.676 -13.056 -26.238  0.00  0.00    -0.081 Cl
ATOM     12  N   UNL     1      33.950 -14.260 -20.741  0.00  0.00    -0.297 N 
ATOM     13  N   UNL     1      33.234 -12.577 -22.309  0.00  0.00    -0.228 NA
ATOM     14  C   UNL     1      34.178 -16.015 -22.089  0.00  0.00    +0.056 C 
ATOM     15  C   UNL     1      33.751 -14.908 -22.869  0.00  0.00    +0.037 C 
ATOM     16  C   UNL     1      33.617 -13.829 -21.998  0.00  0.00    +0.132 C 
ATOM     17  C   UNL     1      34.292 -15.587 -20.784  0.00  0.00    +0.066 C 
ATOM     18  C   UNL     1      33.456 -14.686 -24.223  0.00  0.00    +0.016 C 
ATOM     19  C   UNL     1      33.054 -13.405 -24.600  0.00  0.00    +0.077 C 
ATOM     20  C   UNL     1      32.964 -12.420 -23.626  0.00  0.00    +0.112 C 
ATOM     21  H   UNL     1      33.944 -13.702 -19.930  0.00  0.00    +0.154 HD
ENDBRANCH  10  14
ENDBRANCH   4  10
BRANCH   3  22
ATOM     22  N   UNL     1      33.110 -21.103 -19.587  0.00  0.00    -0.217 N 
ATOM     23  H   UNL     1      32.162 -20.949 -19.802  0.00  0.00    +0.173 HD
BRANCH  22  24
ATOM     24  S   UNL     1      33.585 -22.402 -18.561  0.00  0.00    +0.054 S 
ATOM     25  O   UNL     1      33.508 -23.637 -19.319  0.00  0.00    -0.154 OA
ATOM     26  O   UNL     1      34.784 -22.066 -17.820  0.00  0.00    -0.154 OA
BRANCH  24  27
ATOM     27  C   UNL     1      32.222 -22.413 -17.418  0.00  0.00    +0.172 C 
BRANCH  27  28
ATOM     28  C   UNL     1      32.649 -22.924 -16.052  0.00  0.00    +0.027 C 
ATOM     29  C   UNL     1      31.569 -22.693 -15.008  0.00  0.00    +0.002 C 
ENDBRANCH  27  28
ENDBRANCH  24  27
ENDBRANCH  22  24
ENDBRANCH   3  22
TORSDOF 6
ENDMDL
MODEL 2
REMARK VINA RESULT:     -11.5      3.959      8.697
REMARK  Name = 24180719
REMARK  6 active torsions:
REMARK  status: ('A' for Active; 'I' for Inactive)
REMARK    1  A    between atoms: C_3  and  N_22
REMARK    2  A    between atoms: C_4  and  C_10
REMARK    3  A    between atoms: C_10  and  C_14
REMARK    4  A    between atoms: N_22  and  S_24
REMARK    5  A    between atoms: S_24  and  C_27
REMARK    6  A    between atoms: C_27  and  C_28
REMARK                            x       y       z     vdW  Elec       q    Type
REMARK                         _______ _______ _______ _____ _____    ______ ____
ROOT
ATOM      1  F   UNL     1      32.577 -21.238 -19.986  0.00  0.00    -0.203 F 
ATOM      2  F   UNL     1      35.928 -22.407 -16.834  0.00  0.00    -0.204 F 
ATOM      3  C   UNL     1      34.656 -20.101 -20.016  0.00  0.00    +0.092 C 
ATOM      4  C   UNL     1      34.230 -21.845 -18.398  0.00  0.00    +0.095 C 
ATOM      5  C   UNL     1      33.805 -21.063 -19.473  0.00  0.00    +0.160 C 
ATOM      6  C   UNL     1      35.932 -19.919 -19.484  0.00  0.00    +0.020 C 
ATOM      7  C   UNL     1      35.506 -21.663 -17.867  0.00  0.00    +0.145 C 
ATOM      8  C   UNL     1      36.358 -20.700 -18.409  0.00  0.00    +0.031 C 
ENDROOT
BRANCH   4  10
ATOM      9  O   UNL     1      33.052 -23.837 -18.561  0.00  0.00    -0.286 OA
ATOM     10  C   UNL     1      33.318 -22.876 -17.817  0.00  0.00    +0.201 C 
BRANCH  10  14
ATOM     11 CL   UNL     1      27.495 -22.327 -16.713  0.00  0.00    -0.081 Cl
ATOM     12  N   UNL     1      32.719 -22.558 -14.273  0.00  0.00    -0.297 N 
ATOM     13  N   UNL     1      30.347 -22.341 -13.912  0.00  0.00    -0.228 NA
ATOM     14  C   UNL     1      32.789 -22.733 -16.490  0.00  0.00    +0.056 C 
ATOM     15  C   UNL     1      31.431 -22.594 -16.097  0.00  0.00    +0.037 C 
ATOM     16  C   UNL     1      31.422 -22.488 -14.709  0.00  0.00    +0.132 C 
ATOM     17  C   UNL     1      33.558 -22.707 -15.348  0.00  0.00    +0.066 C 
ATOM     18  C   UNL     1      30.192 -22.546 -16.757  0.00  0.00    +0.016 C 
ATOM     19  C   UNL     1      29.046 -22.395 -15.979  0.00  0.00    +0.077 C 
ATOM     20  C   UNL     1      29.183 -22.300 -14.600  0.00  0.00    +0.112 C 
ATOM     21  H   UNL     1      33.005 -22.510 -13.333  0.00  0.00    +0.154 HD
ENDBRANCH  10  14
ENDBRANCH   4  10
BRANCH   3  22
ATOM     22  N   UNL     1      34.224 -19.300 -21.117  0.00  0.00    -0.217 N 
ATOM     23  H   UNL     1      33.404 -19.523 -21.614  0.00  0.00    +0.173 HD
BRANCH  22  24
ATOM     24  S   UNL     1      35.177 -17.933 -21.551  0.00  0.00    +0.054 S 
ATOM     25  O   UNL     1      34.978 -16.899 -20.552  0.00  0.00    -0.154 OA
ATOM     26  O   UNL     1      36.514 -18.336 -21.938  0.00  0.00    -0.154 OA
BRANCH  24  27
ATOM     27  C   UNL     1      34.320 -17.405 -23.017  0.00  0.00    +0.172 C 
BRANCH  27  28
ATOM     28  C   UNL     1      34.356 -15.893 -23.166  0.00  0.00    +0.027 C 
ATOM     29  C   UNL     1      33.695 -15.445 -24.458  0.00  0.00    +0.002 C 
ENDBRANCH  27  28
ENDBRANCH  24  27
ENDBRANCH  22  24
ENDBRANCH   3  22
TORSDOF 6
ENDMDL
MODEL 3
REMARK VINA RESULT:     -11.4      6.146     10.671
REMARK  Name = 24180719
REMARK  6 active torsions:
REMARK  status: ('A' for Active; 'I' for Inactive)
REMARK    1  A    between atoms: C_3  and  N_22
REMARK    2  A    between atoms: C_4  and  C_10
REMARK    3  A    between atoms: C_10  and  C_14
REMARK    4  A    between atoms: N_22  and  S_24
REMARK    5  A    between atoms: S_24  and  C_27
REMARK    6  A    between atoms: C_27  and  C_28
REMARK                            x       y       z     vdW  Elec       q    Type
REMARK                         _______ _______ _______ _____ _____    ______ ____
ROOT
ATOM      1  F   UNL     1      33.830 -10.636 -23.668  0.00  0.00    -0.203 F 
ATOM      2  F   UNL     1      31.206 -12.933 -20.446  0.00  0.00    -0.204 F 
ATOM      3  C   UNL     1      31.865  -9.617 -22.819  0.00  0.00    +0.092 C 
ATOM      4  C   UNL     1      32.540 -11.809 -22.060  0.00  0.00    +0.095 C 
ATOM      5  C   UNL     1      32.759 -10.687 -22.860  0.00  0.00    +0.160 C 
ATOM      6  C   UNL     1      30.753  -9.669 -21.980  0.00  0.00    +0.020 C 
ATOM      7  C   UNL     1      31.428 -11.861 -21.221  0.00  0.00    +0.145 C 
ATOM      8  C   UNL     1      30.533 -10.790 -21.180  0.00  0.00    +0.031 C 
ENDROOT
BRANCH   4  10
ATOM      9  O   UNL     1      34.359 -12.969 -21.205  0.00  0.00    -0.286 OA
ATOM     10  C   UNL     1      33.498 -12.956 -22.103  0.00  0.00    +0.201 C 
BRANCH  10  14
ATOM     11 CL   UNL     1      35.535 -18.502 -21.390  0.00  0.00    -0.081 Cl
ATOM     12  N   UNL     1      32.954 -14.905 -25.090  0.00  0.00    -0.297 N 
ATOM     13  N   UNL     1      33.803 -17.128 -24.721  0.00  0.00    -0.228 NA
ATOM     14  C   UNL     1      33.413 -13.953 -23.132  0.00  0.00    +0.056 C 
ATOM     15  C   UNL     1      33.859 -15.301 -23.087  0.00  0.00    +0.037 C 
ATOM     16  C   UNL     1      33.557 -15.867 -24.323  0.00  0.00    +0.132 C 
ATOM     17  C   UNL     1      32.861 -13.738 -24.376  0.00  0.00    +0.066 C 
ATOM     18  C   UNL     1      34.488 -16.121 -22.137  0.00  0.00    +0.016 C 
ATOM     19  C   UNL     1      34.767 -17.438 -22.498  0.00  0.00    +0.077 C 
ATOM     20  C   UNL     1      34.411 -17.872 -23.768  0.00  0.00    +0.112 C 
ATOM     21  H   UNL     1      32.635 -15.032 -26.013  0.00  0.00    +0.154 HD
ENDBRANCH  10  14
ENDBRANCH   4  10
BRANCH   3  22
ATOM     22  N   UNL     1      32.087  -8.467 -23.637  0.00  0.00    -0.217 N 
ATOM     23  H   UNL     1      31.605  -8.350 -24.487  0.00  0.00    +0.173 HD
BRANCH  22  24
ATOM     24  S   UNL     1      33.220  -7.289 -23.093  0.00  0.00    +0.054 S 
ATOM     25  O   UNL     1      32.820  -6.843 -21.772  0.00  0.00    -0.154 OA
ATOM     26  O   UNL     1      34.580  -7.725 -23.343  0.00  0.00    -0.154 OA
BRANCH  24  27
ATOM     27  C   UNL     1      32.858  -5.961 -24.219  0.00  0.00    +0.172 C 
BRANCH  27  28
ATOM     28  C   UNL     1      33.941  -4.896 -24.186  0.00  0.00    +0.027 C 
ATOM     29  C   UNL     1      34.591  -4.720 -25.548  0.00  0.00    +0.002 C 
ENDBRANCH  27  28
ENDBRANCH  24  27
ENDBRANCH  22  24
ENDBRANCH   3  22
TORSDOF 6
ENDMDL
MODEL 4
REMARK VINA RESULT:     -11.4      4.432      9.237
REMARK  Name = 24180719
REMARK  6 active torsions:
REMARK  status: ('A' for Active; 'I' for Inactive)
REMARK    1  A    between atoms: C_3  and  N_22
REMARK    2  A    between atoms: C_4  and  C_10
REMARK    3  A    between atoms: C_10  and  C_14
REMARK    4  A    between atoms: N_22  and  S_24
REMARK    5  A    between atoms: S_24  and  C_27
REMARK    6  A    between atoms: C_27  and  C_28
REMARK                            x       y       z     vdW  Elec       q    Type
REMARK                         _______ _______ _______ _____ _____    ______ ____
ROOT
ATOM      1  F   UNL     1      32.573 -21.181 -20.247  0.00  0.00    -0.203 F 
ATOM      2  F   UNL     1      35.851 -22.422 -17.047  0.00  0.00    -0.204 F 
ATOM      3  C   UNL     1      34.613 -19.980 -20.139  0.00  0.00    +0.092 C 
ATOM      4  C   UNL     1      34.190 -21.825 -18.637  0.00  0.00    +0.095 C 
ATOM      5  C   UNL     1      33.776 -20.997 -19.681  0.00  0.00    +0.160 C 
ATOM      6  C   UNL     1      35.864 -19.788 -19.551  0.00  0.00    +0.020 C 
ATOM      7  C   UNL     1      35.441 -21.634 -18.051  0.00  0.00    +0.145 C 
ATOM      8  C   UNL     1      36.278 -20.615 -18.508  0.00  0.00    +0.031 C 
ENDROOT
BRANCH   4  10
ATOM      9  O   UNL     1      33.213 -23.914 -18.884  0.00  0.00    -0.286 OA
ATOM     10  C   UNL     1      33.294 -22.915 -18.147  0.00  0.00    +0.201 C 
BRANCH  10  14
ATOM     11 CL   UNL     1      35.590 -24.535 -12.901  0.00  0.00    -0.081 Cl
ATOM     12  N   UNL     1      30.938 -22.305 -15.484  0.00  0.00    -0.297 N 
ATOM     13  N   UNL     1      31.940 -22.986 -13.402  0.00  0.00    -0.228 NA
ATOM     14  C   UNL     1      32.576 -22.785 -16.911  0.00  0.00    +0.056 C 
ATOM     15  C   UNL     1      33.009 -23.132 -15.604  0.00  0.00    +0.037 C 
ATOM     16  C   UNL     1      31.965 -22.820 -14.737  0.00  0.00    +0.132 C 
ATOM     17  C   UNL     1      31.299 -22.279 -16.807  0.00  0.00    +0.066 C 
ATOM     18  C   UNL     1      34.174 -23.679 -15.042  0.00  0.00    +0.016 C 
ATOM     19  C   UNL     1      34.201 -23.871 -13.662  0.00  0.00    +0.077 C 
ATOM     20  C   UNL     1      33.086 -23.516 -12.915  0.00  0.00    +0.112 C 
ATOM     21  H   UNL     1      30.073 -22.000 -15.126  0.00  0.00    +0.154 HD
ENDBRANCH  10  14
ENDBRANCH   4  10
BRANCH   3  22
ATOM     22  N   UNL     1      34.192 -19.131 -21.208  0.00  0.00    -0.217 N 
ATOM     23  H   UNL     1      33.374 -19.328 -21.718  0.00  0.00    +0.173 HD
BRANCH  22  24
ATOM     24  S   UNL     1      35.156 -17.753 -21.579  0.00  0.00    +0.054 S 
ATOM     25  O   UNL     1      34.940 -16.751 -20.552  0.00  0.00    -0.154 OA
ATOM     26  O   UNL     1      36.499 -18.146 -21.954  0.00  0.00    -0.154 OA
BRANCH  24  27
ATOM     27  C   UNL     1      34.328 -17.176 -23.044  0.00  0.00    +0.172 C 
BRANCH  27  28
ATOM     28  C   UNL     1      34.381 -15.661 -23.149  0.00  0.00    +0.027 C 
ATOM     29  C   UNL     1      33.590 -15.158 -24.346  0.00  0.00    +0.002 C 
ENDBRANCH  27  28
ENDBRANCH  24  27
ENDBRANCH  22  24
ENDBRANCH   3  22
TORSDOF 6
ENDMDL
MODEL 5
REMARK VINA RESULT:     -11.3      2.845      3.782
REMARK  Name = 24180719
REMARK  6 active torsions:
REMARK  status: ('A' for Active; 'I' for Inactive)
REMARK    1  A    between atoms: C_3  and  N_22
REMARK    2  A    between atoms: C_4  and  C_10
REMARK    3  A    between atoms: C_10  and  C_14
REMARK    4  A    between atoms: N_22  and  S_24
REMARK    5  A    between atoms: S_24  and  C_27
REMARK    6  A    between atoms: C_27  and  C_28
REMARK                            x       y       z     vdW  Elec       q    Type
REMARK                         _______ _______ _______ _____ _____    ______ ____
ROOT
ATOM      1  F   UNL     1      36.890 -19.894 -19.470  0.00  0.00    -0.203 F 
ATOM      2  F   UNL     1      32.450 -19.370 -21.066  0.00  0.00    -0.204 F 
ATOM      3  C   UNL     1      35.198 -21.376 -18.723  0.00  0.00    +0.092 C 
ATOM      4  C   UNL     1      34.681 -19.606 -20.285  0.00  0.00    +0.095 C 
ATOM      5  C   UNL     1      35.606 -20.287 -19.492  0.00  0.00    +0.160 C 
ATOM      6  C   UNL     1      33.864 -21.785 -18.746  0.00  0.00    +0.020 C 
ATOM      7  C   UNL     1      33.349 -20.015 -20.308  0.00  0.00    +0.145 C 
ATOM      8  C   UNL     1      32.940 -21.105 -19.538  0.00  0.00    +0.031 C 
ENDROOT
BRANCH   4  10
ATOM      9  O   UNL     1      35.986 -17.712 -20.592  0.00  0.00    -0.286 OA
ATOM     10  C   UNL     1      35.119 -18.439 -21.109  0.00  0.00    +0.201 C 
BRANCH  10  14
ATOM     11 CL   UNL     1      33.780 -12.974 -23.047  0.00  0.00    -0.081 Cl
ATOM     12  N   UNL     1      33.727 -18.574 -24.436  0.00  0.00    -0.297 N 
ATOM     13  N   UNL     1      33.214 -16.329 -25.144  0.00  0.00    -0.228 NA
ATOM     14  C   UNL     1      34.549 -18.192 -22.403  0.00  0.00    +0.056 C 
ATOM     15  C   UNL     1      34.187 -16.944 -22.979  0.00  0.00    +0.037 C 
ATOM     16  C   UNL     1      33.679 -17.218 -24.246  0.00  0.00    +0.132 C 
ATOM     17  C   UNL     1      34.255 -19.175 -23.322  0.00  0.00    +0.066 C 
ATOM     18  C   UNL     1      34.230 -15.600 -22.576  0.00  0.00    +0.016 C 
ATOM     19  C   UNL     1      33.760 -14.638 -23.469  0.00  0.00    +0.077 C 
ATOM     20  C   UNL     1      33.278 -15.052 -24.703  0.00  0.00    +0.112 C 
ATOM     21  H   UNL     1      33.430 -19.045 -25.247  0.00  0.00    +0.154 HD
ENDBRANCH  10  14
ENDBRANCH   4  10
BRANCH   3  22
ATOM     22  N   UNL     1      36.142 -22.075 -17.911  0.00  0.00    -0.217 N 
ATOM     23  H   UNL     1      36.624 -22.861 -18.257  0.00  0.00    +0.173 HD
BRANCH  22  24
ATOM     24  S   UNL     1      36.415 -21.505 -16.309  0.00  0.00    +0.054 S 
ATOM     25  O   UNL     1      37.118 -20.238 -16.386  0.00  0.00    -0.154 OA
ATOM     26  O   UNL     1      35.218 -21.635 -15.502  0.00  0.00    -0.154 OA
BRANCH  24  27
ATOM     27  C   UNL     1      37.590 -22.713 -15.741  0.00  0.00    +0.172 C 
BRANCH  27  28
ATOM     28  C   UNL     1      37.145 -23.345 -14.432  0.00  0.00    +0.027 C 
ATOM     29  C   UNL     1      36.687 -24.780 -14.635  0.00  0.00    +0.002 C 
ENDBRANCH  27  28
ENDBRANCH  24  27
ENDBRANCH  22  24
ENDBRANCH   3  22
TORSDOF 6
ENDMDL
MODEL 6
REMARK VINA RESULT:     -11.2      6.281     10.318
REMARK  Name = 24180719
REMARK  6 active torsions:
REMARK  status: ('A' for Active; 'I' for Inactive)
REMARK    1  A    between atoms: C_3  and  N_22
REMARK    2  A    between atoms: C_4  and  C_10
REMARK    3  A    between atoms: C_10  and  C_14
REMARK    4  A    between atoms: N_22  and  S_24
REMARK    5  A    between atoms: S_24  and  C_27
REMARK    6  A    between atoms: C_27  and  C_28
REMARK                            x       y       z     vdW  Elec       q    Type
REMARK                         _______ _______ _______ _____ _____    ______ ____
ROOT
ATOM      1  F   UNL     1      33.710 -10.412 -23.742  0.00  0.00    -0.203 F 
ATOM      2  F   UNL     1      31.104 -12.748 -20.535  0.00  0.00    -0.204 F 
ATOM      3  C   UNL     1      31.699  -9.446 -22.944  0.00  0.00    +0.092 C 
ATOM      4  C   UNL     1      32.430 -11.604 -22.141  0.00  0.00    +0.095 C 
ATOM      5  C   UNL     1      32.627 -10.487 -22.953  0.00  0.00    +0.160 C 
ATOM      6  C   UNL     1      30.573  -9.523 -22.124  0.00  0.00    +0.020 C 
ATOM      7  C   UNL     1      31.305 -11.680 -21.321  0.00  0.00    +0.145 C 
ATOM      8  C   UNL     1      30.376 -10.639 -21.313  0.00  0.00    +0.031 C 
ENDROOT
BRANCH   4  10
ATOM      9  O   UNL     1      34.283 -12.680 -21.249  0.00  0.00    -0.286 OA
ATOM     10  C   UNL     1      33.425 -12.719 -22.150  0.00  0.00    +0.201 C 
BRANCH  10  14
ATOM     11 CL   UNL     1      35.540 -18.208 -21.243  0.00  0.00    -0.081 Cl
ATOM     12  N   UNL     1      32.973 -14.759 -25.091  0.00  0.00    -0.297 N 
ATOM     13  N   UNL     1      33.852 -16.957 -24.643  0.00  0.00    -0.228 NA
ATOM     14  C   UNL     1      33.378 -13.746 -23.152  0.00  0.00    +0.056 C 
ATOM     15  C   UNL     1      33.845 -15.084 -23.061  0.00  0.00    +0.037 C 
ATOM     16  C   UNL     1      33.577 -15.689 -24.286  0.00  0.00    +0.132 C 
ATOM     17  C   UNL     1      32.847 -13.575 -24.412  0.00  0.00    +0.066 C 
ATOM     18  C   UNL     1      34.469 -15.866 -22.076  0.00  0.00    +0.016 C 
ATOM     19  C   UNL     1      34.776 -17.188 -22.395  0.00  0.00    +0.077 C 
ATOM     20  C   UNL     1      34.453 -17.663 -23.658  0.00  0.00    +0.112 C 
ATOM     21  H   UNL     1      32.675 -14.917 -26.016  0.00  0.00    +0.154 HD
ENDBRANCH  10  14
ENDBRANCH   4  10
BRANCH   3  22
ATOM     22  N   UNL     1      31.898  -8.300 -23.774  0.00  0.00    -0.217 N 
ATOM     23  H   UNL     1      32.091  -8.398 -24.734  0.00  0.00    +0.173 HD
BRANCH  22  24
ATOM     24  S   UNL     1      31.789  -6.742 -23.048  0.00  0.00    +0.054 S 
ATOM     25  O   UNL     1      32.474  -5.790 -23.902  0.00  0.00    -0.154 OA
ATOM     26  O   UNL     1      30.442  -6.479 -22.584  0.00  0.00    -0.154 OA
BRANCH  24  27
ATOM     27  C   UNL     1      32.820  -6.989 -21.620  0.00  0.00    +0.172 C 
BRANCH  27  28
ATOM     28  C   UNL     1      32.171  -6.427 -20.365  0.00  0.00    +0.027 C 
ATOM     29  C   UNL     1      31.663  -7.534 -19.457  0.00  0.00    +0.002 C 
ENDBRANCH  27  28
ENDBRANCH  24  27
ENDBRANCH  22  24
ENDBRANCH   3  22
TORSDOF 6
ENDMDL
MODEL 7
REMARK VINA RESULT:     -11.2      4.536      6.977
REMARK  Name = 24180719
REMARK  6 active torsions:
REMARK  status: ('A' for Active; 'I' for Inactive)
REMARK    1  A    between atoms: C_3  and  N_22
REMARK    2  A    between atoms: C_4  and  C_10
REMARK    3  A    between atoms: C_10  and  C_14
REMARK    4  A    between atoms: N_22  and  S_24
REMARK    5  A    between atoms: S_24  and  C_27
REMARK    6  A    between atoms: C_27  and  C_28
REMARK                            x       y       z     vdW  Elec       q    Type
REMARK                         _______ _______ _______ _____ _____    ______ ____
ROOT
ATOM      1  F   UNL     1      34.949 -24.063 -16.038  0.00  0.00    -0.203 F 
ATOM      2  F   UNL     1      31.156 -21.623 -17.518  0.00  0.00    -0.204 F 
ATOM      3  C   UNL     1      33.142 -23.695 -14.548  0.00  0.00    +0.092 C 
ATOM      4  C   UNL     1      33.068 -22.840 -16.807  0.00  0.00    +0.095 C 
ATOM      5  C   UNL     1      33.736 -23.539 -15.801  0.00  0.00    +0.160 C 
ATOM      6  C   UNL     1      31.882 -23.151 -14.301  0.00  0.00    +0.020 C 
ATOM      7  C   UNL     1      31.808 -22.297 -16.560  0.00  0.00    +0.145 C 
ATOM      8  C   UNL     1      31.215 -22.452 -15.306  0.00  0.00    +0.031 C 
ENDROOT
BRANCH   4  10
ATOM      9  O   UNL     1      33.305 -23.454 -19.032  0.00  0.00    -0.286 OA
ATOM     10  C   UNL     1      33.704 -22.673 -18.149  0.00  0.00    +0.201 C 
BRANCH  10  14
ATOM     11 CL   UNL     1      33.584 -18.937 -22.780  0.00  0.00    -0.081 Cl
ATOM     12  N   UNL     1      36.550 -20.457 -18.070  0.00  0.00    -0.297 N 
ATOM     13  N   UNL     1      36.427 -18.982 -19.971  0.00  0.00    -0.228 NA
ATOM     14  C   UNL     1      34.715 -21.679 -18.371  0.00  0.00    +0.056 C 
ATOM     15  C   UNL     1      34.800 -20.735 -19.429  0.00  0.00    +0.037 C 
ATOM     16  C   UNL     1      35.955 -19.988 -19.211  0.00  0.00    +0.132 C 
ATOM     17  C   UNL     1      35.804 -21.484 -17.551  0.00  0.00    +0.066 C 
ATOM     18  C   UNL     1      34.029 -20.418 -20.559  0.00  0.00    +0.016 C 
ATOM     19  C   UNL     1      34.473 -19.383 -21.380  0.00  0.00    +0.077 C 
ATOM     20  C   UNL     1      35.647 -18.721 -21.044  0.00  0.00    +0.112 C 
ATOM     21  H   UNL     1      37.385 -20.109 -17.681  0.00  0.00    +0.154 HD
ENDBRANCH  10  14
ENDBRANCH   4  10
BRANCH   3  22
ATOM     22  N   UNL     1      33.823 -24.411 -13.516  0.00  0.00    -0.217 N 
ATOM     23  H   UNL     1      33.614 -25.355 -13.332  0.00  0.00    +0.173 HD
BRANCH  22  24
ATOM     24  S   UNL     1      35.021 -23.576 -12.602  0.00  0.00    +0.054 S 
ATOM     25  O   UNL     1      35.631 -22.572 -13.454  0.00  0.00    -0.154 OA
ATOM     26  O   UNL     1      34.517 -23.221 -11.290  0.00  0.00    -0.154 OA
BRANCH  24  27
ATOM     27  C   UNL     1      36.219 -24.873 -12.394  0.00  0.00    +0.172 C 
BRANCH  27  28
ATOM     28  C   UNL     1      37.089 -25.027 -13.630  0.00  0.00    +0.027 C 
ATOM     29  C   UNL     1      36.829 -26.348 -14.334  0.00  0.00    +0.002 C 
ENDBRANCH  27  28
ENDBRANCH  24  27
ENDBRANCH  22  24
ENDBRANCH   3  22
TORSDOF 6
ENDMDL
MODEL 8
REMARK VINA RESULT:     -10.6      5.515     10.314
REMARK  Name = 24180719
REMARK  6 active torsions:
REMARK  status: ('A' for Active; 'I' for Inactive)
REMARK    1  A    between atoms: C_3  and  N_22
REMARK    2  A    between atoms: C_4  and  C_10
REMARK    3  A    between atoms: C_10  and  C_14
REMARK    4  A    between atoms: N_22  and  S_24
REMARK    5  A    between atoms: S_24  and  C_27
REMARK    6  A    between atoms: C_27  and  C_28
REMARK                            x       y       z     vdW  Elec       q    Type
REMARK                         _______ _______ _______ _____ _____    ______ ____
ROOT
ATOM      1  F   UNL     1      36.634 -21.434 -17.606  0.00  0.00    -0.203 F 
ATOM      2  F   UNL     1      32.387 -22.926 -16.101  0.00  0.00    -0.204 F 
ATOM      3  C   UNL     1      34.777 -21.347 -19.076  0.00  0.00    +0.092 C 
ATOM      4  C   UNL     1      34.526 -22.187 -16.825  0.00  0.00    +0.095 C 
ATOM      5  C   UNL     1      35.330 -21.654 -17.833  0.00  0.00    +0.160 C 
ATOM      6  C   UNL     1      33.422 -21.575 -19.313  0.00  0.00    +0.020 C 
ATOM      7  C   UNL     1      33.171 -22.414 -17.061  0.00  0.00    +0.145 C 
ATOM      8  C   UNL     1      32.618 -22.108 -18.306  0.00  0.00    +0.031 C 
ENDROOT
BRANCH   4  10
ATOM      9  O   UNL     1      35.296 -21.547 -14.732  0.00  0.00    -0.286 OA
ATOM     10  C   UNL     1      35.118 -22.515 -15.493  0.00  0.00    +0.201 C 
BRANCH  10  14
ATOM     11 CL   UNL     1      40.684 -24.205 -14.236  0.00  0.00    -0.081 Cl
ATOM     12  N   UNL     1      35.234 -26.036 -14.715  0.00  0.00    -0.297 N 
ATOM     13  N   UNL     1      37.513 -26.639 -14.220  0.00  0.00    -0.228 NA
ATOM     14  C   UNL     1      35.460 -23.865 -15.147  0.00  0.00    +0.056 C 
ATOM     15  C   UNL     1      36.740 -24.392 -14.828  0.00  0.00    +0.037 C 
ATOM     16  C   UNL     1      36.564 -25.748 -14.564  0.00  0.00    +0.132 C 
ATOM     17  C   UNL     1      34.553 -24.899 -15.069  0.00  0.00    +0.066 C 
ATOM     18  C   UNL     1      38.043 -23.878 -14.730  0.00  0.00    +0.016 C 
ATOM     19  C   UNL     1      39.065 -24.759 -14.377  0.00  0.00    +0.077 C 
ATOM     20  C   UNL     1      38.747 -26.090 -14.142  0.00  0.00    +0.112 C 
ATOM     21  H   UNL     1      34.827 -26.924 -14.589  0.00  0.00    +0.154 HD
ENDBRANCH  10  14
ENDBRANCH   4  10
BRANCH   3  22
ATOM     22  N   UNL     1      35.598 -20.800 -20.110  0.00  0.00    -0.217 N 
ATOM     23  H   UNL     1      36.324 -21.329 -20.513  0.00  0.00    +0.173 HD
BRANCH  22  24
ATOM     24  S   UNL     1      35.282 -19.190 -20.633  0.00  0.00    +0.054 S 
ATOM     25  O   UNL     1      33.931 -18.836 -20.238  0.00  0.00    -0.154 OA
ATOM     26  O   UNL     1      36.394 -18.315 -20.318  0.00  0.00    -0.154 OA
BRANCH  24  27
ATOM     27  C   UNL     1      35.258 -19.430 -22.395  0.00  0.00    +0.172 C 
BRANCH  27  28
ATOM     28  C   UNL     1      34.141 -18.632 -23.047  0.00  0.00    +0.027 C 
ATOM     29  C   UNL     1      34.498 -17.159 -23.154  0.00  0.00    +0.002 C 
ENDBRANCH  27  28
ENDBRANCH  24  27
ENDBRANCH  22  24
ENDBRANCH   3  22
TORSDOF 6
ENDMDL
MODEL 9
REMARK VINA RESULT:     -10.6      4.368      6.452
REMARK  Name = 24180719
REMARK  6 active torsions:
REMARK  status: ('A' for Active; 'I' for Inactive)
REMARK    1  A    between atoms: C_3  and  N_22
REMARK    2  A    between atoms: C_4  and  C_10
REMARK    3  A    between atoms: C_10  and  C_14
REMARK    4  A    between atoms: N_22  and  S_24
REMARK    5  A    between atoms: S_24  and  C_27
REMARK    6  A    between atoms: C_27  and  C_28
REMARK                            x       y       z     vdW  Elec       q    Type
REMARK                         _______ _______ _______ _____ _____    ______ ____
ROOT
ATOM      1  F   UNL     1      31.062 -21.719 -17.999  0.00  0.00    -0.203 F 
ATOM      2  F   UNL     1      34.974 -23.592 -16.070  0.00  0.00    -0.204 F 
ATOM      3  C   UNL     1      31.053 -22.343 -15.712  0.00  0.00    +0.092 C 
ATOM      4  C   UNL     1      33.032 -22.652 -17.064  0.00  0.00    +0.095 C 
ATOM      5  C   UNL     1      31.707 -22.232 -16.939  0.00  0.00    +0.160 C 
ATOM      6  C   UNL     1      31.723 -22.876 -14.611  0.00  0.00    +0.020 C 
ATOM      7  C   UNL     1      33.701 -23.184 -15.963  0.00  0.00    +0.145 C 
ATOM      8  C   UNL     1      33.047 -23.296 -14.736  0.00  0.00    +0.031 C 
ENDROOT
BRANCH   4  10
ATOM      9  O   UNL     1      33.398 -23.363 -19.243  0.00  0.00    -0.286 OA
ATOM     10  C   UNL     1      33.733 -22.532 -18.379  0.00  0.00    +0.201 C 
BRANCH  10  14
ATOM     11 CL   UNL     1      33.570 -18.776 -22.992  0.00  0.00    -0.081 Cl
ATOM     12  N   UNL     1      36.552 -20.282 -18.288  0.00  0.00    -0.297 N 
ATOM     13  N   UNL     1      36.412 -18.800 -20.182  0.00  0.00    -0.228 NA
ATOM     14  C   UNL     1      34.732 -21.525 -18.596  0.00  0.00    +0.056 C 
ATOM     15  C   UNL     1      34.806 -20.575 -19.650  0.00  0.00    +0.037 C 
ATOM     16  C   UNL     1      35.952 -19.816 -19.428  0.00  0.00    +0.132 C 
ATOM     17  C   UNL     1      35.818 -21.321 -17.774  0.00  0.00    +0.066 C 
ATOM     18  C   UNL     1      34.031 -20.262 -20.778  0.00  0.00    +0.016 C 
ATOM     19  C   UNL     1      34.464 -19.218 -21.594  0.00  0.00    +0.077 C 
ATOM     20  C   UNL     1      35.629 -18.543 -21.255  0.00  0.00    +0.112 C 
ATOM     21  H   UNL     1      37.382 -19.926 -17.897  0.00  0.00    +0.154 HD
ENDBRANCH  10  14
ENDBRANCH   4  10
BRANCH   3  22
ATOM     22  N   UNL     1      29.697 -21.914 -15.581  0.00  0.00    -0.217 N 
ATOM     23  H   UNL     1      29.482 -21.010 -15.256  0.00  0.00    +0.173 HD
BRANCH  22  24
ATOM     24  S   UNL     1      28.449 -23.021 -16.006  0.00  0.00    +0.054 S 
ATOM     25  O   UNL     1      27.346 -22.847 -15.079  0.00  0.00    -0.154 OA
ATOM     26  O   UNL     1      28.217 -23.017 -17.437  0.00  0.00    -0.154 OA
BRANCH  24  27
ATOM     27  C   UNL     1      29.237 -24.559 -15.585  0.00  0.00    +0.172 C 
BRANCH  27  28
ATOM     28  C   UNL     1      28.736 -25.092 -14.253  0.00  0.00    +0.027 C 
ATOM     29  C   UNL     1      29.702 -24.769 -13.126  0.00  0.00    +0.002 C 
ENDBRANCH  27  28
ENDBRANCH  24  27
ENDBRANCH  22  24
ENDBRANCH   3  22
TORSDOF 6
ENDMDL
