MODEL 1
REMARK VINA RESULT:     -12.2      0.000      0.000
REMARK  Name = 71345
REMARK  7 active torsions:
REMARK  status: ('A' for Active; 'I' for Inactive)
REMARK    1  A    between atoms: C_1  and  C_5
REMARK    2  A    between atoms: C_1  and  C_15
REMARK    3  A    between atoms: C_15  and  O_16
REMARK    4  A    between atoms: O_16  and  C_17
REMARK    5  A    between atoms: C_22  and  C_24
REMARK    6  A    between atoms: C_24  and  O_25
REMARK    7  A    between atoms: O_25  and  C_26
REMARK                            x       y       z     vdW  Elec       q    Type
REMARK                         _______ _______ _______ _____ _____    ______ ____
ROOT
ATOM      1  C   UNL     1      34.144 -18.819 -21.753  0.00  0.00    +0.047 C 
ENDROOT
BRANCH   1   5
ATOM      2  N   UNL     1      34.653 -21.388 -18.332  0.00  0.00    -0.292 N 
ATOM      3  N   UNL     1      34.018 -23.178 -16.868  0.00  0.00    -0.133 NA
ATOM      4  N   UNL     1      34.157 -23.857 -15.697  0.00  0.00    -0.151 NA
ATOM      5  C   UNL     1      34.297 -20.063 -20.883  0.00  0.00    +0.007 C 
ATOM      6  C   UNL     1      35.643 -20.056 -20.152  0.00  0.00    +0.022 C 
ATOM      7  C   UNL     1      33.160 -20.158 -19.860  0.00  0.00    +0.022 C 
ATOM      8  C   UNL     1      35.797 -21.275 -19.242  0.00  0.00    +0.092 C 
ATOM      9  C   UNL     1      33.322 -21.379 -18.956  0.00  0.00    +0.092 C 
ATOM     10  C   UNL     1      34.796 -22.087 -17.128  0.00  0.00    +0.153 C 
ATOM     11  C   UNL     1      35.743 -21.650 -16.201  0.00  0.00    +0.037 C 
ATOM     12  C   UNL     1      35.884 -22.340 -15.010  0.00  0.00    +0.019 C 
ATOM     13  C   UNL     1      35.073 -23.436 -14.799  0.00  0.00    +0.081 C 
ATOM     14  C   UNL     1      35.184 -24.214 -13.532  0.00  0.00    +0.054 C 
ENDBRANCH   1   5
BRANCH   1  15
ATOM     15  C   UNL     1      35.280 -17.838 -21.528  0.00  0.00    +0.205 C 
BRANCH  15  16
ATOM     16  O   UNL     1      34.832 -16.823 -20.638  0.00  0.00    -0.475 OA
BRANCH  16  17
ATOM     17  C   UNL     1      34.357 -15.669 -21.205  0.00  0.00    +0.139 C 
ATOM     18  C   UNL     1      33.702 -14.733 -20.414  0.00  0.00    +0.037 C 
ATOM     19  C   UNL     1      34.534 -15.448 -22.566  0.00  0.00    +0.037 C 
ATOM     20  C   UNL     1      33.218 -13.559 -20.991  0.00  0.00    +0.010 C 
ATOM     21  C   UNL     1      34.049 -14.275 -23.144  0.00  0.00    +0.010 C 
ATOM     22  C   UNL     1      33.391 -13.330 -22.357  0.00  0.00    +0.076 C 
BRANCH  22  24
ATOM     23  O   UNL     1      33.485 -11.449 -23.818  0.00  0.00    -0.245 OA
ATOM     24  C   UNL     1      32.886 -12.106 -22.957  0.00  0.00    +0.341 C 
BRANCH  24  25
ATOM     25  O   UNL     1      31.660 -11.767 -22.451  0.00  0.00    -0.445 OA
BRANCH  25  26
ATOM     26  C   UNL     1      31.498 -10.417 -22.001  0.00  0.00    +0.209 C 
ATOM     27  C   UNL     1      31.066 -10.431 -20.550  0.00  0.00    +0.051 C 
ENDBRANCH  25  26
ENDBRANCH  24  25
ENDBRANCH  22  24
ENDBRANCH  16  17
ENDBRANCH  15  16
ENDBRANCH   1  15
TORSDOF 7
ENDMDL
MODEL 2
REMARK VINA RESULT:     -11.7      1.983      3.236
REMARK  Name = 71345
REMARK  7 active torsions:
REMARK  status: ('A' for Active; 'I' for Inactive)
REMARK    1  A    between atoms: C_1  and  C_5
REMARK    2  A    between atoms: C_1  and  C_15
REMARK    3  A    between atoms: C_15  and  O_16
REMARK    4  A    between atoms: O_16  and  C_17
REMARK    5  A    between atoms: C_22  and  C_24
REMARK    6  A    between atoms: C_24  and  O_25
REMARK    7  A    between atoms: O_25  and  C_26
REMARK                            x       y       z     vdW  Elec       q    Type
REMARK                         _______ _______ _______ _____ _____    ______ ____
ROOT
ATOM      1  C   UNL     1      34.317 -21.059 -20.125  0.00  0.00    +0.047 C 
ENDROOT
BRANCH   1   5
ATOM      2  N   UNL     1      35.618 -22.458 -16.265  0.00  0.00    -0.292 N 
ATOM      3  N   UNL     1      36.875 -22.305 -14.228  0.00  0.00    -0.133 NA
ATOM      4  N   UNL     1      37.357 -22.870 -13.088  0.00  0.00    -0.151 NA
ATOM      5  C   UNL     1      34.609 -21.125 -18.629  0.00  0.00    +0.007 C 
ATOM      6  C   UNL     1      33.857 -22.290 -17.978  0.00  0.00    +0.022 C 
ATOM      7  C   UNL     1      36.111 -21.279 -18.372  0.00  0.00    +0.022 C 
ATOM      8  C   UNL     1      34.169 -22.399 -16.485  0.00  0.00    +0.092 C 
ATOM      9  C   UNL     1      36.415 -21.386 -16.878  0.00  0.00    +0.092 C 
ATOM     10  C   UNL     1      36.114 -23.039 -15.091  0.00  0.00    +0.153 C 
ATOM     11  C   UNL     1      35.818 -24.376 -14.821  0.00  0.00    +0.037 C 
ATOM     12  C   UNL     1      36.308 -24.950 -13.662  0.00  0.00    +0.019 C 
ATOM     13  C   UNL     1      37.072 -24.163 -12.824  0.00  0.00    +0.081 C 
ATOM     14  C   UNL     1      37.624 -24.734 -11.563  0.00  0.00    +0.054 C 
ENDBRANCH   1   5
BRANCH   1  15
ATOM     15  C   UNL     1      34.004 -19.642 -20.570  0.00  0.00    +0.205 C 
BRANCH  15  16
ATOM     16  O   UNL     1      34.839 -19.319 -21.674  0.00  0.00    -0.475 OA
BRANCH  16  17
ATOM     17  C   UNL     1      34.518 -18.191 -22.384  0.00  0.00    +0.139 C 
ATOM     18  C   UNL     1      33.893 -18.311 -23.619  0.00  0.00    +0.037 C 
ATOM     19  C   UNL     1      34.823 -16.940 -21.862  0.00  0.00    +0.037 C 
ATOM     20  C   UNL     1      33.567 -17.163 -24.343  0.00  0.00    +0.010 C 
ATOM     21  C   UNL     1      34.498 -15.792 -22.585  0.00  0.00    +0.010 C 
ATOM     22  C   UNL     1      33.870 -15.903 -23.825  0.00  0.00    +0.076 C 
BRANCH  22  24
ATOM     23  O   UNL     1      33.182 -14.704 -25.767  0.00  0.00    -0.245 OA
ATOM     24  C   UNL     1      33.531 -14.708 -24.579  0.00  0.00    +0.341 C 
BRANCH  24  25
ATOM     25  O   UNL     1      33.646 -13.580 -23.813  0.00  0.00    -0.445 OA
BRANCH  25  26
ATOM     26  C   UNL     1      32.427 -12.965 -23.380  0.00  0.00    +0.209 C 
ATOM     27  C   UNL     1      32.534 -12.646 -21.904  0.00  0.00    +0.051 C 
ENDBRANCH  25  26
ENDBRANCH  24  25
ENDBRANCH  22  24
ENDBRANCH  16  17
ENDBRANCH  15  16
ENDBRANCH   1  15
TORSDOF 7
ENDMDL
MODEL 3
REMARK VINA RESULT:     -11.5      0.958      1.326
REMARK  Name = 71345
REMARK  7 active torsions:
REMARK  status: ('A' for Active; 'I' for Inactive)
REMARK    1  A    between atoms: C_1  and  C_5
REMARK    2  A    between atoms: C_1  and  C_15
REMARK    3  A    between atoms: C_15  and  O_16
REMARK    4  A    between atoms: O_16  and  C_17
REMARK    5  A    between atoms: C_22  and  C_24
REMARK    6  A    between atoms: C_24  and  O_25
REMARK    7  A    between atoms: O_25  and  C_26
REMARK                            x       y       z     vdW  Elec       q    Type
REMARK                         _______ _______ _______ _____ _____    ______ ____
ROOT
ATOM      1  C   UNL     1      34.229 -18.446 -22.159  0.00  0.00    +0.047 C 
ENDROOT
BRANCH   1   5
ATOM      2  N   UNL     1      34.693 -21.094 -18.792  0.00  0.00    -0.292 N 
ATOM      3  N   UNL     1      34.018 -22.890 -17.354  0.00  0.00    -0.133 NA
ATOM      4  N   UNL     1      34.147 -23.594 -16.197  0.00  0.00    -0.151 NA
ATOM      5  C   UNL     1      34.352 -19.711 -21.313  0.00  0.00    +0.007 C 
ATOM      6  C   UNL     1      35.705 -19.760 -20.598  0.00  0.00    +0.022 C 
ATOM      7  C   UNL     1      33.224 -19.789 -20.280  0.00  0.00    +0.022 C 
ATOM      8  C   UNL     1      35.831 -21.000 -19.713  0.00  0.00    +0.092 C 
ATOM      9  C   UNL     1      33.356 -21.032 -19.400  0.00  0.00    +0.092 C 
ATOM     10  C   UNL     1      34.827 -21.819 -17.602  0.00  0.00    +0.153 C 
ATOM     11  C   UNL     1      35.797 -21.429 -16.678  0.00  0.00    +0.037 C 
ATOM     12  C   UNL     1      35.929 -22.145 -15.502  0.00  0.00    +0.019 C 
ATOM     13  C   UNL     1      35.086 -23.220 -15.301  0.00  0.00    +0.081 C 
ATOM     14  C   UNL     1      35.186 -24.024 -14.051  0.00  0.00    +0.054 C 
ENDBRANCH   1   5
BRANCH   1  15
ATOM     15  C   UNL     1      34.773 -17.232 -21.429  0.00  0.00    +0.205 C 
BRANCH  15  16
ATOM     16  O   UNL     1      35.006 -16.200 -22.378  0.00  0.00    -0.475 OA
BRANCH  16  17
ATOM     17  C   UNL     1      34.238 -15.070 -22.265  0.00  0.00    +0.139 C 
ATOM     18  C   UNL     1      33.847 -14.629 -21.007  0.00  0.00    +0.037 C 
ATOM     19  C   UNL     1      33.858 -14.380 -23.410  0.00  0.00    +0.037 C 
ATOM     20  C   UNL     1      33.064 -13.479 -20.891  0.00  0.00    +0.010 C 
ATOM     21  C   UNL     1      33.075 -13.231 -23.294  0.00  0.00    +0.010 C 
ATOM     22  C   UNL     1      32.678 -12.781 -22.036  0.00  0.00    +0.076 C 
BRANCH  22  24
ATOM     23  O   UNL     1      31.131 -11.329 -20.949  0.00  0.00    -0.245 OA
ATOM     24  C   UNL     1      31.862 -11.583 -21.914  0.00  0.00    +0.341 C 
BRANCH  24  25
ATOM     25  O   UNL     1      32.002 -10.767 -23.004  0.00  0.00    -0.445 OA
BRANCH  25  26
ATOM     26  C   UNL     1      31.576  -9.408 -22.853  0.00  0.00    +0.209 C 
ATOM     27  C   UNL     1      32.781  -8.499 -22.976  0.00  0.00    +0.051 C 
ENDBRANCH  25  26
ENDBRANCH  24  25
ENDBRANCH  22  24
ENDBRANCH  16  17
ENDBRANCH  15  16
ENDBRANCH   1  15
TORSDOF 7
ENDMDL
MODEL 4
REMARK VINA RESULT:     -11.4      4.924     11.298
REMARK  Name = 71345
REMARK  7 active torsions:
REMARK  status: ('A' for Active; 'I' for Inactive)
REMARK    1  A    between atoms: C_1  and  C_5
REMARK    2  A    between atoms: C_1  and  C_15
REMARK    3  A    between atoms: C_15  and  O_16
REMARK    4  A    between atoms: O_16  and  C_17
REMARK    5  A    between atoms: C_22  and  C_24
REMARK    6  A    between atoms: C_24  and  O_25
REMARK    7  A    between atoms: O_25  and  C_26
REMARK                            x       y       z     vdW  Elec       q    Type
REMARK                         _______ _______ _______ _____ _____    ______ ____
ROOT
ATOM      1  C   UNL     1      34.032 -14.911 -21.650  0.00  0.00    +0.047 C 
ENDROOT
BRANCH   1   5
ATOM      2  N   UNL     1      32.206 -11.034 -22.094  0.00  0.00    -0.292 N 
ATOM      3  N   UNL     1      31.375  -9.175 -23.361  0.00  0.00    -0.133 NA
ATOM      4  N   UNL     1      30.931  -7.891 -23.428  0.00  0.00    -0.151 NA
ATOM      5  C   UNL     1      33.083 -13.794 -22.077  0.00  0.00    +0.007 C 
ATOM      6  C   UNL     1      32.410 -13.155 -20.859  0.00  0.00    +0.022 C 
ATOM      7  C   UNL     1      33.830 -12.717 -22.872  0.00  0.00    +0.022 C 
ATOM      8  C   UNL     1      31.487 -12.005 -21.263  0.00  0.00    +0.092 C 
ATOM      9  C   UNL     1      32.900 -11.573 -23.272  0.00  0.00    +0.092 C 
ATOM     10  C   UNL     1      31.748  -9.713 -22.163  0.00  0.00    +0.153 C 
ATOM     11  C   UNL     1      31.680  -8.959 -20.991  0.00  0.00    +0.037 C 
ATOM     12  C   UNL     1      31.228  -7.653 -21.059  0.00  0.00    +0.019 C 
ATOM     13  C   UNL     1      30.863  -7.159 -22.295  0.00  0.00    +0.081 C 
ATOM     14  C   UNL     1      30.370  -5.759 -22.424  0.00  0.00    +0.054 C 
ENDBRANCH   1   5
BRANCH   1  15
ATOM     15  C   UNL     1      34.091 -16.018 -22.686  0.00  0.00    +0.205 C 
BRANCH  15  16
ATOM     16  O   UNL     1      35.306 -16.735 -22.513  0.00  0.00    -0.475 OA
BRANCH  16  17
ATOM     17  C   UNL     1      35.259 -17.851 -21.718  0.00  0.00    +0.139 C 
ATOM     18  C   UNL     1      36.410 -18.286 -21.074  0.00  0.00    +0.037 C 
ATOM     19  C   UNL     1      34.059 -18.537 -21.566  0.00  0.00    +0.037 C 
ATOM     20  C   UNL     1      36.363 -19.422 -20.266  0.00  0.00    +0.010 C 
ATOM     21  C   UNL     1      34.011 -19.673 -20.759  0.00  0.00    +0.010 C 
ATOM     22  C   UNL     1      35.162 -20.116 -20.109  0.00  0.00    +0.076 C 
BRANCH  22  24
ATOM     23  O   UNL     1      34.259 -22.191 -19.359  0.00  0.00    -0.245 OA
ATOM     24  C   UNL     1      35.114 -21.301 -19.267  0.00  0.00    +0.341 C 
BRANCH  24  25
ATOM     25  O   UNL     1      36.134 -21.311 -18.354  0.00  0.00    -0.445 OA
BRANCH  25  26
ATOM     26  C   UNL     1      35.799 -21.695 -17.016  0.00  0.00    +0.209 C 
ATOM     27  C   UNL     1      37.059 -21.696 -16.175  0.00  0.00    +0.051 C 
ENDBRANCH  25  26
ENDBRANCH  24  25
ENDBRANCH  22  24
ENDBRANCH  16  17
ENDBRANCH  15  16
ENDBRANCH   1  15
TORSDOF 7
ENDMDL
MODEL 5
REMARK VINA RESULT:     -11.4      5.300     11.422
REMARK  Name = 71345
REMARK  7 active torsions:
REMARK  status: ('A' for Active; 'I' for Inactive)
REMARK    1  A    between atoms: C_1  and  C_5
REMARK    2  A    between atoms: C_1  and  C_15
REMARK    3  A    between atoms: C_15  and  O_16
REMARK    4  A    between atoms: O_16  and  C_17
REMARK    5  A    between atoms: C_22  and  C_24
REMARK    6  A    between atoms: C_24  and  O_25
REMARK    7  A    between atoms: O_25  and  C_26
REMARK                            x       y       z     vdW  Elec       q    Type
REMARK                         _______ _______ _______ _____ _____    ______ ____
ROOT
ATOM      1  C   UNL     1      33.361 -13.953 -22.800  0.00  0.00    +0.047 C 
ENDROOT
BRANCH   1   5
ATOM      2  N   UNL     1      31.872  -9.977 -22.067  0.00  0.00    -0.292 N 
ATOM      3  N   UNL     1      31.059  -7.823 -22.737  0.00  0.00    -0.133 NA
ATOM      4  N   UNL     1      30.736  -6.535 -22.442  0.00  0.00    -0.151 NA
ATOM      5  C   UNL     1      32.475 -12.710 -22.810  0.00  0.00    +0.007 C 
ATOM      6  C   UNL     1      32.038 -12.340 -21.390  0.00  0.00    +0.022 C 
ATOM      7  C   UNL     1      33.206 -11.524 -23.447  0.00  0.00    +0.022 C 
ATOM      8  C   UNL     1      31.183 -11.072 -21.376  0.00  0.00    +0.092 C 
ATOM      9  C   UNL     1      32.344 -10.262 -23.430  0.00  0.00    +0.092 C 
ATOM     10  C   UNL     1      31.538  -8.652 -21.764  0.00  0.00    +0.153 C 
ATOM     11  C   UNL     1      31.704  -8.196 -20.456  0.00  0.00    +0.037 C 
ATOM     12  C   UNL     1      31.374  -6.885 -20.156  0.00  0.00    +0.019 C 
ATOM     13  C   UNL     1      30.894  -6.090 -21.177  0.00  0.00    +0.081 C 
ATOM     14  C   UNL     1      30.525  -4.672 -20.907  0.00  0.00    +0.054 C 
ENDBRANCH   1   5
BRANCH   1  15
ATOM     15  C   UNL     1      33.323 -14.677 -24.133  0.00  0.00    +0.205 C 
BRANCH  15  16
ATOM     16  O   UNL     1      34.406 -15.597 -24.179  0.00  0.00    -0.475 OA
BRANCH  16  17
ATOM     17  C   UNL     1      34.384 -16.624 -23.271  0.00  0.00    +0.139 C 
ATOM     18  C   UNL     1      33.855 -17.855 -23.638  0.00  0.00    +0.037 C 
ATOM     19  C   UNL     1      34.888 -16.422 -21.992  0.00  0.00    +0.037 C 
ATOM     20  C   UNL     1      33.832 -18.900 -22.714  0.00  0.00    +0.010 C 
ATOM     21  C   UNL     1      34.864 -17.466 -21.067  0.00  0.00    +0.010 C 
ATOM     22  C   UNL     1      34.337 -18.705 -21.428  0.00  0.00    +0.076 C 
BRANCH  22  24
ATOM     23  O   UNL     1      33.309 -20.469 -20.197  0.00  0.00    -0.245 OA
ATOM     24  C   UNL     1      34.311 -19.794 -20.465  0.00  0.00    +0.341 C 
BRANCH  24  25
ATOM     25  O   UNL     1      35.537 -19.984 -19.888  0.00  0.00    -0.445 OA
BRANCH  25  26
ATOM     26  C   UNL     1      35.802 -21.281 -19.343  0.00  0.00    +0.209 C 
ATOM     27  C   UNL     1      36.072 -21.146 -17.860  0.00  0.00    +0.051 C 
ENDBRANCH  25  26
ENDBRANCH  24  25
ENDBRANCH  22  24
ENDBRANCH  16  17
ENDBRANCH  15  16
ENDBRANCH   1  15
TORSDOF 7
ENDMDL
MODEL 6
REMARK VINA RESULT:     -11.2      1.785      1.923
REMARK  Name = 71345
REMARK  7 active torsions:
REMARK  status: ('A' for Active; 'I' for Inactive)
REMARK    1  A    between atoms: C_1  and  C_5
REMARK    2  A    between atoms: C_1  and  C_15
REMARK    3  A    between atoms: C_15  and  O_16
REMARK    4  A    between atoms: O_16  and  C_17
REMARK    5  A    between atoms: C_22  and  C_24
REMARK    6  A    between atoms: C_24  and  O_25
REMARK    7  A    between atoms: O_25  and  C_26
REMARK                            x       y       z     vdW  Elec       q    Type
REMARK                         _______ _______ _______ _____ _____    ______ ____
ROOT
ATOM      1  C   UNL     1      35.317 -19.340 -20.949  0.00  0.00    +0.047 C 
ENDROOT
BRANCH   1   5
ATOM      2  N   UNL     1      33.158 -21.692 -18.057  0.00  0.00    -0.292 N 
ATOM      3  N   UNL     1      31.231 -22.857 -17.233  0.00  0.00    -0.133 NA
ATOM      4  N   UNL     1      30.561 -23.472 -16.221  0.00  0.00    -0.151 NA
ATOM      5  C   UNL     1      34.501 -20.458 -20.306  0.00  0.00    +0.007 C 
ATOM      6  C   UNL     1      35.281 -21.113 -19.162  0.00  0.00    +0.022 C 
ATOM      7  C   UNL     1      33.167 -19.925 -19.775  0.00  0.00    +0.022 C 
ATOM      8  C   UNL     1      34.464 -22.209 -18.478  0.00  0.00    +0.092 C 
ATOM      9  C   UNL     1      32.356 -21.027 -19.094  0.00  0.00    +0.092 C 
ATOM     10  C   UNL     1      32.469 -22.324 -17.016  0.00  0.00    +0.153 C 
ATOM     11  C   UNL     1      33.066 -22.400 -15.757  0.00  0.00    +0.037 C 
ATOM     12  C   UNL     1      32.385 -23.025 -14.728  0.00  0.00    +0.019 C 
ATOM     13  C   UNL     1      31.137 -23.547 -15.002  0.00  0.00    +0.081 C 
ATOM     14  C   UNL     1      30.361 -24.229 -13.928  0.00  0.00    +0.054 C 
ENDBRANCH   1   5
BRANCH   1  15
ATOM     15  C   UNL     1      34.434 -18.182 -21.378  0.00  0.00    +0.205 C 
BRANCH  15  16
ATOM     16  O   UNL     1      34.941 -16.987 -20.798  0.00  0.00    -0.475 OA
BRANCH  16  17
ATOM     17  C   UNL     1      34.449 -15.805 -21.287  0.00  0.00    +0.139 C 
ATOM     18  C   UNL     1      33.894 -14.878 -20.413  0.00  0.00    +0.037 C 
ATOM     19  C   UNL     1      34.507 -15.547 -22.651  0.00  0.00    +0.037 C 
ATOM     20  C   UNL     1      33.392 -13.675 -20.910  0.00  0.00    +0.010 C 
ATOM     21  C   UNL     1      34.005 -14.345 -23.149  0.00  0.00    +0.010 C 
ATOM     22  C   UNL     1      33.447 -13.409 -22.279  0.00  0.00    +0.076 C 
BRANCH  22  24
ATOM     23  O   UNL     1      33.449 -11.496 -23.702  0.00  0.00    -0.245 OA
ATOM     24  C   UNL     1      32.922 -12.155 -22.796  0.00  0.00    +0.341 C 
BRANCH  24  25
ATOM     25  O   UNL     1      31.769 -11.790 -22.155  0.00  0.00    -0.445 OA
BRANCH  25  26
ATOM     26  C   UNL     1      31.471 -10.390 -22.110  0.00  0.00    +0.209 C 
ATOM     27  C   UNL     1      30.846 -10.064 -20.770  0.00  0.00    +0.051 C 
ENDBRANCH  25  26
ENDBRANCH  24  25
ENDBRANCH  22  24
ENDBRANCH  16  17
ENDBRANCH  15  16
ENDBRANCH   1  15
TORSDOF 7
ENDMDL
MODEL 7
REMARK VINA RESULT:     -11.1      5.834     12.068
REMARK  Name = 71345
REMARK  7 active torsions:
REMARK  status: ('A' for Active; 'I' for Inactive)
REMARK    1  A    between atoms: C_1  and  C_5
REMARK    2  A    between atoms: C_1  and  C_15
REMARK    3  A    between atoms: C_15  and  O_16
REMARK    4  A    between atoms: O_16  and  C_17
REMARK    5  A    between atoms: C_22  and  C_24
REMARK    6  A    between atoms: C_24  and  O_25
REMARK    7  A    between atoms: O_25  and  C_26
REMARK                            x       y       z     vdW  Elec       q    Type
REMARK                         _______ _______ _______ _____ _____    ______ ____
ROOT
ATOM      1  C   UNL     1      32.356 -12.825 -21.681  0.00  0.00    +0.047 C 
ENDROOT
BRANCH   1   5
ATOM      2  N   UNL     1      31.256  -8.660 -21.752  0.00  0.00    -0.292 N 
ATOM      3  N   UNL     1      30.466  -6.658 -22.809  0.00  0.00    -0.133 NA
ATOM      4  N   UNL     1      30.276  -5.311 -22.802  0.00  0.00    -0.151 NA
ATOM      5  C   UNL     1      31.557 -11.538 -21.866  0.00  0.00    +0.007 C 
ATOM      6  C   UNL     1      31.399 -10.797 -20.536  0.00  0.00    +0.022 C 
ATOM      7  C   UNL     1      32.232 -10.618 -22.888  0.00  0.00    +0.022 C 
ATOM      8  C   UNL     1      30.637  -9.483 -20.708  0.00  0.00    +0.092 C 
ATOM      9  C   UNL     1      31.463  -9.308 -23.055  0.00  0.00    +0.092 C 
ATOM     10  C   UNL     1      31.060  -7.275 -21.745  0.00  0.00    +0.153 C 
ATOM     11  C   UNL     1      31.479  -6.538 -20.637  0.00  0.00    +0.037 C 
ATOM     12  C   UNL     1      31.285  -5.167 -20.630  0.00  0.00    +0.019 C 
ATOM     13  C   UNL     1      30.680  -4.595 -21.731  0.00  0.00    +0.081 C 
ATOM     14  C   UNL     1      30.449  -3.123 -21.774  0.00  0.00    +0.054 C 
ENDBRANCH   1   5
BRANCH   1  15
ATOM     15  C   UNL     1      33.617 -12.825 -22.526  0.00  0.00    +0.205 C 
BRANCH  15  16
ATOM     16  O   UNL     1      33.615 -13.990 -23.341  0.00  0.00    -0.475 OA
BRANCH  16  17
ATOM     17  C   UNL     1      34.049 -15.153 -22.759  0.00  0.00    +0.139 C 
ATOM     18  C   UNL     1      34.372 -16.242 -23.558  0.00  0.00    +0.037 C 
ATOM     19  C   UNL     1      34.158 -15.231 -21.375  0.00  0.00    +0.037 C 
ATOM     20  C   UNL     1      34.813 -17.427 -22.967  0.00  0.00    +0.010 C 
ATOM     21  C   UNL     1      34.597 -16.414 -20.783  0.00  0.00    +0.010 C 
ATOM     22  C   UNL     1      34.925 -17.512 -21.578  0.00  0.00    +0.076 C 
BRANCH  22  24
ATOM     23  O   UNL     1      36.456 -18.873 -20.359  0.00  0.00    -0.245 OA
ATOM     24  C   UNL     1      35.383 -18.747 -20.962  0.00  0.00    +0.341 C 
BRANCH  24  25
ATOM     25  O   UNL     1      34.478 -19.760 -21.132  0.00  0.00    -0.445 OA
BRANCH  25  26
ATOM     26  C   UNL     1      34.046 -20.445 -19.952  0.00  0.00    +0.209 C 
ATOM     27  C   UNL     1      32.535 -20.385 -19.873  0.00  0.00    +0.051 C 
ENDBRANCH  25  26
ENDBRANCH  24  25
ENDBRANCH  22  24
ENDBRANCH  16  17
ENDBRANCH  15  16
ENDBRANCH   1  15
TORSDOF 7
ENDMDL
MODEL 8
REMARK VINA RESULT:     -11.1      1.359      1.844
REMARK  Name = 71345
REMARK  7 active torsions:
REMARK  status: ('A' for Active; 'I' for Inactive)
REMARK    1  A    between atoms: C_1  and  C_5
REMARK    2  A    between atoms: C_1  and  C_15
REMARK    3  A    between atoms: C_15  and  O_16
REMARK    4  A    between atoms: O_16  and  C_17
REMARK    5  A    between atoms: C_22  and  C_24
REMARK    6  A    between atoms: C_24  and  O_25
REMARK    7  A    between atoms: O_25  and  C_26
REMARK                            x       y       z     vdW  Elec       q    Type
REMARK                         _______ _______ _______ _____ _____    ______ ____
ROOT
ATOM      1  C   UNL     1      34.023 -19.391 -21.043  0.00  0.00    +0.047 C 
ENDROOT
BRANCH   1   5
ATOM      2  N   UNL     1      34.775 -21.806 -17.556  0.00  0.00    -0.292 N 
ATOM      3  N   UNL     1      34.366 -23.657 -16.087  0.00  0.00    -0.133 NA
ATOM      4  N   UNL     1      34.557 -24.290 -14.898  0.00  0.00    -0.151 NA
ATOM      5  C   UNL     1      34.331 -20.585 -20.144  0.00  0.00    +0.007 C 
ATOM      6  C   UNL     1      35.624 -20.356 -19.357  0.00  0.00    +0.022 C 
ATOM      7  C   UNL     1      33.178 -20.847 -19.169  0.00  0.00    +0.022 C 
ATOM      8  C   UNL     1      35.928 -21.523 -18.418  0.00  0.00    +0.092 C 
ATOM      9  C   UNL     1      33.490 -22.016 -18.236  0.00  0.00    +0.092 C 
ATOM     10  C   UNL     1      34.973 -22.458 -16.334  0.00  0.00    +0.153 C 
ATOM     11  C   UNL     1      35.795 -21.866 -15.375  0.00  0.00    +0.037 C 
ATOM     12  C   UNL     1      35.990 -22.510 -14.166  0.00  0.00    +0.019 C 
ATOM     13  C   UNL     1      35.354 -23.719 -13.969  0.00  0.00    +0.081 C 
ATOM     14  C   UNL     1      35.529 -24.454 -12.685  0.00  0.00    +0.054 C 
ENDBRANCH   1   5
BRANCH   1  15
ATOM     15  C   UNL     1      35.241 -18.507 -21.234  0.00  0.00    +0.205 C 
BRANCH  15  16
ATOM     16  O   UNL     1      35.034 -17.292 -20.527  0.00  0.00    -0.475 OA
BRANCH  16  17
ATOM     17  C   UNL     1      34.596 -16.217 -21.258  0.00  0.00    +0.139 C 
ATOM     18  C   UNL     1      34.060 -15.114 -20.605  0.00  0.00    +0.037 C 
ATOM     19  C   UNL     1      34.691 -16.245 -22.644  0.00  0.00    +0.037 C 
ATOM     20  C   UNL     1      33.614 -14.021 -21.348  0.00  0.00    +0.010 C 
ATOM     21  C   UNL     1      34.244 -15.153 -23.388  0.00  0.00    +0.010 C 
ATOM     22  C   UNL     1      33.706 -14.041 -22.741  0.00  0.00    +0.076 C 
BRANCH  22  24
ATOM     23  O   UNL     1      33.535 -11.724 -23.275  0.00  0.00    -0.245 OA
ATOM     24  C   UNL     1      33.240 -12.902 -23.515  0.00  0.00    +0.341 C 
BRANCH  24  25
ATOM     25  O   UNL     1      32.430 -13.293 -24.546  0.00  0.00    -0.445 OA
BRANCH  25  26
ATOM     26  C   UNL     1      32.939 -13.114 -25.872  0.00  0.00    +0.209 C 
ATOM     27  C   UNL     1      31.887 -12.423 -26.715  0.00  0.00    +0.051 C 
ENDBRANCH  25  26
ENDBRANCH  24  25
ENDBRANCH  22  24
ENDBRANCH  16  17
ENDBRANCH  15  16
ENDBRANCH   1  15
TORSDOF 7
ENDMDL
MODEL 9
REMARK VINA RESULT:     -10.8      5.455     11.532
REMARK  Name = 71345
REMARK  7 active torsions:
REMARK  status: ('A' for Active; 'I' for Inactive)
REMARK    1  A    between atoms: C_1  and  C_5
REMARK    2  A    between atoms: C_1  and  C_15
REMARK    3  A    between atoms: C_15  and  O_16
REMARK    4  A    between atoms: O_16  and  C_17
REMARK    5  A    between atoms: C_22  and  C_24
REMARK    6  A    between atoms: C_24  and  O_25
REMARK    7  A    between atoms: O_25  and  C_26
REMARK                            x       y       z     vdW  Elec       q    Type
REMARK                         _______ _______ _______ _____ _____    ______ ____
ROOT
ATOM      1  C   UNL     1      32.895 -14.109 -23.126  0.00  0.00    +0.047 C 
ENDROOT
BRANCH   1   5
ATOM      2  N   UNL     1      31.944  -9.947 -22.548  0.00  0.00    -0.292 N 
ATOM      3  N   UNL     1      31.392  -8.027 -21.223  0.00  0.00    -0.133 NA
ATOM      4  N   UNL     1      30.955  -6.742 -21.123  0.00  0.00    -0.151 NA
ATOM      5  C   UNL     1      32.937 -12.666 -22.631  0.00  0.00    +0.007 C 
ATOM      6  C   UNL     1      33.151 -11.695 -23.796  0.00  0.00    +0.022 C 
ATOM      7  C   UNL     1      31.644 -12.304 -21.893  0.00  0.00    +0.022 C 
ATOM      8  C   UNL     1      33.154 -10.241 -23.325  0.00  0.00    +0.092 C 
ATOM      9  C   UNL     1      31.657 -10.850 -21.425  0.00  0.00    +0.092 C 
ATOM     10  C   UNL     1      31.496  -8.626 -22.446  0.00  0.00    +0.153 C 
ATOM     11  C   UNL     1      31.157  -7.934 -23.609  0.00  0.00    +0.037 C 
ATOM     12  C   UNL     1      30.713  -6.627 -23.508  0.00  0.00    +0.019 C 
ATOM     13  C   UNL     1      30.627  -6.070 -22.248  0.00  0.00    +0.081 C 
ATOM     14  C   UNL     1      30.154  -4.667 -22.083  0.00  0.00    +0.054 C 
ENDBRANCH   1   5
BRANCH   1  15
ATOM     15  C   UNL     1      34.248 -14.562 -23.643  0.00  0.00    +0.205 C 
BRANCH  15  16
ATOM     16  O   UNL     1      34.137 -15.909 -24.082  0.00  0.00    -0.475 OA
BRANCH  16  17
ATOM     17  C   UNL     1      34.383 -16.886 -23.152  0.00  0.00    +0.139 C 
ATOM     18  C   UNL     1      35.026 -16.558 -21.965  0.00  0.00    +0.037 C 
ATOM     19  C   UNL     1      33.990 -18.194 -23.408  0.00  0.00    +0.037 C 
ATOM     20  C   UNL     1      35.278 -17.552 -21.018  0.00  0.00    +0.010 C 
ATOM     21  C   UNL     1      34.242 -19.188 -22.463  0.00  0.00    +0.010 C 
ATOM     22  C   UNL     1      34.886 -18.867 -21.268  0.00  0.00    +0.076 C 
BRANCH  22  24
ATOM     23  O   UNL     1      36.049 -19.849 -19.434  0.00  0.00    -0.245 OA
ATOM     24  C   UNL     1      35.149 -19.903 -20.282  0.00  0.00    +0.341 C 
BRANCH  24  25
ATOM     25  O   UNL     1      34.277 -20.950 -20.407  0.00  0.00    -0.445 OA
BRANCH  25  26
ATOM     26  C   UNL     1      33.834 -21.570 -19.195  0.00  0.00    +0.209 C 
ATOM     27  C   UNL     1      32.421 -21.115 -18.898  0.00  0.00    +0.051 C 
ENDBRANCH  25  26
ENDBRANCH  24  25
ENDBRANCH  22  24
ENDBRANCH  16  17
ENDBRANCH  15  16
ENDBRANCH   1  15
TORSDOF 7
ENDMDL
