MODEL 1
REMARK VINA RESULT:     -12.9      0.000      0.000
REMARK  Name = 25195365
REMARK  5 active torsions:
REMARK  status: ('A' for Active; 'I' for Inactive)
REMARK    1  A    between atoms: C_1  and  C_3
REMARK    2  A    between atoms: C_1  and  C_17
REMARK    3  A    between atoms: C_4  and  C_9
REMARK    4  A    between atoms: C_6  and  O_15
REMARK    5  A    between atoms: C_18  and  C_23
REMARK                            x       y       z     vdW  Elec       q    Type
REMARK                         _______ _______ _______ _____ _____    ______ ____
ROOT
ATOM      1  C   UNL     1      35.324 -17.955 -22.187  0.00  0.00    +0.086 C 
ATOM      2  C   UNL     1      35.213 -18.571 -23.595  0.00  0.00    +0.019 C 
ENDROOT
BRANCH   1   3
ATOM      3  C   UNL     1      34.653 -16.628 -22.082  0.00  0.00    -0.007 C 
ATOM      4  C   UNL     1      33.397 -14.145 -21.883  0.00  0.00    +0.034 C 
ATOM      5  C   UNL     1      34.240 -15.961 -23.235  0.00  0.00    +0.034 C 
ATOM      6  C   UNL     1      33.613 -14.719 -23.136  0.00  0.00    +0.138 C 
ATOM      7  C   UNL     1      34.437 -16.053 -20.829  0.00  0.00    -0.003 C 
ATOM      8  C   UNL     1      33.809 -14.812 -20.730  0.00  0.00    +0.003 C 
BRANCH   4   9
ATOM      9  C   UNL     1      32.748 -12.857 -21.758  0.00  0.00    +0.003 C 
ATOM     10  C   UNL     1      31.970 -12.575 -20.635  0.00  0.00    +0.000 C 
ATOM     11  C   UNL     1      32.902 -11.898 -22.759  0.00  0.00    +0.000 C 
ATOM     12  C   UNL     1      31.345 -11.334 -20.514  0.00  0.00    +0.000 C 
ATOM     13  C   UNL     1      32.276 -10.657 -22.638  0.00  0.00    +0.000 C 
ATOM     14  C   UNL     1      31.498 -10.375 -21.515  0.00  0.00    +0.000 C 
ENDBRANCH   4   9
BRANCH   6  15
ATOM     15  O   UNL     1      33.218 -14.089 -24.280  0.00  0.00    -0.471 OA
ATOM     16  C   UNL     1      33.166 -14.877 -25.467  0.00  0.00    +0.252 C 
ENDBRANCH   6  15
ENDBRANCH   1   3
BRANCH   1  17
ATOM     17  C   UNL     1      34.818 -18.924 -21.180  0.00  0.00    -0.087 C 
ATOM     18  C   UNL     1      34.397 -19.718 -20.383  0.00  0.00    -0.076 C 
BRANCH  18  23
ATOM     19  N   UNL     1      34.305 -22.231 -17.653  0.00  0.00    -0.336 NA
ATOM     20  N   UNL     1      32.062 -21.880 -18.462  0.00  0.00    -0.317 NA
ATOM     21  N   UNL     1      31.640 -20.351 -20.216  0.00  0.00    -0.334 N 
ATOM     22  N   UNL     1      32.493 -23.396 -16.722  0.00  0.00    -0.283 N 
ATOM     23  C   UNL     1      33.897 -20.669 -19.439  0.00  0.00    +0.179 C 
ATOM     24  C   UNL     1      34.732 -21.328 -18.560  0.00  0.00    +0.120 C 
ATOM     25  C   UNL     1      32.558 -20.988 -19.343  0.00  0.00    +0.186 C 
ATOM     26  C   UNL     1      36.205 -21.072 -18.561  0.00  0.00    +0.064 C 
ATOM     27  C   UNL     1      32.977 -22.456 -17.659  0.00  0.00    +0.196 C 
ATOM     28  H   UNL     1      30.681 -20.566 -20.162  0.00  0.00    +0.144 HD
ATOM     29  H   UNL     1      31.962 -19.693 -20.874  0.00  0.00    +0.144 HD
ATOM     30  H   UNL     1      33.118 -23.846 -16.110  0.00  0.00    +0.156 HD
ATOM     31  H   UNL     1      31.530 -23.599 -16.681  0.00  0.00    +0.156 HD
ENDBRANCH  18  23
ENDBRANCH   1  17
TORSDOF 5
ENDMDL
MODEL 2
REMARK VINA RESULT:     -12.3      4.184      6.802
REMARK  Name = 25195365
REMARK  5 active torsions:
REMARK  status: ('A' for Active; 'I' for Inactive)
REMARK    1  A    between atoms: C_1  and  C_3
REMARK    2  A    between atoms: C_1  and  C_17
REMARK    3  A    between atoms: C_4  and  C_9
REMARK    4  A    between atoms: C_6  and  O_15
REMARK    5  A    between atoms: C_18  and  C_23
REMARK                            x       y       z     vdW  Elec       q    Type
REMARK                         _______ _______ _______ _____ _____    ______ ____
ROOT
ATOM      1  C   UNL     1      32.483 -22.724 -17.446  0.00  0.00    +0.086 C 
ATOM      2  C   UNL     1      31.120 -22.418 -16.797  0.00  0.00    +0.019 C 
ENDROOT
BRANCH   1   3
ATOM      3  C   UNL     1      32.875 -21.715 -18.471  0.00  0.00    -0.007 C 
ATOM      4  C   UNL     1      33.607 -19.826 -20.389  0.00  0.00    +0.034 C 
ATOM      5  C   UNL     1      34.223 -21.497 -18.757  0.00  0.00    +0.034 C 
ATOM      6  C   UNL     1      34.589 -20.552 -19.716  0.00  0.00    +0.138 C 
ATOM      7  C   UNL     1      31.894 -20.987 -19.144  0.00  0.00    -0.003 C 
ATOM      8  C   UNL     1      32.259 -20.043 -20.103  0.00  0.00    +0.003 C 
BRANCH   4   9
ATOM      9  C   UNL     1      33.965 -18.841 -21.387  0.00  0.00    +0.003 C 
ATOM     10  C   UNL     1      33.700 -19.085 -22.735  0.00  0.00    +0.000 C 
ATOM     11  C   UNL     1      34.574 -17.646 -21.001  0.00  0.00    +0.000 C 
ATOM     12  C   UNL     1      34.044 -18.135 -23.696  0.00  0.00    +0.000 C 
ATOM     13  C   UNL     1      34.919 -16.697 -21.963  0.00  0.00    +0.000 C 
ATOM     14  C   UNL     1      34.654 -16.942 -23.310  0.00  0.00    +0.000 C 
ENDBRANCH   4   9
BRANCH   6  15
ATOM     15  O   UNL     1      35.914 -20.361 -19.977  0.00  0.00    -0.471 OA
ATOM     16  C   UNL     1      36.703 -19.794 -18.933  0.00  0.00    +0.252 C 
ENDBRANCH   6  15
ENDBRANCH   1   3
BRANCH   1  17
ATOM     17  C   UNL     1      33.513 -22.881 -16.387  0.00  0.00    -0.087 C 
ATOM     18  C   UNL     1      34.330 -23.010 -15.515  0.00  0.00    -0.076 C 
BRANCH  18  23
ATOM     19  N   UNL     1      37.550 -22.885 -13.674  0.00  0.00    -0.336 NA
ATOM     20  N   UNL     1      35.886 -23.901 -12.258  0.00  0.00    -0.317 NA
ATOM     21  N   UNL     1      33.667 -24.190 -13.024  0.00  0.00    -0.334 N 
ATOM     22  N   UNL     1      38.091 -23.609 -11.509  0.00  0.00    -0.283 N 
ATOM     23  C   UNL     1      35.297 -23.169 -14.474  0.00  0.00    +0.179 C 
ATOM     24  C   UNL     1      36.605 -22.756 -14.628  0.00  0.00    +0.120 C 
ATOM     25  C   UNL     1      34.992 -23.740 -13.256  0.00  0.00    +0.186 C 
ATOM     26  C   UNL     1      37.065 -22.121 -15.902  0.00  0.00    +0.064 C 
ATOM     27  C   UNL     1      37.128 -23.457 -12.531  0.00  0.00    +0.196 C 
ATOM     28  H   UNL     1      33.430 -24.600 -12.162  0.00  0.00    +0.144 HD
ATOM     29  H   UNL     1      32.985 -24.091 -13.727  0.00  0.00    +0.144 HD
ATOM     30  H   UNL     1      39.014 -23.302 -11.654  0.00  0.00    +0.156 HD
ATOM     31  H   UNL     1      37.837 -24.021 -10.651  0.00  0.00    +0.156 HD
ENDBRANCH  18  23
ENDBRANCH   1  17
TORSDOF 5
ENDMDL
MODEL 3
REMARK VINA RESULT:     -12.1      4.403      8.816
REMARK  Name = 25195365
REMARK  5 active torsions:
REMARK  status: ('A' for Active; 'I' for Inactive)
REMARK    1  A    between atoms: C_1  and  C_3
REMARK    2  A    between atoms: C_1  and  C_17
REMARK    3  A    between atoms: C_4  and  C_9
REMARK    4  A    between atoms: C_6  and  O_15
REMARK    5  A    between atoms: C_18  and  C_23
REMARK                            x       y       z     vdW  Elec       q    Type
REMARK                         _______ _______ _______ _____ _____    ______ ____
ROOT
ATOM      1  C   UNL     1      35.564 -18.654 -22.079  0.00  0.00    +0.086 C 
ATOM      2  C   UNL     1      37.073 -18.459 -21.837  0.00  0.00    +0.019 C 
ENDROOT
BRANCH   1   3
ATOM      3  C   UNL     1      34.906 -19.462 -21.013  0.00  0.00    -0.007 C 
ATOM      4  C   UNL     1      33.676 -20.975 -19.018  0.00  0.00    +0.034 C 
ATOM      5  C   UNL     1      35.683 -20.179 -20.102  0.00  0.00    +0.034 C 
ATOM      6  C   UNL     1      35.067 -20.935 -19.104  0.00  0.00    +0.138 C 
ATOM      7  C   UNL     1      33.515 -19.503 -20.926  0.00  0.00    -0.003 C 
ATOM      8  C   UNL     1      32.899 -20.258 -19.929  0.00  0.00    +0.003 C 
BRANCH   4   9
ATOM      9  C   UNL     1      33.017 -21.754 -17.991  0.00  0.00    +0.003 C 
ATOM     10  C   UNL     1      33.762 -22.608 -17.178  0.00  0.00    +0.000 C 
ATOM     11  C   UNL     1      31.637 -21.650 -17.813  0.00  0.00    +0.000 C 
ATOM     12  C   UNL     1      33.128 -23.359 -16.189  0.00  0.00    +0.000 C 
ATOM     13  C   UNL     1      31.003 -22.401 -16.823  0.00  0.00    +0.000 C 
ATOM     14  C   UNL     1      31.749 -23.255 -16.011  0.00  0.00    +0.000 C 
ENDBRANCH   4   9
BRANCH   6  15
ATOM     15  O   UNL     1      35.850 -21.624 -18.226  0.00  0.00    -0.471 OA
ATOM     16  C   UNL     1      36.571 -20.859 -17.262  0.00  0.00    +0.252 C 
ENDBRANCH   6  15
ENDBRANCH   1   3
BRANCH   1  17
ATOM     17  C   UNL     1      34.915 -17.329 -22.261  0.00  0.00    -0.087 C 
ATOM     18  C   UNL     1      34.411 -16.248 -22.406  0.00  0.00    -0.076 C 
BRANCH  18  23
ATOM     19  N   UNL     1      32.979 -12.914 -21.625  0.00  0.00    -0.336 NA
ATOM     20  N   UNL     1      32.928 -13.241 -24.012  0.00  0.00    -0.317 NA
ATOM     21  N   UNL     1      33.746 -15.242 -24.971  0.00  0.00    -0.334 N 
ATOM     22  N   UNL     1      32.119 -11.260 -23.049  0.00  0.00    -0.283 N 
ATOM     23  C   UNL     1      33.818 -14.959 -22.580  0.00  0.00    +0.179 C 
ATOM     24  C   UNL     1      33.538 -14.137 -21.508  0.00  0.00    +0.120 C 
ATOM     25  C   UNL     1      33.488 -14.453 -23.821  0.00  0.00    +0.186 C 
ATOM     26  C   UNL     1      33.846 -14.566 -20.109  0.00  0.00    +0.064 C 
ATOM     27  C   UNL     1      32.704 -12.535 -22.887  0.00  0.00    +0.196 C 
ATOM     28  H   UNL     1      33.517 -14.899 -25.864  0.00  0.00    +0.144 HD
ATOM     29  H   UNL     1      34.154 -16.133 -24.874  0.00  0.00    +0.144 HD
ATOM     30  H   UNL     1      31.933 -10.700 -22.261  0.00  0.00    +0.156 HD
ATOM     31  H   UNL     1      31.897 -10.931 -23.950  0.00  0.00    +0.156 HD
ENDBRANCH  18  23
ENDBRANCH   1  17
TORSDOF 5
ENDMDL
MODEL 4
REMARK VINA RESULT:     -11.7      1.428      2.196
REMARK  Name = 25195365
REMARK  5 active torsions:
REMARK  status: ('A' for Active; 'I' for Inactive)
REMARK    1  A    between atoms: C_1  and  C_3
REMARK    2  A    between atoms: C_1  and  C_17
REMARK    3  A    between atoms: C_4  and  C_9
REMARK    4  A    between atoms: C_6  and  O_15
REMARK    5  A    between atoms: C_18  and  C_23
REMARK                            x       y       z     vdW  Elec       q    Type
REMARK                         _______ _______ _______ _____ _____    ______ ____
ROOT
ATOM      1  C   UNL     1      34.526 -17.028 -23.530  0.00  0.00    +0.086 C 
ATOM      2  C   UNL     1      33.841 -17.662 -24.757  0.00  0.00    +0.019 C 
ENDROOT
BRANCH   1   3
ATOM      3  C   UNL     1      33.961 -15.694 -23.177  0.00  0.00    -0.007 C 
ATOM      4  C   UNL     1      32.904 -13.199 -22.515  0.00  0.00    +0.034 C 
ATOM      5  C   UNL     1      33.301 -14.938 -24.145  0.00  0.00    +0.034 C 
ATOM      6  C   UNL     1      32.772 -13.689 -23.814  0.00  0.00    +0.138 C 
ATOM      7  C   UNL     1      34.093 -15.203 -21.879  0.00  0.00    -0.003 C 
ATOM      8  C   UNL     1      33.565 -13.956 -21.547  0.00  0.00    +0.003 C 
BRANCH   4   9
ATOM      9  C   UNL     1      32.364 -11.907 -22.151  0.00  0.00    +0.003 C 
ATOM     10  C   UNL     1      31.586 -11.775 -21.001  0.00  0.00    +0.000 C 
ATOM     11  C   UNL     1      32.623 -10.792 -22.949  0.00  0.00    +0.000 C 
ATOM     12  C   UNL     1      31.066 -10.530 -20.649  0.00  0.00    +0.000 C 
ATOM     13  C   UNL     1      32.103  -9.547 -22.598  0.00  0.00    +0.000 C 
ATOM     14  C   UNL     1      31.324  -9.416 -21.448  0.00  0.00    +0.000 C 
ENDBRANCH   4   9
BRANCH   6  15
ATOM     15  O   UNL     1      32.130 -12.972 -24.779  0.00  0.00    -0.471 OA
ATOM     16  C   UNL     1      32.735 -12.939 -26.071  0.00  0.00    +0.252 C 
ENDBRANCH   6  15
ENDBRANCH   1   3
BRANCH   1  17
ATOM     17  C   UNL     1      34.479 -17.980 -22.390  0.00  0.00    -0.087 C 
ATOM     18  C   UNL     1      34.429 -18.764 -21.480  0.00  0.00    -0.076 C 
BRANCH  18  23
ATOM     19  N   UNL     1      33.084 -21.194 -19.019  0.00  0.00    -0.336 NA
ATOM     20  N   UNL     1      35.453 -20.947 -18.651  0.00  0.00    -0.317 NA
ATOM     21  N   UNL     1      36.735 -19.486 -19.999  0.00  0.00    -0.334 N 
ATOM     22  N   UNL     1      34.171 -22.395 -17.321  0.00  0.00    -0.283 N 
ATOM     23  C   UNL     1      34.371 -19.702 -20.403  0.00  0.00    +0.179 C 
ATOM     24  C   UNL     1      33.187 -20.305 -20.028  0.00  0.00    +0.120 C 
ATOM     25  C   UNL     1      35.482 -20.065 -19.671  0.00  0.00    +0.186 C 
ATOM     26  C   UNL     1      31.908 -19.996 -20.740  0.00  0.00    +0.064 C 
ATOM     27  C   UNL     1      34.239 -21.466 -18.383  0.00  0.00    +0.196 C 
ATOM     28  H   UNL     1      37.539 -19.733 -19.488  0.00  0.00    +0.144 HD
ATOM     29  H   UNL     1      36.799 -18.838 -20.737  0.00  0.00    +0.144 HD
ATOM     30  H   UNL     1      33.309 -22.805 -17.082  0.00  0.00    +0.156 HD
ATOM     31  H   UNL     1      34.985 -22.631 -16.821  0.00  0.00    +0.156 HD
ENDBRANCH  18  23
ENDBRANCH   1  17
TORSDOF 5
ENDMDL
MODEL 5
REMARK VINA RESULT:     -11.6      4.981      9.451
REMARK  Name = 25195365
REMARK  5 active torsions:
REMARK  status: ('A' for Active; 'I' for Inactive)
REMARK    1  A    between atoms: C_1  and  C_3
REMARK    2  A    between atoms: C_1  and  C_17
REMARK    3  A    between atoms: C_4  and  C_9
REMARK    4  A    between atoms: C_6  and  O_15
REMARK    5  A    between atoms: C_18  and  C_23
REMARK                            x       y       z     vdW  Elec       q    Type
REMARK                         _______ _______ _______ _____ _____    ______ ____
ROOT
ATOM      1  C   UNL     1      32.656 -13.200 -24.963  0.00  0.00    +0.086 C 
ATOM      2  C   UNL     1      33.475 -12.887 -26.230  0.00  0.00    +0.019 C 
ENDROOT
BRANCH   1   3
ATOM      3  C   UNL     1      33.221 -14.332 -24.175  0.00  0.00    -0.007 C 
ATOM      4  C   UNL     1      34.277 -16.452 -22.701  0.00  0.00    +0.034 C 
ATOM      5  C   UNL     1      33.470 -14.178 -22.811  0.00  0.00    +0.034 C 
ATOM      6  C   UNL     1      33.999 -15.238 -22.074  0.00  0.00    +0.138 C 
ATOM      7  C   UNL     1      33.500 -15.547 -24.801  0.00  0.00    -0.003 C 
ATOM      8  C   UNL     1      34.027 -16.607 -24.065  0.00  0.00    +0.003 C 
BRANCH   4   9
ATOM      9  C   UNL     1      34.826 -17.564 -21.955  0.00  0.00    +0.003 C 
ATOM     10  C   UNL     1      33.974 -18.517 -21.395  0.00  0.00    +0.000 C 
ATOM     11  C   UNL     1      36.207 -17.684 -21.796  0.00  0.00    +0.000 C 
ATOM     12  C   UNL     1      34.503 -19.589 -20.677  0.00  0.00    +0.000 C 
ATOM     13  C   UNL     1      36.735 -18.756 -21.077  0.00  0.00    +0.000 C 
ATOM     14  C   UNL     1      35.884 -19.708 -20.518  0.00  0.00    +0.000 C 
ENDBRANCH   4   9
BRANCH   6  15
ATOM     15  O   UNL     1      34.231 -15.059 -20.742  0.00  0.00    -0.471 OA
ATOM     16  C   UNL     1      33.343 -14.192 -20.041  0.00  0.00    +0.252 C 
ENDBRANCH   6  15
ENDBRANCH   1   3
BRANCH   1  17
ATOM     17  C   UNL     1      32.510 -11.965 -24.150  0.00  0.00    -0.087 C 
ATOM     18  C   UNL     1      32.369 -10.968 -23.494  0.00  0.00    -0.076 C 
BRANCH  18  23
ATOM     19  N   UNL     1      32.894  -7.551 -22.144  0.00  0.00    -0.336 NA
ATOM     20  N   UNL     1      31.013  -8.551 -21.016  0.00  0.00    -0.317 NA
ATOM     21  N   UNL     1      30.311 -10.743 -21.559  0.00  0.00    -0.334 N 
ATOM     22  N   UNL     1      31.720  -6.376 -20.487  0.00  0.00    -0.283 N 
ATOM     23  C   UNL     1      32.195  -9.783 -22.712  0.00  0.00    +0.179 C 
ATOM     24  C   UNL     1      33.020  -8.688 -22.859  0.00  0.00    +0.120 C 
ATOM     25  C   UNL     1      31.199  -9.656 -21.766  0.00  0.00    +0.186 C 
ATOM     26  C   UNL     1      34.140  -8.696 -23.851  0.00  0.00    +0.064 C 
ATOM     27  C   UNL     1      31.883  -7.550 -21.254  0.00  0.00    +0.196 C 
ATOM     28  H   UNL     1      29.594 -10.671 -20.888  0.00  0.00    +0.144 HD
ATOM     29  H   UNL     1      30.412 -11.568 -22.086  0.00  0.00    +0.144 HD
ATOM     30  H   UNL     1      32.327  -5.614 -20.619  0.00  0.00    +0.156 HD
ATOM     31  H   UNL     1      30.997  -6.320 -19.820  0.00  0.00    +0.156 HD
ENDBRANCH  18  23
ENDBRANCH   1  17
TORSDOF 5
ENDMDL
MODEL 6
REMARK VINA RESULT:     -11.5      5.764      9.637
REMARK  Name = 25195365
REMARK  5 active torsions:
REMARK  status: ('A' for Active; 'I' for Inactive)
REMARK    1  A    between atoms: C_1  and  C_3
REMARK    2  A    between atoms: C_1  and  C_17
REMARK    3  A    between atoms: C_4  and  C_9
REMARK    4  A    between atoms: C_6  and  O_15
REMARK    5  A    between atoms: C_18  and  C_23
REMARK                            x       y       z     vdW  Elec       q    Type
REMARK                         _______ _______ _______ _____ _____    ______ ____
ROOT
ATOM      1  C   UNL     1      32.662 -13.219 -24.992  0.00  0.00    +0.086 C 
ATOM      2  C   UNL     1      33.408 -12.994 -26.320  0.00  0.00    +0.019 C 
ENDROOT
BRANCH   1   3
ATOM      3  C   UNL     1      33.229 -14.343 -24.193  0.00  0.00    -0.007 C 
ATOM      4  C   UNL     1      34.289 -16.448 -22.700  0.00  0.00    +0.034 C 
ATOM      5  C   UNL     1      33.475 -14.177 -22.830  0.00  0.00    +0.034 C 
ATOM      6  C   UNL     1      34.006 -15.229 -22.083  0.00  0.00    +0.138 C 
ATOM      7  C   UNL     1      33.513 -15.562 -24.809  0.00  0.00    -0.003 C 
ATOM      8  C   UNL     1      34.042 -16.614 -24.063  0.00  0.00    +0.003 C 
BRANCH   4   9
ATOM      9  C   UNL     1      34.840 -17.552 -21.945  0.00  0.00    +0.003 C 
ATOM     10  C   UNL     1      36.222 -17.672 -21.791  0.00  0.00    +0.000 C 
ATOM     11  C   UNL     1      33.991 -18.497 -21.369  0.00  0.00    +0.000 C 
ATOM     12  C   UNL     1      36.753 -18.735 -21.062  0.00  0.00    +0.000 C 
ATOM     13  C   UNL     1      34.523 -19.561 -20.640  0.00  0.00    +0.000 C 
ATOM     14  C   UNL     1      35.904 -19.679 -20.487  0.00  0.00    +0.000 C 
ENDBRANCH   4   9
BRANCH   6  15
ATOM     15  O   UNL     1      34.236 -15.040 -20.753  0.00  0.00    -0.471 OA
ATOM     16  C   UNL     1      33.337 -14.178 -20.058  0.00  0.00    +0.252 C 
ENDBRANCH   6  15
ENDBRANCH   1   3
BRANCH   1  17
ATOM     17  C   UNL     1      32.621 -11.947 -24.224  0.00  0.00    -0.087 C 
ATOM     18  C   UNL     1      32.576 -10.910 -23.620  0.00  0.00    -0.076 C 
BRANCH  18  23
ATOM     19  N   UNL     1      31.402  -8.248 -21.316  0.00  0.00    -0.336 NA
ATOM     20  N   UNL     1      33.428  -7.506 -22.391  0.00  0.00    -0.317 NA
ATOM     21  N   UNL     1      34.537  -8.891 -23.954  0.00  0.00    -0.334 N 
ATOM     22  N   UNL     1      32.318  -6.141 -20.837  0.00  0.00    -0.283 N 
ATOM     23  C   UNL     1      32.516  -9.673 -22.904  0.00  0.00    +0.179 C 
ATOM     24  C   UNL     1      31.499  -9.399 -22.012  0.00  0.00    +0.120 C 
ATOM     25  C   UNL     1      33.461  -8.680 -23.054  0.00  0.00    +0.186 C 
ATOM     26  C   UNL     1      30.410 -10.392 -21.759  0.00  0.00    +0.064 C 
ATOM     27  C   UNL     1      32.386  -7.359 -21.550  0.00  0.00    +0.196 C 
ATOM     28  H   UNL     1      35.222  -8.194 -24.075  0.00  0.00    +0.144 HD
ATOM     29  H   UNL     1      34.598  -9.735 -24.458  0.00  0.00    +0.144 HD
ATOM     30  H   UNL     1      31.578  -5.980 -20.209  0.00  0.00    +0.156 HD
ATOM     31  H   UNL     1      33.012  -5.454 -20.968  0.00  0.00    +0.156 HD
ENDBRANCH  18  23
ENDBRANCH   1  17
TORSDOF 5
ENDMDL
MODEL 7
REMARK VINA RESULT:     -11.4      4.976      9.398
REMARK  Name = 25195365
REMARK  5 active torsions:
REMARK  status: ('A' for Active; 'I' for Inactive)
REMARK    1  A    between atoms: C_1  and  C_3
REMARK    2  A    between atoms: C_1  and  C_17
REMARK    3  A    between atoms: C_4  and  C_9
REMARK    4  A    between atoms: C_6  and  O_15
REMARK    5  A    between atoms: C_18  and  C_23
REMARK                            x       y       z     vdW  Elec       q    Type
REMARK                         _______ _______ _______ _____ _____    ______ ____
ROOT
ATOM      1  C   UNL     1      32.652 -13.139 -24.888  0.00  0.00    +0.086 C 
ATOM      2  C   UNL     1      33.478 -12.785 -26.140  0.00  0.00    +0.019 C 
ENDROOT
BRANCH   1   3
ATOM      3  C   UNL     1      33.219 -14.289 -24.127  0.00  0.00    -0.007 C 
ATOM      4  C   UNL     1      34.281 -16.440 -22.703  0.00  0.00    +0.034 C 
ATOM      5  C   UNL     1      33.312 -15.545 -24.727  0.00  0.00    +0.034 C 
ATOM      6  C   UNL     1      33.842 -16.621 -24.015  0.00  0.00    +0.138 C 
ATOM      7  C   UNL     1      33.658 -14.109 -22.816  0.00  0.00    -0.003 C 
ATOM      8  C   UNL     1      34.189 -15.184 -22.104  0.00  0.00    +0.003 C 
BRANCH   4   9
ATOM      9  C   UNL     1      34.834 -17.542 -21.947  0.00  0.00    +0.003 C 
ATOM     10  C   UNL     1      36.216 -17.670 -21.808  0.00  0.00    +0.000 C 
ATOM     11  C   UNL     1      33.985 -18.478 -21.355  0.00  0.00    +0.000 C 
ATOM     12  C   UNL     1      36.749 -18.732 -21.078  0.00  0.00    +0.000 C 
ATOM     13  C   UNL     1      34.519 -19.541 -20.626  0.00  0.00    +0.000 C 
ATOM     14  C   UNL     1      35.900 -19.667 -20.487  0.00  0.00    +0.000 C 
ENDBRANCH   4   9
BRANCH   6  15
ATOM     15  O   UNL     1      33.922 -17.837 -24.626  0.00  0.00    -0.471 OA
ATOM     16  C   UNL     1      32.704 -18.559 -24.792  0.00  0.00    +0.252 C 
ENDBRANCH   6  15
ENDBRANCH   1   3
BRANCH   1  17
ATOM     17  C   UNL     1      32.492 -11.928 -24.041  0.00  0.00    -0.087 C 
ATOM     18  C   UNL     1      32.345 -10.942 -23.371  0.00  0.00    -0.076 C 
BRANCH  18  23
ATOM     19  N   UNL     1      32.816  -7.518 -22.017  0.00  0.00    -0.336 NA
ATOM     20  N   UNL     1      31.008  -8.581 -20.829  0.00  0.00    -0.317 NA
ATOM     21  N   UNL     1      30.352 -10.790 -21.361  0.00  0.00    -0.334 N 
ATOM     22  N   UNL     1      31.668  -6.389 -20.310  0.00  0.00    -0.283 N 
ATOM     23  C   UNL     1      32.164  -9.768 -22.575  0.00  0.00    +0.179 C 
ATOM     24  C   UNL     1      32.950  -8.647 -22.744  0.00  0.00    +0.120 C 
ATOM     25  C   UNL     1      31.199  -9.676 -21.593  0.00  0.00    +0.186 C 
ATOM     26  C   UNL     1      34.033  -8.616 -23.775  0.00  0.00    +0.064 C 
ATOM     27  C   UNL     1      31.839  -7.554 -21.091  0.00  0.00    +0.196 C 
ATOM     28  H   UNL     1      29.659 -10.744 -20.665  0.00  0.00    +0.144 HD
ATOM     29  H   UNL     1      30.460 -11.609 -21.897  0.00  0.00    +0.144 HD
ATOM     30  H   UNL     1      32.247  -5.608 -20.459  0.00  0.00    +0.156 HD
ATOM     31  H   UNL     1      30.968  -6.359 -19.618  0.00  0.00    +0.156 HD
ENDBRANCH  18  23
ENDBRANCH   1  17
TORSDOF 5
ENDMDL
MODEL 8
REMARK VINA RESULT:     -11.4      1.997      3.446
REMARK  Name = 25195365
REMARK  5 active torsions:
REMARK  status: ('A' for Active; 'I' for Inactive)
REMARK    1  A    between atoms: C_1  and  C_3
REMARK    2  A    between atoms: C_1  and  C_17
REMARK    3  A    between atoms: C_4  and  C_9
REMARK    4  A    between atoms: C_6  and  O_15
REMARK    5  A    between atoms: C_18  and  C_23
REMARK                            x       y       z     vdW  Elec       q    Type
REMARK                         _______ _______ _______ _____ _____    ______ ____
ROOT
ATOM      1  C   UNL     1      33.914 -16.545 -24.347  0.00  0.00    +0.086 C 
ATOM      2  C   UNL     1      32.854 -17.251 -25.214  0.00  0.00    +0.019 C 
ENDROOT
BRANCH   1   3
ATOM      3  C   UNL     1      33.495 -15.180 -23.917  0.00  0.00    -0.007 C 
ATOM      4  C   UNL     1      32.710 -12.626 -23.115  0.00  0.00    +0.034 C 
ATOM      5  C   UNL     1      33.567 -14.819 -22.572  0.00  0.00    +0.034 C 
ATOM      6  C   UNL     1      33.174 -13.542 -22.170  0.00  0.00    +0.138 C 
ATOM      7  C   UNL     1      33.029 -14.264 -24.861  0.00  0.00    -0.003 C 
ATOM      8  C   UNL     1      32.637 -12.988 -24.460  0.00  0.00    +0.003 C 
BRANCH   4   9
ATOM      9  C   UNL     1      32.296 -11.297 -22.720  0.00  0.00    +0.003 C 
ATOM     10  C   UNL     1      32.969 -10.180 -23.218  0.00  0.00    +0.000 C 
ATOM     11  C   UNL     1      31.226 -11.131 -21.841  0.00  0.00    +0.000 C 
ATOM     12  C   UNL     1      32.570  -8.899 -22.838  0.00  0.00    +0.000 C 
ATOM     13  C   UNL     1      30.828  -9.849 -21.461  0.00  0.00    +0.000 C 
ATOM     14  C   UNL     1      31.500  -8.734 -21.960  0.00  0.00    +0.000 C 
ENDBRANCH   4   9
BRANCH   6  15
ATOM     15  O   UNL     1      33.257 -13.215 -20.850  0.00  0.00    -0.471 OA
ATOM     16  C   UNL     1      32.374 -13.893 -19.958  0.00  0.00    +0.252 C 
ENDBRANCH   6  15
ENDBRANCH   1   3
BRANCH   1  17
ATOM     17  C   UNL     1      34.272 -17.413 -23.195  0.00  0.00    -0.087 C 
ATOM     18  C   UNL     1      34.542 -18.128 -22.268  0.00  0.00    -0.076 C 
BRANCH  18  23
ATOM     19  N   UNL     1      34.158 -20.586 -19.514  0.00  0.00    -0.336 NA
ATOM     20  N   UNL     1      36.462 -19.887 -19.615  0.00  0.00    -0.317 NA
ATOM     21  N   UNL     1      37.173 -18.314 -21.232  0.00  0.00    -0.334 N 
ATOM     22  N   UNL     1      35.744 -21.447 -18.015  0.00  0.00    -0.283 N 
ATOM     23  C   UNL     1      34.861 -18.984 -21.168  0.00  0.00    +0.179 C 
ATOM     24  C   UNL     1      33.903 -19.764 -20.553  0.00  0.00    +0.120 C 
ATOM     25  C   UNL     1      36.136 -19.087 -20.651  0.00  0.00    +0.186 C 
ATOM     26  C   UNL     1      32.482 -19.744 -21.017  0.00  0.00    +0.064 C 
ATOM     27  C   UNL     1      35.440 -20.598 -19.102  0.00  0.00    +0.196 C 
ATOM     28  H   UNL     1      38.089 -18.374 -20.876  0.00  0.00    +0.144 HD
ATOM     29  H   UNL     1      36.976 -17.718 -21.990  0.00  0.00    +0.144 HD
ATOM     30  H   UNL     1      35.036 -21.990 -17.601  0.00  0.00    +0.156 HD
ATOM     31  H   UNL     1      36.666 -21.496 -17.672  0.00  0.00    +0.156 HD
ENDBRANCH  18  23
ENDBRANCH   1  17
TORSDOF 5
ENDMDL
MODEL 9
REMARK VINA RESULT:     -11.2      5.025      7.600
REMARK  Name = 25195365
REMARK  5 active torsions:
REMARK  status: ('A' for Active; 'I' for Inactive)
REMARK    1  A    between atoms: C_1  and  C_3
REMARK    2  A    between atoms: C_1  and  C_17
REMARK    3  A    between atoms: C_4  and  C_9
REMARK    4  A    between atoms: C_6  and  O_15
REMARK    5  A    between atoms: C_18  and  C_23
REMARK                            x       y       z     vdW  Elec       q    Type
REMARK                         _______ _______ _______ _____ _____    ______ ____
ROOT
ATOM      1  C   UNL     1      31.943 -22.929 -16.910  0.00  0.00    +0.086 C 
ATOM      2  C   UNL     1      30.552 -22.400 -16.512  0.00  0.00    +0.019 C 
ENDROOT
BRANCH   1   3
ATOM      3  C   UNL     1      32.632 -22.054 -17.901  0.00  0.00    -0.007 C 
ATOM      4  C   UNL     1      33.920 -20.417 -19.757  0.00  0.00    +0.034 C 
ATOM      5  C   UNL     1      34.025 -21.977 -17.915  0.00  0.00    +0.034 C 
ATOM      6  C   UNL     1      34.669 -21.158 -18.843  0.00  0.00    +0.138 C 
ATOM      7  C   UNL     1      31.884 -21.312 -18.816  0.00  0.00    -0.003 C 
ATOM      8  C   UNL     1      32.527 -20.495 -19.744  0.00  0.00    +0.003 C 
BRANCH   4   9
ATOM      9  C   UNL     1      34.568 -19.562 -20.728  0.00  0.00    +0.003 C 
ATOM     10  C   UNL     1      33.906 -19.216 -21.906  0.00  0.00    +0.000 C 
ATOM     11  C   UNL     1      35.856 -19.082 -20.485  0.00  0.00    +0.000 C 
ATOM     12  C   UNL     1      34.530 -18.390 -22.840  0.00  0.00    +0.000 C 
ATOM     13  C   UNL     1      36.480 -18.256 -21.421  0.00  0.00    +0.000 C 
ATOM     14  C   UNL     1      35.817 -17.911 -22.598  0.00  0.00    +0.000 C 
ENDBRANCH   4   9
BRANCH   6  15
ATOM     15  O   UNL     1      36.031 -21.103 -18.835  0.00  0.00    -0.471 OA
ATOM     16  C   UNL     1      36.677 -21.244 -17.571  0.00  0.00    +0.252 C 
ENDBRANCH   6  15
ENDBRANCH   1   3
BRANCH   1  17
ATOM     17  C   UNL     1      32.759 -23.146 -15.687  0.00  0.00    -0.087 C 
ATOM     18  C   UNL     1      33.439 -23.320 -14.711  0.00  0.00    -0.076 C 
BRANCH  18  23
ATOM     19  N   UNL     1      36.350 -24.194 -12.582  0.00  0.00    -0.336 NA
ATOM     20  N   UNL     1      34.548 -23.449 -11.166  0.00  0.00    -0.317 NA
ATOM     21  N   UNL     1      32.479 -22.785 -12.099  0.00  0.00    -0.334 N 
ATOM     22  N   UNL     1      36.607 -24.110 -10.251  0.00  0.00    -0.283 N 
ATOM     23  C   UNL     1      34.252 -23.522 -13.553  0.00  0.00    +0.179 C 
ATOM     24  C   UNL     1      35.547 -23.988 -13.647  0.00  0.00    +0.120 C 
ATOM     25  C   UNL     1      33.802 -23.267 -12.274  0.00  0.00    +0.186 C 
ATOM     26  C   UNL     1      36.156 -24.304 -14.976  0.00  0.00    +0.064 C 
ATOM     27  C   UNL     1      35.795 -23.907 -11.389  0.00  0.00    +0.196 C 
ATOM     28  H   UNL     1      32.140 -22.597 -11.194  0.00  0.00    +0.144 HD
ATOM     29  H   UNL     1      31.901 -22.639 -12.883  0.00  0.00    +0.144 HD
ATOM     30  H   UNL     1      37.526 -24.444 -10.356  0.00  0.00    +0.156 HD
ATOM     31  H   UNL     1      36.252 -23.916  -9.353  0.00  0.00    +0.156 HD
ENDBRANCH  18  23
ENDBRANCH   1  17
TORSDOF 5
ENDMDL
