MODEL 1
REMARK VINA RESULT:     -11.8      0.000      0.000
REMARK  Name = 9935681
REMARK  12 active torsions:
REMARK  status: ('A' for Active; 'I' for Inactive)
REMARK    1  A    between atoms: C_1  and  C_21
REMARK    2  A    between atoms: C_2  and  C_7
REMARK    3  A    between atoms: C_8  and  O_13
REMARK    4  A    between atoms: C_9  and  O_15
REMARK    5  A    between atoms: C_10  and  C_17
REMARK    6  A    between atoms: C_17  and  O_18
REMARK    7  A    between atoms: O_18  and  C_19
REMARK    8  A    between atoms: C_21  and  CA_22
REMARK    9  A    between atoms: CA_22  and  N_24
REMARK   10  A    between atoms: CA_22  and  C_36
REMARK   11  A    between atoms: C_25  and  C_29
REMARK   12  A    between atoms: C_36  and  O_37
REMARK                            x       y       z     vdW  Elec       q    Type
REMARK                         _______ _______ _______ _____ _____    ______ ____
ROOT
ATOM      1  C   UNL     1      35.256 -20.195 -19.913  0.00  0.00    -0.020 C 
ATOM      2  C   UNL     1      34.628 -18.077 -21.586  0.00  0.00    +0.006 C 
ATOM      3  C   UNL     1      33.934 -19.976 -20.264  0.00  0.00    -0.004 C 
ATOM      4  C   UNL     1      36.271 -19.375 -20.382  0.00  0.00    -0.004 C 
ATOM      5  C   UNL     1      33.617 -18.910 -21.106  0.00  0.00    -0.000 C 
ATOM      6  C   UNL     1      35.954 -18.309 -21.224  0.00  0.00    -0.000 C 
ENDROOT
BRANCH   2   7
ATOM      7  C   UNL     1      34.300 -16.972 -22.460  0.00  0.00    +0.068 C 
ATOM      8  C   UNL     1      34.070 -17.196 -23.820  0.00  0.00    +0.141 C 
ATOM      9  C   UNL     1      34.210 -15.674 -21.948  0.00  0.00    +0.141 C 
ATOM     10  C   UNL     1      33.666 -14.837 -24.149  0.00  0.00    +0.013 C 
ATOM     11  C   UNL     1      33.753 -16.130 -24.663  0.00  0.00    +0.035 C 
ATOM     12  C   UNL     1      33.894 -14.609 -22.792  0.00  0.00    +0.035 C 
BRANCH   8  13
ATOM     13  O   UNL     1      34.147 -18.450 -24.351  0.00  0.00    -0.471 OA
ATOM     14  C   UNL     1      32.922 -19.061 -24.746  0.00  0.00    +0.252 C 
ENDBRANCH   8  13
BRANCH   9  15
ATOM     15  O   UNL     1      34.428 -15.420 -20.626  0.00  0.00    -0.471 OA
ATOM     16  C   UNL     1      33.564 -14.477 -19.998  0.00  0.00    +0.252 C 
ENDBRANCH   9  15
BRANCH  10  17
ATOM     17  C   UNL     1      33.325 -13.698 -25.049  0.00  0.00    +0.169 C 
BRANCH  17  18
ATOM     18  O   UNL     1      32.468 -12.793 -24.364  0.00  0.00    -0.349 OA
BRANCH  18  19
ATOM     19  C   UNL     1      33.130 -11.570 -24.070  0.00  0.00    +0.143 C 
ATOM     20  C   UNL     1      32.389 -10.864 -22.956  0.00  0.00    +0.035 C 
ENDBRANCH  18  19
ENDBRANCH  17  18
ENDBRANCH  10  17
ENDBRANCH   2   7
BRANCH   1  21
ATOM     21  C   UNL     1      35.598 -21.348 -19.001  0.00  0.00    +0.057 C 
BRANCH  21  22
ATOM     22  CA  UNL     1      34.498 -21.648 -17.975  0.00  0.00    +0.176 C 
BRANCH  22  24
ATOM     23  O   UNL     1      36.520 -20.808 -16.119  0.00  0.00    -0.270 OA
ATOM     24  N   UNL     1      35.015 -22.407 -16.865  0.00  0.00    -0.293 N 
ATOM     25  C   UNL     1      35.998 -21.915 -16.017  0.00  0.00    +0.251 C 
ATOM     26  H   UNL     1      34.657 -23.310 -16.701  0.00  0.00    +0.150 HD
BRANCH  25  29
ATOM     27  F   UNL     1      34.290 -22.709 -13.938  0.00  0.00    -0.204 F 
ATOM     28  F   UNL     1      38.598 -22.961 -15.923  0.00  0.00    -0.204 F 
ATOM     29  C   UNL     1      36.442 -22.831 -14.935  0.00  0.00    +0.108 C 
ATOM     30  C   UNL     1      35.547 -23.178 -13.945  0.00  0.00    +0.147 C 
ATOM     31  C   UNL     1      37.738 -23.306 -14.955  0.00  0.00    +0.147 C 
ATOM     32  C   UNL     1      35.964 -24.039 -12.930  0.00  0.00    +0.030 C 
ATOM     33  C   UNL     1      38.155 -24.166 -13.940  0.00  0.00    +0.030 C 
ATOM     34  C   UNL     1      37.269 -24.533 -12.927  0.00  0.00    +0.005 C 
ENDBRANCH  25  29
ENDBRANCH  22  24
BRANCH  22  36
ATOM     35  OXT UNL     1      33.505 -23.325 -19.409  0.00  0.00    -0.248 OA
ATOM     36  C   UNL     1      33.343 -22.376 -18.648  0.00  0.00    +0.332 C 
BRANCH  36  37
ATOM     37  O   UNL     1      32.113 -21.902 -18.338  0.00  0.00    -0.479 OA
ATOM     38  H   UNL     1      31.619 -21.427 -18.976  0.00  0.00    +0.295 HD
ENDBRANCH  36  37
ENDBRANCH  22  36
ENDBRANCH  21  22
ENDBRANCH   1  21
TORSDOF 12
ENDMDL
MODEL 2
REMARK VINA RESULT:     -11.7      0.047      1.380
REMARK  Name = 9935681
REMARK  12 active torsions:
REMARK  status: ('A' for Active; 'I' for Inactive)
REMARK    1  A    between atoms: C_1  and  C_21
REMARK    2  A    between atoms: C_2  and  C_7
REMARK    3  A    between atoms: C_8  and  O_13
REMARK    4  A    between atoms: C_9  and  O_15
REMARK    5  A    between atoms: C_10  and  C_17
REMARK    6  A    between atoms: C_17  and  O_18
REMARK    7  A    between atoms: O_18  and  C_19
REMARK    8  A    between atoms: C_21  and  CA_22
REMARK    9  A    between atoms: CA_22  and  N_24
REMARK   10  A    between atoms: CA_22  and  C_36
REMARK   11  A    between atoms: C_25  and  C_29
REMARK   12  A    between atoms: C_36  and  O_37
REMARK                            x       y       z     vdW  Elec       q    Type
REMARK                         _______ _______ _______ _____ _____    ______ ____
ROOT
ATOM      1  C   UNL     1      35.278 -20.212 -19.890  0.00  0.00    -0.020 C 
ATOM      2  C   UNL     1      34.656 -18.086 -21.557  0.00  0.00    +0.006 C 
ATOM      3  C   UNL     1      33.960 -20.008 -20.269  0.00  0.00    -0.004 C 
ATOM      4  C   UNL     1      36.290 -19.372 -20.329  0.00  0.00    -0.004 C 
ATOM      5  C   UNL     1      33.647 -18.939 -21.107  0.00  0.00    -0.000 C 
ATOM      6  C   UNL     1      35.977 -18.303 -21.168  0.00  0.00    -0.000 C 
ENDROOT
BRANCH   2   7
ATOM      7  C   UNL     1      34.331 -16.977 -22.427  0.00  0.00    +0.068 C 
ATOM      8  C   UNL     1      34.121 -17.194 -23.792  0.00  0.00    +0.141 C 
ATOM      9  C   UNL     1      34.224 -15.684 -21.907  0.00  0.00    +0.141 C 
ATOM     10  C   UNL     1      33.703 -14.836 -24.109  0.00  0.00    +0.013 C 
ATOM     11  C   UNL     1      33.808 -16.124 -24.631  0.00  0.00    +0.035 C 
ATOM     12  C   UNL     1      33.911 -14.615 -22.748  0.00  0.00    +0.035 C 
BRANCH   8  13
ATOM     13  O   UNL     1      34.215 -18.443 -24.331  0.00  0.00    -0.471 OA
ATOM     14  C   UNL     1      33.001 -19.060 -24.748  0.00  0.00    +0.252 C 
ENDBRANCH   8  13
BRANCH   9  15
ATOM     15  O   UNL     1      34.422 -15.438 -20.581  0.00  0.00    -0.471 OA
ATOM     16  C   UNL     1      33.552 -14.495 -19.961  0.00  0.00    +0.252 C 
ENDBRANCH   9  15
BRANCH  10  17
ATOM     17  C   UNL     1      33.366 -13.693 -25.007  0.00  0.00    +0.169 C 
BRANCH  17  18
ATOM     18  O   UNL     1      32.506 -12.791 -24.321  0.00  0.00    -0.349 OA
BRANCH  18  19
ATOM     19  C   UNL     1      33.157 -11.559 -24.045  0.00  0.00    +0.143 C 
ATOM     20  C   UNL     1      32.400 -10.835 -22.952  0.00  0.00    +0.035 C 
ENDBRANCH  18  19
ENDBRANCH  17  18
ENDBRANCH  10  17
ENDBRANCH   2   7
BRANCH   1  21
ATOM     21  C   UNL     1      35.616 -21.368 -18.982  0.00  0.00    +0.057 C 
BRANCH  21  22
ATOM     22  CA  UNL     1      34.517 -21.665 -17.955  0.00  0.00    +0.176 C 
BRANCH  22  24
ATOM     23  O   UNL     1      36.508 -20.815 -16.070  0.00  0.00    -0.270 OA
ATOM     24  N   UNL     1      35.033 -22.427 -16.846  0.00  0.00    -0.293 N 
ATOM     25  C   UNL     1      36.000 -21.930 -15.984  0.00  0.00    +0.251 C 
ATOM     26  H   UNL     1      34.686 -23.337 -16.694  0.00  0.00    +0.150 HD
BRANCH  25  29
ATOM     27  F   UNL     1      38.612 -22.949 -15.878  0.00  0.00    -0.204 F 
ATOM     28  F   UNL     1      34.286 -22.759 -13.925  0.00  0.00    -0.204 F 
ATOM     29  C   UNL     1      36.447 -22.850 -14.906  0.00  0.00    +0.108 C 
ATOM     30  C   UNL     1      37.747 -23.312 -14.919  0.00  0.00    +0.147 C 
ATOM     31  C   UNL     1      35.546 -23.214 -13.926  0.00  0.00    +0.147 C 
ATOM     32  C   UNL     1      38.166 -24.175 -13.907  0.00  0.00    +0.030 C 
ATOM     33  C   UNL     1      35.966 -24.078 -12.913  0.00  0.00    +0.030 C 
ATOM     34  C   UNL     1      37.275 -24.558 -12.904  0.00  0.00    +0.005 C 
ENDBRANCH  25  29
ENDBRANCH  22  24
BRANCH  22  36
ATOM     35  OXT UNL     1      33.515 -23.351 -19.371  0.00  0.00    -0.248 OA
ATOM     36  C   UNL     1      33.359 -22.389 -18.626  0.00  0.00    +0.332 C 
BRANCH  36  37
ATOM     37  O   UNL     1      32.132 -21.895 -18.333  0.00  0.00    -0.479 OA
ATOM     38  H   UNL     1      31.492 -22.442 -17.923  0.00  0.00    +0.295 HD
ENDBRANCH  36  37
ENDBRANCH  22  36
ENDBRANCH  21  22
ENDBRANCH   1  21
TORSDOF 12
ENDMDL
MODEL 3
REMARK VINA RESULT:     -11.7      0.032      2.094
REMARK  Name = 9935681
REMARK  12 active torsions:
REMARK  status: ('A' for Active; 'I' for Inactive)
REMARK    1  A    between atoms: C_1  and  C_21
REMARK    2  A    between atoms: C_2  and  C_7
REMARK    3  A    between atoms: C_8  and  O_13
REMARK    4  A    between atoms: C_9  and  O_15
REMARK    5  A    between atoms: C_10  and  C_17
REMARK    6  A    between atoms: C_17  and  O_18
REMARK    7  A    between atoms: O_18  and  C_19
REMARK    8  A    between atoms: C_21  and  CA_22
REMARK    9  A    between atoms: CA_22  and  N_24
REMARK   10  A    between atoms: CA_22  and  C_36
REMARK   11  A    between atoms: C_25  and  C_29
REMARK   12  A    between atoms: C_36  and  O_37
REMARK                            x       y       z     vdW  Elec       q    Type
REMARK                         _______ _______ _______ _____ _____    ______ ____
ROOT
ATOM      1  C   UNL     1      35.245 -20.229 -19.919  0.00  0.00    -0.020 C 
ATOM      2  C   UNL     1      34.626 -18.105 -21.588  0.00  0.00    +0.006 C 
ATOM      3  C   UNL     1      33.927 -20.022 -20.295  0.00  0.00    -0.004 C 
ATOM      4  C   UNL     1      36.259 -19.393 -20.361  0.00  0.00    -0.004 C 
ATOM      5  C   UNL     1      33.616 -18.954 -21.136  0.00  0.00    -0.000 C 
ATOM      6  C   UNL     1      35.947 -18.324 -21.201  0.00  0.00    -0.000 C 
ENDROOT
BRANCH   2   7
ATOM      7  C   UNL     1      34.303 -16.997 -22.461  0.00  0.00    +0.068 C 
ATOM      8  C   UNL     1      34.222 -15.699 -21.947  0.00  0.00    +0.141 C 
ATOM      9  C   UNL     1      34.069 -17.218 -23.821  0.00  0.00    +0.141 C 
ATOM     10  C   UNL     1      33.678 -14.856 -24.145  0.00  0.00    +0.013 C 
ATOM     11  C   UNL     1      33.910 -14.631 -22.789  0.00  0.00    +0.035 C 
ATOM     12  C   UNL     1      33.757 -16.149 -24.661  0.00  0.00    +0.035 C 
BRANCH   8  13
ATOM     13  O   UNL     1      34.446 -15.448 -20.626  0.00  0.00    -0.471 OA
ATOM     14  C   UNL     1      33.613 -14.476 -20.002  0.00  0.00    +0.252 C 
ENDBRANCH   8  13
BRANCH   9  15
ATOM     15  O   UNL     1      34.140 -18.472 -24.354  0.00  0.00    -0.471 OA
ATOM     16  C   UNL     1      32.915 -19.068 -24.770  0.00  0.00    +0.252 C 
ENDBRANCH   9  15
BRANCH  10  17
ATOM     17  C   UNL     1      33.346 -13.713 -25.044  0.00  0.00    +0.169 C 
BRANCH  17  18
ATOM     18  O   UNL     1      32.488 -12.807 -24.362  0.00  0.00    -0.349 OA
BRANCH  18  19
ATOM     19  C   UNL     1      33.147 -11.581 -24.077  0.00  0.00    +0.143 C 
ATOM     20  C   UNL     1      32.391 -10.859 -22.982  0.00  0.00    +0.035 C 
ENDBRANCH  18  19
ENDBRANCH  17  18
ENDBRANCH  10  17
ENDBRANCH   2   7
BRANCH   1  21
ATOM     21  C   UNL     1      35.582 -21.384 -19.009  0.00  0.00    +0.057 C 
BRANCH  21  22
ATOM     22  CA  UNL     1      34.492 -21.663 -17.966  0.00  0.00    +0.176 C 
BRANCH  22  24
ATOM     23  O   UNL     1      36.515 -20.803 -16.119  0.00  0.00    -0.270 OA
ATOM     24  N   UNL     1      35.017 -22.414 -16.853  0.00  0.00    -0.293 N 
ATOM     25  C   UNL     1      35.999 -21.913 -16.011  0.00  0.00    +0.251 C 
ATOM     26  H   UNL     1      34.665 -23.318 -16.684  0.00  0.00    +0.150 HD
BRANCH  25  29
ATOM     27  F   UNL     1      34.303 -22.707 -13.923  0.00  0.00    -0.204 F 
ATOM     28  F   UNL     1      38.606 -22.943 -15.920  0.00  0.00    -0.204 F 
ATOM     29  C   UNL     1      36.453 -22.821 -14.926  0.00  0.00    +0.108 C 
ATOM     30  C   UNL     1      35.562 -23.168 -13.931  0.00  0.00    +0.147 C 
ATOM     31  C   UNL     1      37.751 -23.288 -14.948  0.00  0.00    +0.147 C 
ATOM     32  C   UNL     1      35.988 -24.022 -12.913  0.00  0.00    +0.030 C 
ATOM     33  C   UNL     1      38.176 -24.142 -13.930  0.00  0.00    +0.030 C 
ATOM     34  C   UNL     1      37.295 -24.508 -12.913  0.00  0.00    +0.005 C 
ENDBRANCH  25  29
ENDBRANCH  22  24
BRANCH  22  36
ATOM     35  OXT UNL     1      33.468 -23.344 -19.372  0.00  0.00    -0.248 OA
ATOM     36  C   UNL     1      33.323 -22.389 -18.615  0.00  0.00    +0.332 C 
BRANCH  36  37
ATOM     37  O   UNL     1      32.101 -21.906 -18.288  0.00  0.00    -0.479 OA
ATOM     38  H   UNL     1      31.598 -21.435 -18.923  0.00  0.00    +0.295 HD
ENDBRANCH  36  37
ENDBRANCH  22  36
ENDBRANCH  21  22
ENDBRANCH   1  21
TORSDOF 12
ENDMDL
MODEL 4
REMARK VINA RESULT:     -11.5      4.071     10.721
REMARK  Name = 9935681
REMARK  12 active torsions:
REMARK  status: ('A' for Active; 'I' for Inactive)
REMARK    1  A    between atoms: C_1  and  C_21
REMARK    2  A    between atoms: C_2  and  C_7
REMARK    3  A    between atoms: C_8  and  O_13
REMARK    4  A    between atoms: C_9  and  O_15
REMARK    5  A    between atoms: C_10  and  C_17
REMARK    6  A    between atoms: C_17  and  O_18
REMARK    7  A    between atoms: O_18  and  C_19
REMARK    8  A    between atoms: C_21  and  CA_22
REMARK    9  A    between atoms: CA_22  and  N_24
REMARK   10  A    between atoms: CA_22  and  C_36
REMARK   11  A    between atoms: C_25  and  C_29
REMARK   12  A    between atoms: C_36  and  O_37
REMARK                            x       y       z     vdW  Elec       q    Type
REMARK                         _______ _______ _______ _____ _____    ______ ____
ROOT
ATOM      1  C   UNL     1      33.914 -20.162 -20.396  0.00  0.00    -0.020 C 
ATOM      2  C   UNL     1      33.334 -21.606 -18.102  0.00  0.00    +0.006 C 
ATOM      3  C   UNL     1      34.929 -20.855 -19.754  0.00  0.00    -0.004 C 
ATOM      4  C   UNL     1      32.615 -20.177 -19.912  0.00  0.00    -0.004 C 
ATOM      5  C   UNL     1      34.636 -21.582 -18.600  0.00  0.00    -0.000 C 
ATOM      6  C   UNL     1      32.323 -20.904 -18.758  0.00  0.00    -0.000 C 
ENDROOT
BRANCH   2   7
ATOM      7  C   UNL     1      33.031 -22.360 -16.905  0.00  0.00    +0.068 C 
ATOM      8  C   UNL     1      31.702 -22.594 -16.540  0.00  0.00    +0.141 C 
ATOM      9  C   UNL     1      34.065 -22.859 -16.109  0.00  0.00    +0.141 C 
ATOM     10  C   UNL     1      32.445 -23.816 -14.593  0.00  0.00    +0.013 C 
ATOM     11  C   UNL     1      31.410 -23.321 -15.385  0.00  0.00    +0.035 C 
ATOM     12  C   UNL     1      33.772 -23.585 -14.954  0.00  0.00    +0.035 C 
BRANCH   8  13
ATOM     13  O   UNL     1      30.669 -22.124 -17.296  0.00  0.00    -0.471 OA
ATOM     14  C   UNL     1      29.358 -22.264 -16.758  0.00  0.00    +0.252 C 
ENDBRANCH   8  13
BRANCH   9  15
ATOM     15  O   UNL     1      35.372 -22.649 -16.437  0.00  0.00    -0.471 OA
ATOM     16  C   UNL     1      36.263 -22.331 -15.371  0.00  0.00    +0.252 C 
ENDBRANCH   9  15
BRANCH  10  17
ATOM     17  C   UNL     1      32.133 -24.596 -13.360  0.00  0.00    +0.169 C 
BRANCH  17  18
ATOM     18  O   UNL     1      30.968 -25.382 -13.580  0.00  0.00    -0.349 OA
BRANCH  18  19
ATOM     19  C   UNL     1      29.787 -24.672 -13.234  0.00  0.00    +0.143 C 
ATOM     20  C   UNL     1      28.667 -25.100 -14.158  0.00  0.00    +0.035 C 
ENDBRANCH  18  19
ENDBRANCH  17  18
ENDBRANCH  10  17
ENDBRANCH   2   7
BRANCH   1  21
ATOM     21  C   UNL     1      34.230 -19.376 -21.644  0.00  0.00    +0.057 C 
BRANCH  21  22
ATOM     22  CA  UNL     1      34.952 -18.054 -21.353  0.00  0.00    +0.176 C 
BRANCH  22  24
ATOM     23  O   UNL     1      34.296 -15.338 -20.691  0.00  0.00    -0.270 OA
ATOM     24  N   UNL     1      34.536 -17.022 -22.268  0.00  0.00    -0.293 N 
ATOM     25  C   UNL     1      34.239 -15.731 -21.854  0.00  0.00    +0.251 C 
ATOM     26  H   UNL     1      34.459 -17.240 -23.225  0.00  0.00    +0.150 HD
BRANCH  25  29
ATOM     27  F   UNL     1      34.090 -12.962 -21.429  0.00  0.00    -0.204 F 
ATOM     28  F   UNL     1      33.503 -16.611 -24.413  0.00  0.00    -0.204 F 
ATOM     29  C   UNL     1      33.798 -14.790 -22.916  0.00  0.00    +0.108 C 
ATOM     30  C   UNL     1      33.749 -13.441 -22.635  0.00  0.00    +0.147 C 
ATOM     31  C   UNL     1      33.452 -15.297 -24.152  0.00  0.00    +0.147 C 
ATOM     32  C   UNL     1      33.337 -12.558 -23.633  0.00  0.00    +0.030 C 
ATOM     33  C   UNL     1      33.039 -14.414 -25.150  0.00  0.00    +0.030 C 
ATOM     34  C   UNL     1      32.982 -13.045 -24.890  0.00  0.00    +0.005 C 
ENDBRANCH  25  29
ENDBRANCH  22  24
BRANCH  22  36
ATOM     35  OXT UNL     1      37.090 -18.297 -22.457  0.00  0.00    -0.248 OA
ATOM     36  C   UNL     1      36.459 -18.260 -21.406  0.00  0.00    +0.332 C 
BRANCH  36  37
ATOM     37  O   UNL     1      37.058 -18.393 -20.199  0.00  0.00    -0.479 OA
ATOM     38  H   UNL     1      37.243 -19.246 -19.859  0.00  0.00    +0.295 HD
ENDBRANCH  36  37
ENDBRANCH  22  36
ENDBRANCH  21  22
ENDBRANCH   1  21
TORSDOF 12
ENDMDL
MODEL 5
REMARK VINA RESULT:     -11.5      4.059     10.745
REMARK  Name = 9935681
REMARK  12 active torsions:
REMARK  status: ('A' for Active; 'I' for Inactive)
REMARK    1  A    between atoms: C_1  and  C_21
REMARK    2  A    between atoms: C_2  and  C_7
REMARK    3  A    between atoms: C_8  and  O_13
REMARK    4  A    between atoms: C_9  and  O_15
REMARK    5  A    between atoms: C_10  and  C_17
REMARK    6  A    between atoms: C_17  and  O_18
REMARK    7  A    between atoms: O_18  and  C_19
REMARK    8  A    between atoms: C_21  and  CA_22
REMARK    9  A    between atoms: CA_22  and  N_24
REMARK   10  A    between atoms: CA_22  and  C_36
REMARK   11  A    between atoms: C_25  and  C_29
REMARK   12  A    between atoms: C_36  and  O_37
REMARK                            x       y       z     vdW  Elec       q    Type
REMARK                         _______ _______ _______ _____ _____    ______ ____
ROOT
ATOM      1  C   UNL     1      33.902 -20.107 -20.415  0.00  0.00    -0.020 C 
ATOM      2  C   UNL     1      33.348 -21.582 -18.135  0.00  0.00    +0.006 C 
ATOM      3  C   UNL     1      32.600 -20.164 -19.943  0.00  0.00    -0.004 C 
ATOM      4  C   UNL     1      34.932 -20.773 -19.769  0.00  0.00    -0.004 C 
ATOM      5  C   UNL     1      32.321 -20.907 -18.796  0.00  0.00    -0.000 C 
ATOM      6  C   UNL     1      34.653 -21.515 -18.622  0.00  0.00    -0.000 C 
ENDROOT
BRANCH   2   7
ATOM      7  C   UNL     1      33.059 -22.351 -16.944  0.00  0.00    +0.068 C 
ATOM      8  C   UNL     1      34.102 -22.844 -16.156  0.00  0.00    +0.141 C 
ATOM      9  C   UNL     1      31.734 -22.605 -16.576  0.00  0.00    +0.141 C 
ATOM     10  C   UNL     1      32.501 -23.837 -14.644  0.00  0.00    +0.013 C 
ATOM     11  C   UNL     1      33.823 -23.586 -15.007  0.00  0.00    +0.035 C 
ATOM     12  C   UNL     1      31.456 -23.347 -15.428  0.00  0.00    +0.035 C 
BRANCH   8  13
ATOM     13  O   UNL     1      35.405 -22.612 -16.485  0.00  0.00    -0.471 OA
ATOM     14  C   UNL     1      36.357 -22.651 -15.425  0.00  0.00    +0.252 C 
ENDBRANCH   8  13
BRANCH   9  15
ATOM     15  O   UNL     1      30.693 -22.138 -17.323  0.00  0.00    -0.471 OA
ATOM     16  C   UNL     1      29.392 -22.237 -16.751  0.00  0.00    +0.252 C 
ENDBRANCH   9  15
BRANCH  10  17
ATOM     17  C   UNL     1      32.203 -24.629 -13.415  0.00  0.00    +0.169 C 
BRANCH  17  18
ATOM     18  O   UNL     1      31.012 -25.382 -13.615  0.00  0.00    -0.349 OA
BRANCH  18  19
ATOM     19  C   UNL     1      29.863 -24.657 -13.201  0.00  0.00    +0.143 C 
ATOM     20  C   UNL     1      28.708 -25.001 -14.118  0.00  0.00    +0.035 C 
ENDBRANCH  18  19
ENDBRANCH  17  18
ENDBRANCH  10  17
ENDBRANCH   2   7
BRANCH   1  21
ATOM     21  C   UNL     1      34.203 -19.304 -21.657  0.00  0.00    +0.057 C 
BRANCH  21  22
ATOM     22  CA  UNL     1      34.956 -18.001 -21.361  0.00  0.00    +0.176 C 
BRANCH  22  24
ATOM     23  O   UNL     1      34.268 -15.311 -20.631  0.00  0.00    -0.270 OA
ATOM     24  N   UNL     1      34.542 -16.947 -22.252  0.00  0.00    -0.293 N 
ATOM     25  C   UNL     1      34.228 -15.671 -21.805  0.00  0.00    +0.251 C 
ATOM     26  H   UNL     1      34.478 -17.139 -23.216  0.00  0.00    +0.150 HD
BRANCH  25  29
ATOM     27  F   UNL     1      33.428 -16.495 -24.364  0.00  0.00    -0.204 F 
ATOM     28  F   UNL     1      34.152 -12.907 -21.337  0.00  0.00    -0.204 F 
ATOM     29  C   UNL     1      33.792 -14.705 -22.846  0.00  0.00    +0.108 C 
ATOM     30  C   UNL     1      33.413 -15.184 -24.083  0.00  0.00    +0.147 C 
ATOM     31  C   UNL     1      33.781 -13.359 -22.543  0.00  0.00    +0.147 C 
ATOM     32  C   UNL     1      33.003 -14.277 -25.060  0.00  0.00    +0.030 C 
ATOM     33  C   UNL     1      33.371 -12.452 -23.520  0.00  0.00    +0.030 C 
ATOM     34  C   UNL     1      32.982 -12.911 -24.779  0.00  0.00    +0.005 C 
ENDBRANCH  25  29
ENDBRANCH  22  24
BRANCH  22  36
ATOM     35  OXT UNL     1      37.053 -18.352 -22.514  0.00  0.00    -0.248 OA
ATOM     36  C   UNL     1      36.457 -18.235 -21.449  0.00  0.00    +0.332 C 
BRANCH  36  37
ATOM     37  O   UNL     1      37.094 -18.299 -20.255  0.00  0.00    -0.479 OA
ATOM     38  H   UNL     1      36.824 -17.743 -19.551  0.00  0.00    +0.295 HD
ENDBRANCH  36  37
ENDBRANCH  22  36
ENDBRANCH  21  22
ENDBRANCH   1  21
TORSDOF 12
ENDMDL
MODEL 6
REMARK VINA RESULT:     -11.5      3.752     10.817
REMARK  Name = 9935681
REMARK  12 active torsions:
REMARK  status: ('A' for Active; 'I' for Inactive)
REMARK    1  A    between atoms: C_1  and  C_21
REMARK    2  A    between atoms: C_2  and  C_7
REMARK    3  A    between atoms: C_8  and  O_13
REMARK    4  A    between atoms: C_9  and  O_15
REMARK    5  A    between atoms: C_10  and  C_17
REMARK    6  A    between atoms: C_17  and  O_18
REMARK    7  A    between atoms: O_18  and  C_19
REMARK    8  A    between atoms: C_21  and  CA_22
REMARK    9  A    between atoms: CA_22  and  N_24
REMARK   10  A    between atoms: CA_22  and  C_36
REMARK   11  A    between atoms: C_25  and  C_29
REMARK   12  A    between atoms: C_36  and  O_37
REMARK                            x       y       z     vdW  Elec       q    Type
REMARK                         _______ _______ _______ _____ _____    ______ ____
ROOT
ATOM      1  C   UNL     1      33.997 -20.054 -20.474  0.00  0.00    -0.020 C 
ATOM      2  C   UNL     1      33.597 -21.526 -18.160  0.00  0.00    +0.006 C 
ATOM      3  C   UNL     1      35.087 -20.619 -19.831  0.00  0.00    -0.004 C 
ATOM      4  C   UNL     1      32.711 -20.211 -19.982  0.00  0.00    -0.004 C 
ATOM      5  C   UNL     1      34.886 -21.360 -18.667  0.00  0.00    -0.000 C 
ATOM      6  C   UNL     1      32.509 -20.952 -18.817  0.00  0.00    -0.000 C 
ENDROOT
BRANCH   2   7
ATOM      7  C   UNL     1      33.388 -22.295 -16.952  0.00  0.00    +0.068 C 
ATOM      8  C   UNL     1      34.481 -22.718 -16.191  0.00  0.00    +0.141 C 
ATOM      9  C   UNL     1      32.092 -22.619 -16.540  0.00  0.00    +0.141 C 
ATOM     10  C   UNL     1      32.986 -23.781 -14.620  0.00  0.00    +0.013 C 
ATOM     11  C   UNL     1      34.280 -23.460 -15.027  0.00  0.00    +0.035 C 
ATOM     12  C   UNL     1      31.892 -23.361 -15.376  0.00  0.00    +0.035 C 
BRANCH   8  13
ATOM     13  O   UNL     1      35.758 -22.418 -16.563  0.00  0.00    -0.471 OA
ATOM     14  C   UNL     1      36.754 -22.451 -15.545  0.00  0.00    +0.252 C 
ENDBRANCH   8  13
BRANCH   9  15
ATOM     15  O   UNL     1      31.003 -22.221 -17.259  0.00  0.00    -0.471 OA
ATOM     16  C   UNL     1      29.745 -22.239 -16.591  0.00  0.00    +0.252 C 
ENDBRANCH   9  15
BRANCH  10  17
ATOM     17  C   UNL     1      32.771 -24.572 -13.373  0.00  0.00    +0.169 C 
BRANCH  17  18
ATOM     18  O   UNL     1      33.303 -23.860 -12.263  0.00  0.00    -0.349 OA
BRANCH  18  19
ATOM     19  C   UNL     1      34.627 -24.278 -11.963  0.00  0.00    +0.143 C 
ATOM     20  C   UNL     1      35.421 -23.086 -11.473  0.00  0.00    +0.035 C 
ENDBRANCH  18  19
ENDBRANCH  17  18
ENDBRANCH  10  17
ENDBRANCH   2   7
BRANCH   1  21
ATOM     21  C   UNL     1      34.215 -19.252 -21.733  0.00  0.00    +0.057 C 
BRANCH  21  22
ATOM     22  CA  UNL     1      34.958 -17.934 -21.483  0.00  0.00    +0.176 C 
BRANCH  22  24
ATOM     23  O   UNL     1      34.276 -15.219 -20.846  0.00  0.00    -0.270 OA
ATOM     24  N   UNL     1      34.534 -16.914 -22.408  0.00  0.00    -0.293 N 
ATOM     25  C   UNL     1      34.224 -15.622 -22.005  0.00  0.00    +0.251 C 
ATOM     26  H   UNL     1      34.461 -17.141 -23.363  0.00  0.00    +0.150 HD
BRANCH  25  29
ATOM     27  F   UNL     1      33.463 -16.535 -24.546  0.00  0.00    -0.204 F 
ATOM     28  F   UNL     1      34.086 -12.848 -21.617  0.00  0.00    -0.204 F 
ATOM     29  C   UNL     1      33.776 -14.696 -23.077  0.00  0.00    +0.108 C 
ATOM     30  C   UNL     1      33.417 -15.217 -24.302  0.00  0.00    +0.147 C 
ATOM     31  C   UNL     1      33.734 -13.342 -22.812  0.00  0.00    +0.147 C 
ATOM     32  C   UNL     1      32.997 -14.347 -25.308  0.00  0.00    +0.030 C 
ATOM     33  C   UNL     1      33.313 -12.472 -23.818  0.00  0.00    +0.030 C 
ATOM     34  C   UNL     1      32.945 -12.974 -25.066  0.00  0.00    +0.005 C 
ENDBRANCH  25  29
ENDBRANCH  22  24
BRANCH  22  36
ATOM     35  OXT UNL     1      37.068 -18.227 -22.630  0.00  0.00    -0.248 OA
ATOM     36  C   UNL     1      36.461 -18.160 -21.566  0.00  0.00    +0.332 C 
BRANCH  36  37
ATOM     37  O   UNL     1      37.086 -18.274 -20.370  0.00  0.00    -0.479 OA
ATOM     38  H   UNL     1      36.773 -18.886 -19.734  0.00  0.00    +0.295 HD
ENDBRANCH  36  37
ENDBRANCH  22  36
ENDBRANCH  21  22
ENDBRANCH   1  21
TORSDOF 12
ENDMDL
MODEL 7
REMARK VINA RESULT:     -11.4      3.748     10.740
REMARK  Name = 9935681
REMARK  12 active torsions:
REMARK  status: ('A' for Active; 'I' for Inactive)
REMARK    1  A    between atoms: C_1  and  C_21
REMARK    2  A    between atoms: C_2  and  C_7
REMARK    3  A    between atoms: C_8  and  O_13
REMARK    4  A    between atoms: C_9  and  O_15
REMARK    5  A    between atoms: C_10  and  C_17
REMARK    6  A    between atoms: C_17  and  O_18
REMARK    7  A    between atoms: O_18  and  C_19
REMARK    8  A    between atoms: C_21  and  CA_22
REMARK    9  A    between atoms: CA_22  and  N_24
REMARK   10  A    between atoms: CA_22  and  C_36
REMARK   11  A    between atoms: C_25  and  C_29
REMARK   12  A    between atoms: C_36  and  O_37
REMARK                            x       y       z     vdW  Elec       q    Type
REMARK                         _______ _______ _______ _____ _____    ______ ____
ROOT
ATOM      1  C   UNL     1      33.999 -20.073 -20.442  0.00  0.00    -0.020 C 
ATOM      2  C   UNL     1      33.598 -21.549 -18.131  0.00  0.00    +0.006 C 
ATOM      3  C   UNL     1      32.713 -20.227 -19.950  0.00  0.00    -0.004 C 
ATOM      4  C   UNL     1      35.088 -20.643 -19.802  0.00  0.00    -0.004 C 
ATOM      5  C   UNL     1      32.511 -20.970 -18.786  0.00  0.00    -0.000 C 
ATOM      6  C   UNL     1      34.887 -21.385 -18.639  0.00  0.00    -0.000 C 
ENDROOT
BRANCH   2   7
ATOM      7  C   UNL     1      33.389 -22.319 -16.924  0.00  0.00    +0.068 C 
ATOM      8  C   UNL     1      32.093 -22.647 -16.516  0.00  0.00    +0.141 C 
ATOM      9  C   UNL     1      34.481 -22.738 -16.160  0.00  0.00    +0.141 C 
ATOM     10  C   UNL     1      32.983 -23.805 -14.593  0.00  0.00    +0.013 C 
ATOM     11  C   UNL     1      31.891 -23.389 -15.352  0.00  0.00    +0.035 C 
ATOM     12  C   UNL     1      34.278 -23.480 -14.996  0.00  0.00    +0.035 C 
BRANCH   8  13
ATOM     13  O   UNL     1      31.005 -22.255 -17.240  0.00  0.00    -0.471 OA
ATOM     14  C   UNL     1      29.751 -22.237 -16.564  0.00  0.00    +0.252 C 
ENDBRANCH   8  13
BRANCH   9  15
ATOM     15  O   UNL     1      35.759 -22.436 -16.530  0.00  0.00    -0.471 OA
ATOM     16  C   UNL     1      36.747 -22.443 -15.504  0.00  0.00    +0.252 C 
ENDBRANCH   9  15
BRANCH  10  17
ATOM     17  C   UNL     1      32.767 -24.601 -13.349  0.00  0.00    +0.169 C 
BRANCH  17  18
ATOM     18  O   UNL     1      33.326 -23.907 -12.241  0.00  0.00    -0.349 OA
BRANCH  18  19
ATOM     19  C   UNL     1      34.670 -24.302 -12.004  0.00  0.00    +0.143 C 
ATOM     20  C   UNL     1      35.454 -23.108 -11.502  0.00  0.00    +0.035 C 
ENDBRANCH  18  19
ENDBRANCH  17  18
ENDBRANCH  10  17
ENDBRANCH   2   7
BRANCH   1  21
ATOM     21  C   UNL     1      34.217 -19.270 -21.701  0.00  0.00    +0.057 C 
BRANCH  21  22
ATOM     22  CA  UNL     1      34.952 -17.947 -21.449  0.00  0.00    +0.176 C 
BRANCH  22  24
ATOM     23  O   UNL     1      34.281 -15.228 -20.820  0.00  0.00    -0.270 OA
ATOM     24  N   UNL     1      34.525 -16.930 -22.376  0.00  0.00    -0.293 N 
ATOM     25  C   UNL     1      34.221 -15.636 -21.977  0.00  0.00    +0.251 C 
ATOM     26  H   UNL     1      34.445 -17.162 -23.330  0.00  0.00    +0.150 HD
BRANCH  25  29
ATOM     27  F   UNL     1      34.085 -12.860 -21.597  0.00  0.00    -0.204 F 
ATOM     28  F   UNL     1      33.450 -16.557 -24.511  0.00  0.00    -0.204 F 
ATOM     29  C   UNL     1      33.769 -14.713 -23.050  0.00  0.00    +0.108 C 
ATOM     30  C   UNL     1      33.728 -13.358 -22.790  0.00  0.00    +0.147 C 
ATOM     31  C   UNL     1      33.405 -15.239 -24.272  0.00  0.00    +0.147 C 
ATOM     32  C   UNL     1      33.304 -12.492 -23.798  0.00  0.00    +0.030 C 
ATOM     33  C   UNL     1      32.982 -14.372 -25.280  0.00  0.00    +0.030 C 
ATOM     34  C   UNL     1      32.931 -12.999 -25.042  0.00  0.00    +0.005 C 
ENDBRANCH  25  29
ENDBRANCH  22  24
BRANCH  22  36
ATOM     35  OXT UNL     1      37.066 -18.232 -22.590  0.00  0.00    -0.248 OA
ATOM     36  C   UNL     1      36.456 -18.165 -21.528  0.00  0.00    +0.332 C 
BRANCH  36  37
ATOM     37  O   UNL     1      37.079 -18.272 -20.330  0.00  0.00    -0.479 OA
ATOM     38  H   UNL     1      37.623 -17.575 -20.021  0.00  0.00    +0.295 HD
ENDBRANCH  36  37
ENDBRANCH  22  36
ENDBRANCH  21  22
ENDBRANCH   1  21
TORSDOF 12
ENDMDL
MODEL 8
REMARK VINA RESULT:     -10.8      1.348      2.671
REMARK  Name = 9935681
REMARK  12 active torsions:
REMARK  status: ('A' for Active; 'I' for Inactive)
REMARK    1  A    between atoms: C_1  and  C_21
REMARK    2  A    between atoms: C_2  and  C_7
REMARK    3  A    between atoms: C_8  and  O_13
REMARK    4  A    between atoms: C_9  and  O_15
REMARK    5  A    between atoms: C_10  and  C_17
REMARK    6  A    between atoms: C_17  and  O_18
REMARK    7  A    between atoms: O_18  and  C_19
REMARK    8  A    between atoms: C_21  and  CA_22
REMARK    9  A    between atoms: CA_22  and  N_24
REMARK   10  A    between atoms: CA_22  and  C_36
REMARK   11  A    between atoms: C_25  and  C_29
REMARK   12  A    between atoms: C_36  and  O_37
REMARK                            x       y       z     vdW  Elec       q    Type
REMARK                         _______ _______ _______ _____ _____    ______ ____
ROOT
ATOM      1  C   UNL     1      34.946 -20.928 -19.119  0.00  0.00    -0.020 C 
ATOM      2  C   UNL     1      34.633 -18.961 -21.046  0.00  0.00    +0.006 C 
ATOM      3  C   UNL     1      33.681 -20.661 -19.618  0.00  0.00    -0.004 C 
ATOM      4  C   UNL     1      36.058 -20.230 -19.566  0.00  0.00    -0.004 C 
ATOM      5  C   UNL     1      33.523 -19.671 -20.588  0.00  0.00    -0.000 C 
ATOM      6  C   UNL     1      35.900 -19.240 -20.536  0.00  0.00    -0.000 C 
ENDROOT
BRANCH   2   7
ATOM      7  C   UNL     1      34.469 -17.935 -22.053  0.00  0.00    +0.068 C 
ATOM      8  C   UNL     1      34.451 -16.586 -21.685  0.00  0.00    +0.141 C 
ATOM      9  C   UNL     1      34.328 -18.286 -23.398  0.00  0.00    +0.141 C 
ATOM     10  C   UNL     1      34.152 -15.952 -23.996  0.00  0.00    +0.013 C 
ATOM     11  C   UNL     1      34.293 -15.597 -22.656  0.00  0.00    +0.035 C 
ATOM     12  C   UNL     1      34.169 -17.296 -24.368  0.00  0.00    +0.035 C 
BRANCH   8  13
ATOM     13  O   UNL     1      34.588 -16.209 -20.382  0.00  0.00    -0.471 OA
ATOM     14  C   UNL     1      33.895 -15.034 -19.972  0.00  0.00    +0.252 C 
ENDBRANCH   8  13
BRANCH   9  15
ATOM     15  O   UNL     1      34.341 -19.592 -23.791  0.00  0.00    -0.471 OA
ATOM     16  C   UNL     1      33.621 -19.918 -24.976  0.00  0.00    +0.252 C 
ENDBRANCH   9  15
BRANCH  10  17
ATOM     17  C   UNL     1      33.985 -14.893 -25.034  0.00  0.00    +0.169 C 
BRANCH  17  18
ATOM     18  O   UNL     1      32.667 -14.362 -24.961  0.00  0.00    -0.349 OA
BRANCH  18  19
ATOM     19  C   UNL     1      32.663 -12.953 -25.138  0.00  0.00    +0.143 C 
ATOM     20  C   UNL     1      33.033 -12.291 -23.828  0.00  0.00    +0.035 C 
ENDBRANCH  18  19
ENDBRANCH  17  18
ENDBRANCH  10  17
ENDBRANCH   2   7
BRANCH   1  21
ATOM     21  C   UNL     1      35.117 -21.999 -18.069  0.00  0.00    +0.057 C 
BRANCH  21  22
ATOM     22  CA  UNL     1      34.080 -21.904 -16.943  0.00  0.00    +0.176 C 
BRANCH  22  24
ATOM     23  O   UNL     1      34.755 -24.425 -15.748  0.00  0.00    -0.270 OA
ATOM     24  N   UNL     1      34.691 -22.109 -15.655  0.00  0.00    -0.293 N 
ATOM     25  C   UNL     1      34.982 -23.372 -15.158  0.00  0.00    +0.251 C 
ATOM     26  H   UNL     1      34.912 -21.323 -15.104  0.00  0.00    +0.150 HD
BRANCH  25  29
ATOM     27  F   UNL     1      33.422 -23.421 -12.827  0.00  0.00    -0.204 F 
ATOM     28  F   UNL     1      37.759 -23.411 -14.766  0.00  0.00    -0.204 F 
ATOM     29  C   UNL     1      35.588 -23.416 -13.802  0.00  0.00    +0.108 C 
ATOM     30  C   UNL     1      34.757 -23.437 -12.701  0.00  0.00    +0.147 C 
ATOM     31  C   UNL     1      36.963 -23.433 -13.688  0.00  0.00    +0.147 C 
ATOM     32  C   UNL     1      35.326 -23.479 -11.428  0.00  0.00    +0.030 C 
ATOM     33  C   UNL     1      37.532 -23.474 -12.415  0.00  0.00    +0.030 C 
ATOM     34  C   UNL     1      36.713 -23.497 -11.285  0.00  0.00    +0.005 C 
ENDBRANCH  25  29
ENDBRANCH  22  24
BRANCH  22  36
ATOM     35  OXT UNL     1      31.907 -22.891 -16.551  0.00  0.00    -0.248 OA
ATOM     36  C   UNL     1      32.957 -22.903 -17.183  0.00  0.00    +0.332 C 
BRANCH  36  37
ATOM     37  O   UNL     1      33.202 -23.809 -18.160  0.00  0.00    -0.479 OA
ATOM     38  H   UNL     1      32.669 -24.576 -18.232  0.00  0.00    +0.295 HD
ENDBRANCH  36  37
ENDBRANCH  22  36
ENDBRANCH  21  22
ENDBRANCH   1  21
TORSDOF 12
ENDMDL
MODEL 9
REMARK VINA RESULT:     -10.3      3.285     10.414
REMARK  Name = 9935681
REMARK  12 active torsions:
REMARK  status: ('A' for Active; 'I' for Inactive)
REMARK    1  A    between atoms: C_1  and  C_21
REMARK    2  A    between atoms: C_2  and  C_7
REMARK    3  A    between atoms: C_8  and  O_13
REMARK    4  A    between atoms: C_9  and  O_15
REMARK    5  A    between atoms: C_10  and  C_17
REMARK    6  A    between atoms: C_17  and  O_18
REMARK    7  A    between atoms: O_18  and  C_19
REMARK    8  A    between atoms: C_21  and  CA_22
REMARK    9  A    between atoms: CA_22  and  N_24
REMARK   10  A    between atoms: CA_22  and  C_36
REMARK   11  A    between atoms: C_25  and  C_29
REMARK   12  A    between atoms: C_36  and  O_37
REMARK                            x       y       z     vdW  Elec       q    Type
REMARK                         _______ _______ _______ _____ _____    ______ ____
ROOT
ATOM      1  C   UNL     1      33.360 -20.180 -20.633  0.00  0.00    -0.020 C 
ATOM      2  C   UNL     1      34.110 -21.482 -18.304  0.00  0.00    +0.006 C 
ATOM      3  C   UNL     1      34.707 -20.345 -20.351  0.00  0.00    -0.004 C 
ATOM      4  C   UNL     1      32.382 -20.653 -19.773  0.00  0.00    -0.004 C 
ATOM      5  C   UNL     1      35.085 -21.000 -19.179  0.00  0.00    -0.000 C 
ATOM      6  C   UNL     1      32.759 -21.308 -18.601  0.00  0.00    -0.000 C 
ENDROOT
BRANCH   2   7
ATOM      7  C   UNL     1      34.502 -22.162 -17.088  0.00  0.00    +0.068 C 
ATOM      8  C   UNL     1      33.579 -22.951 -16.396  0.00  0.00    +0.141 C 
ATOM      9  C   UNL     1      35.806 -22.033 -16.601  0.00  0.00    +0.141 C 
ATOM     10  C   UNL     1      35.258 -23.475 -14.740  0.00  0.00    +0.013 C 
ATOM     11  C   UNL     1      33.957 -23.606 -15.224  0.00  0.00    +0.035 C 
ATOM     12  C   UNL     1      36.182 -22.689 -15.428  0.00  0.00    +0.035 C 
BRANCH   8  13
ATOM     13  O   UNL     1      32.300 -23.099 -16.846  0.00  0.00    -0.471 OA
ATOM     14  C   UNL     1      31.263 -23.067 -15.870  0.00  0.00    +0.252 C 
ENDBRANCH   8  13
BRANCH   9  15
ATOM     15  O   UNL     1      36.731 -21.272 -17.251  0.00  0.00    -0.471 OA
ATOM     16  C   UNL     1      37.334 -20.214 -16.511  0.00  0.00    +0.252 C 
ENDBRANCH   9  15
BRANCH  10  17
ATOM     17  C   UNL     1      35.662 -24.178 -13.488  0.00  0.00    +0.169 C 
BRANCH  17  18
ATOM     18  O   UNL     1      37.071 -24.074 -13.321  0.00  0.00    -0.349 OA
BRANCH  18  19
ATOM     19  C   UNL     1      37.651 -25.330 -13.000  0.00  0.00    +0.143 C 
ATOM     20  C   UNL     1      37.513 -26.256 -14.190  0.00  0.00    +0.035 C 
ENDBRANCH  18  19
ENDBRANCH  17  18
ENDBRANCH  10  17
ENDBRANCH   2   7
BRANCH   1  21
ATOM     21  C   UNL     1      32.952 -19.471 -21.901  0.00  0.00    +0.057 C 
BRANCH  21  22
ATOM     22  CA  UNL     1      34.122 -18.756 -22.591  0.00  0.00    +0.176 C 
BRANCH  22  24
ATOM     23  O   UNL     1      35.087 -16.815 -20.709  0.00  0.00    -0.270 OA
ATOM     24  N   UNL     1      33.907 -17.332 -22.637  0.00  0.00    -0.293 N 
ATOM     25  C   UNL     1      34.415 -16.468 -21.677  0.00  0.00    +0.251 C 
ATOM     26  H   UNL     1      33.378 -16.957 -23.378  0.00  0.00    +0.150 HD
BRANCH  25  29
ATOM     27  F   UNL     1      34.596 -15.187 -24.166  0.00  0.00    -0.204 F 
ATOM     28  F   UNL     1      33.567 -14.862 -19.540  0.00  0.00    -0.204 F 
ATOM     29  C   UNL     1      34.082 -15.031 -21.852  0.00  0.00    +0.108 C 
ATOM     30  C   UNL     1      34.195 -14.468 -23.106  0.00  0.00    +0.147 C 
ATOM     31  C   UNL     1      33.672 -14.304 -20.753  0.00  0.00    +0.147 C 
ATOM     32  C   UNL     1      33.882 -13.119 -23.271  0.00  0.00    +0.030 C 
ATOM     33  C   UNL     1      33.358 -12.954 -20.918  0.00  0.00    +0.030 C 
ATOM     34  C   UNL     1      33.464 -12.362 -22.177  0.00  0.00    +0.005 C 
ENDBRANCH  25  29
ENDBRANCH  22  24
BRANCH  22  36
ATOM     35  OXT UNL     1      34.891 -20.396 -24.195  0.00  0.00    -0.248 OA
ATOM     36  C   UNL     1      34.329 -19.325 -23.987  0.00  0.00    +0.332 C 
BRANCH  36  37
ATOM     37  O   UNL     1      33.837 -18.561 -24.991  0.00  0.00    -0.479 OA
ATOM     38  H   UNL     1      33.451 -18.967 -25.742  0.00  0.00    +0.295 HD
ENDBRANCH  36  37
ENDBRANCH  22  36
ENDBRANCH  21  22
ENDBRANCH   1  21
TORSDOF 12
ENDMDL
