MODEL 1
REMARK VINA RESULT:     -13.9      0.000      0.000
REMARK  Name = 448841
REMARK  3 active torsions:
REMARK  status: ('A' for Active; 'I' for Inactive)
REMARK    1  A    between atoms: C_1  and  C_17
REMARK    2  A    between atoms: C_9  and  C_13
REMARK    3  A    between atoms: C_18  and  C_20
REMARK                            x       y       z     vdW  Elec       q    Type
REMARK                         _______ _______ _______ _____ _____    ______ ____
ROOT
ATOM      1  C   UNL     1      34.484 -16.048 -21.657  0.00  0.00    -0.022 C 
ATOM      2  C   UNL     1      33.724 -15.316 -20.745  0.00  0.00    -0.004 C 
ATOM      3  C   UNL     1      34.686 -15.561 -22.945  0.00  0.00    -0.004 C 
ATOM      4  C   UNL     1      33.155 -14.085 -21.110  0.00  0.00    -0.000 C 
ATOM      5  C   UNL     1      34.128 -14.339 -23.325  0.00  0.00    -0.000 C 
ATOM      6  C   UNL     1      33.360 -13.589 -22.420  0.00  0.00    +0.000 C 
ATOM      7  C   UNL     1      32.387 -13.335 -20.205  0.00  0.00    +0.000 C 
ATOM      8  C   UNL     1      32.792 -12.359 -22.786  0.00  0.00    +0.003 C 
ATOM      9  C   UNL     1      32.031 -11.626 -21.873  0.00  0.00    +0.031 C 
ATOM     10  C   UNL     1      31.830 -12.114 -20.585  0.00  0.00    +0.003 C 
ENDROOT
BRANCH   9  13
ATOM     11  N   UNL     1      32.101  -9.504 -23.160  0.00  0.00    -0.343 N 
ATOM     12  N   UNL     1      30.283  -9.981 -21.773  0.00  0.00    -0.285 NA
ATOM     13  C   UNL     1      31.450 -10.354 -22.267  0.00  0.00    +0.117 C 
ATOM     14  H   UNL     1      31.689  -8.646 -23.413  0.00  0.00    +0.144 HD
ATOM     15  H   UNL     1      32.973  -9.762 -23.538  0.00  0.00    +0.144 HD
ATOM     16  H   UNL     1      29.887  -9.120 -22.039  0.00  0.00    +0.188 HD
ENDBRANCH   9  13
BRANCH   1  17
ATOM     17  C   UNL     1      35.079 -17.352 -21.253  0.00  0.00    +0.027 C 
ATOM     18  C   UNL     1      34.310 -18.614 -21.493  0.00  0.00    +0.027 C 
ATOM     19  C   UNL     1      35.530 -18.310 -22.313  0.00  0.00    +0.009 C 
BRANCH  18  20
ATOM     20  C   UNL     1      34.365 -19.701 -20.483  0.00  0.00    -0.022 C 
ATOM     21  C   UNL     1      33.189 -20.321 -20.052  0.00  0.00    -0.004 C 
ATOM     22  C   UNL     1      35.593 -20.111 -19.956  0.00  0.00    -0.004 C 
ATOM     23  C   UNL     1      33.240 -21.341 -19.102  0.00  0.00    -0.000 C 
ATOM     24  C   UNL     1      35.645 -21.130 -19.005  0.00  0.00    -0.000 C 
ATOM     25  C   UNL     1      34.468 -21.745 -18.579  0.00  0.00    -0.000 C 
ENDBRANCH  18  20
ENDBRANCH   1  17
TORSDOF 3
ENDMDL
MODEL 2
REMARK VINA RESULT:     -13.8      5.398      9.363
REMARK  Name = 448841
REMARK  3 active torsions:
REMARK  status: ('A' for Active; 'I' for Inactive)
REMARK    1  A    between atoms: C_1  and  C_17
REMARK    2  A    between atoms: C_9  and  C_13
REMARK    3  A    between atoms: C_18  and  C_20
REMARK                            x       y       z     vdW  Elec       q    Type
REMARK                         _______ _______ _______ _____ _____    ______ ____
ROOT
ATOM      1  C   UNL     1      34.801 -20.172 -20.133  0.00  0.00    -0.022 C 
ATOM      2  C   UNL     1      35.777 -20.477 -19.185  0.00  0.00    -0.004 C 
ATOM      3  C   UNL     1      33.504 -20.654 -19.978  0.00  0.00    -0.004 C 
ATOM      4  C   UNL     1      35.470 -21.270 -18.067  0.00  0.00    -0.000 C 
ATOM      5  C   UNL     1      33.181 -21.444 -18.873  0.00  0.00    -0.000 C 
ATOM      6  C   UNL     1      34.151 -21.761 -17.909  0.00  0.00    +0.000 C 
ATOM      7  C   UNL     1      36.440 -21.588 -17.104  0.00  0.00    +0.000 C 
ATOM      8  C   UNL     1      33.843 -22.554 -16.792  0.00  0.00    +0.003 C 
ATOM      9  C   UNL     1      34.820 -22.859 -15.844  0.00  0.00    +0.031 C 
ATOM     10  C   UNL     1      36.116 -22.376 -16.000  0.00  0.00    +0.003 C 
ENDROOT
BRANCH   9  13
ATOM     11  N   UNL     1      34.884 -25.014 -14.612  0.00  0.00    -0.343 N 
ATOM     12  N   UNL     1      33.783 -23.166 -13.698  0.00  0.00    -0.285 NA
ATOM     13  C   UNL     1      34.484 -23.681 -14.693  0.00  0.00    +0.117 C 
ATOM     14  H   UNL     1      34.646 -25.552 -13.823  0.00  0.00    +0.144 HD
ATOM     15  H   UNL     1      35.404 -25.417 -15.344  0.00  0.00    +0.144 HD
ATOM     16  H   UNL     1      33.556 -23.722 -12.917  0.00  0.00    +0.188 HD
ENDBRANCH   9  13
BRANCH   1  17
ATOM     17  C   UNL     1      35.145 -19.330 -21.312  0.00  0.00    +0.027 C 
ATOM     18  C   UNL     1      35.052 -17.840 -21.200  0.00  0.00    +0.027 C 
ATOM     19  C   UNL     1      36.394 -18.505 -21.282  0.00  0.00    +0.009 C 
BRANCH  18  20
ATOM     20  C   UNL     1      34.558 -17.054 -22.358  0.00  0.00    -0.022 C 
ATOM     21  C   UNL     1      34.076 -17.707 -23.497  0.00  0.00    -0.004 C 
ATOM     22  C   UNL     1      34.572 -15.657 -22.319  0.00  0.00    -0.004 C 
ATOM     23  C   UNL     1      33.614 -16.969 -24.587  0.00  0.00    -0.000 C 
ATOM     24  C   UNL     1      34.111 -14.918 -23.408  0.00  0.00    -0.000 C 
ATOM     25  C   UNL     1      33.632 -15.575 -24.542  0.00  0.00    -0.000 C 
ENDBRANCH  18  20
ENDBRANCH   1  17
TORSDOF 3
ENDMDL
MODEL 3
REMARK VINA RESULT:     -13.3      5.075      8.970
REMARK  Name = 448841
REMARK  3 active torsions:
REMARK  status: ('A' for Active; 'I' for Inactive)
REMARK    1  A    between atoms: C_1  and  C_17
REMARK    2  A    between atoms: C_9  and  C_13
REMARK    3  A    between atoms: C_18  and  C_20
REMARK                            x       y       z     vdW  Elec       q    Type
REMARK                         _______ _______ _______ _____ _____    ______ ____
ROOT
ATOM      1  C   UNL     1      34.875 -19.674 -20.636  0.00  0.00    -0.022 C 
ATOM      2  C   UNL     1      33.629 -20.104 -20.183  0.00  0.00    -0.004 C 
ATOM      3  C   UNL     1      36.034 -20.082 -19.980  0.00  0.00    -0.004 C 
ATOM      4  C   UNL     1      33.524 -20.949 -19.066  0.00  0.00    -0.000 C 
ATOM      5  C   UNL     1      35.948 -20.921 -18.868  0.00  0.00    -0.000 C 
ATOM      6  C   UNL     1      34.701 -21.364 -18.398  0.00  0.00    +0.000 C 
ATOM      7  C   UNL     1      32.277 -21.391 -18.595  0.00  0.00    +0.000 C 
ATOM      8  C   UNL     1      34.597 -22.208 -17.282  0.00  0.00    +0.003 C 
ATOM      9  C   UNL     1      33.350 -22.639 -16.828  0.00  0.00    +0.031 C 
ATOM     10  C   UNL     1      32.192 -22.231 -17.484  0.00  0.00    +0.003 C 
ENDROOT
BRANCH   9  13
ATOM     11  N   UNL     1      32.092 -23.593 -14.912  0.00  0.00    -0.343 N 
ATOM     12  N   UNL     1      34.298 -24.250 -15.318  0.00  0.00    -0.285 NA
ATOM     13  C   UNL     1      33.259 -23.513 -15.671  0.00  0.00    +0.117 C 
ATOM     14  H   UNL     1      32.052 -24.192 -14.132  0.00  0.00    +0.144 HD
ATOM     15  H   UNL     1      31.308 -23.051 -15.156  0.00  0.00    +0.144 HD
ATOM     16  H   UNL     1      34.237 -24.843 -14.535  0.00  0.00    +0.188 HD
ENDBRANCH   9  13
BRANCH   1  17
ATOM     17  C   UNL     1      34.968 -18.778 -21.822  0.00  0.00    +0.027 C 
ATOM     18  C   UNL     1      35.202 -17.313 -21.616  0.00  0.00    +0.027 C 
ATOM     19  C   UNL     1      36.292 -18.177 -22.181  0.00  0.00    +0.009 C 
BRANCH  18  20
ATOM     20  C   UNL     1      34.516 -16.337 -22.499  0.00  0.00    -0.022 C 
ATOM     21  C   UNL     1      34.234 -15.048 -22.037  0.00  0.00    -0.004 C 
ATOM     22  C   UNL     1      34.145 -16.701 -23.797  0.00  0.00    -0.004 C 
ATOM     23  C   UNL     1      33.587 -14.131 -22.866  0.00  0.00    -0.000 C 
ATOM     24  C   UNL     1      33.497 -15.785 -24.625  0.00  0.00    -0.000 C 
ATOM     25  C   UNL     1      33.218 -14.500 -24.159  0.00  0.00    -0.000 C 
ENDBRANCH  18  20
ENDBRANCH   1  17
TORSDOF 3
ENDMDL
MODEL 4
REMARK VINA RESULT:     -12.8      5.708      9.309
REMARK  Name = 448841
REMARK  3 active torsions:
REMARK  status: ('A' for Active; 'I' for Inactive)
REMARK    1  A    between atoms: C_1  and  C_17
REMARK    2  A    between atoms: C_9  and  C_13
REMARK    3  A    between atoms: C_18  and  C_20
REMARK                            x       y       z     vdW  Elec       q    Type
REMARK                         _______ _______ _______ _____ _____    ______ ____
ROOT
ATOM      1  C   UNL     1      35.090 -20.568 -19.650  0.00  0.00    -0.022 C 
ATOM      2  C   UNL     1      33.786 -20.968 -19.358  0.00  0.00    -0.004 C 
ATOM      3  C   UNL     1      36.124 -20.861 -18.765  0.00  0.00    -0.004 C 
ATOM      4  C   UNL     1      33.498 -21.668 -18.175  0.00  0.00    -0.000 C 
ATOM      5  C   UNL     1      35.855 -21.556 -17.584  0.00  0.00    -0.000 C 
ATOM      6  C   UNL     1      34.549 -21.967 -17.274  0.00  0.00    +0.000 C 
ATOM      7  C   UNL     1      32.192 -22.078 -17.865  0.00  0.00    +0.000 C 
ATOM      8  C   UNL     1      34.262 -22.666 -16.092  0.00  0.00    +0.003 C 
ATOM      9  C   UNL     1      32.957 -23.067 -15.799  0.00  0.00    +0.031 C 
ATOM     10  C   UNL     1      31.925 -22.773 -16.685  0.00  0.00    +0.003 C 
ENDROOT
BRANCH   9  13
ATOM     11  N   UNL     1      31.369 -23.994 -14.131  0.00  0.00    -0.343 N 
ATOM     12  N   UNL     1      33.673 -24.267 -13.844  0.00  0.00    -0.285 NA
ATOM     13  C   UNL     1      32.677 -23.791 -14.571  0.00  0.00    +0.117 C 
ATOM     14  H   UNL     1      31.202 -24.487 -13.295  0.00  0.00    +0.144 HD
ATOM     15  H   UNL     1      30.614 -23.644 -14.655  0.00  0.00    +0.144 HD
ATOM     16  H   UNL     1      33.484 -24.758 -13.012  0.00  0.00    +0.188 HD
ENDBRANCH   9  13
BRANCH   1  17
ATOM     17  C   UNL     1      35.377 -19.826 -20.909  0.00  0.00    +0.027 C 
ATOM     18  C   UNL     1      35.041 -18.370 -20.993  0.00  0.00    +0.027 C 
ATOM     19  C   UNL     1      36.475 -18.808 -20.923  0.00  0.00    +0.009 C 
BRANCH  18  20
ATOM     20  C   UNL     1      34.511 -17.819 -22.266  0.00  0.00    -0.022 C 
ATOM     21  C   UNL     1      33.888 -18.662 -23.191  0.00  0.00    -0.004 C 
ATOM     22  C   UNL     1      34.631 -16.455 -22.547  0.00  0.00    -0.004 C 
ATOM     23  C   UNL     1      33.391 -18.146 -24.388  0.00  0.00    -0.000 C 
ATOM     24  C   UNL     1      34.135 -15.939 -23.744  0.00  0.00    -0.000 C 
ATOM     25  C   UNL     1      33.515 -16.784 -24.664  0.00  0.00    -0.000 C 
ENDBRANCH  18  20
ENDBRANCH   1  17
TORSDOF 3
ENDMDL
MODEL 5
REMARK VINA RESULT:     -12.5      0.775      2.083
REMARK  Name = 448841
REMARK  3 active torsions:
REMARK  status: ('A' for Active; 'I' for Inactive)
REMARK    1  A    between atoms: C_1  and  C_17
REMARK    2  A    between atoms: C_9  and  C_13
REMARK    3  A    between atoms: C_18  and  C_20
REMARK                            x       y       z     vdW  Elec       q    Type
REMARK                         _______ _______ _______ _____ _____    ______ ____
ROOT
ATOM      1  C   UNL     1      34.289 -15.698 -21.361  0.00  0.00    -0.022 C 
ATOM      2  C   UNL     1      34.202 -15.034 -22.584  0.00  0.00    -0.004 C 
ATOM      3  C   UNL     1      33.816 -15.089 -20.202  0.00  0.00    -0.004 C 
ATOM      4  C   UNL     1      33.639 -13.750 -22.665  0.00  0.00    -0.000 C 
ATOM      5  C   UNL     1      33.254 -13.812 -20.264  0.00  0.00    -0.000 C 
ATOM      6  C   UNL     1      33.158 -13.129 -21.487  0.00  0.00    +0.000 C 
ATOM      7  C   UNL     1      33.544 -13.066 -23.888  0.00  0.00    +0.000 C 
ATOM      8  C   UNL     1      32.596 -11.846 -21.566  0.00  0.00    +0.003 C 
ATOM      9  C   UNL     1      32.508 -11.181 -22.791  0.00  0.00    +0.031 C 
ATOM     10  C   UNL     1      32.981 -11.791 -23.949  0.00  0.00    +0.003 C 
ENDROOT
BRANCH   9  13
ATOM     11  N   UNL     1      30.620  -9.612 -22.422  0.00  0.00    -0.343 N 
ATOM     12  N   UNL     1      32.627  -8.845 -23.340  0.00  0.00    -0.285 NA
ATOM     13  C   UNL     1      31.922  -9.853 -22.856  0.00  0.00    +0.117 C 
ATOM     14  H   UNL     1      30.243  -8.704 -22.476  0.00  0.00    +0.144 HD
ATOM     15  H   UNL     1      30.077 -10.349 -22.061  0.00  0.00    +0.144 HD
ATOM     16  H   UNL     1      32.232  -7.945 -23.385  0.00  0.00    +0.188 HD
ENDBRANCH   9  13
BRANCH   1  17
ATOM     17  C   UNL     1      34.889 -17.059 -21.294  0.00  0.00    +0.027 C 
ATOM     18  C   UNL     1      34.001 -18.258 -21.419  0.00  0.00    +0.027 C 
ATOM     19  C   UNL     1      34.940 -17.898 -22.534  0.00  0.00    +0.009 C 
BRANCH  18  20
ATOM     20  C   UNL     1      34.281 -19.459 -20.592  0.00  0.00    -0.022 C 
ATOM     21  C   UNL     1      35.599 -19.808 -20.282  0.00  0.00    -0.004 C 
ATOM     22  C   UNL     1      33.229 -20.249 -20.120  0.00  0.00    -0.004 C 
ATOM     23  C   UNL     1      35.862 -20.938 -19.507  0.00  0.00    -0.000 C 
ATOM     24  C   UNL     1      33.491 -21.378 -19.345  0.00  0.00    -0.000 C 
ATOM     25  C   UNL     1      34.808 -21.723 -19.039  0.00  0.00    -0.000 C 
ENDBRANCH  18  20
ENDBRANCH   1  17
TORSDOF 3
ENDMDL
MODEL 6
REMARK VINA RESULT:     -12.3      3.990      6.900
REMARK  Name = 448841
REMARK  3 active torsions:
REMARK  status: ('A' for Active; 'I' for Inactive)
REMARK    1  A    between atoms: C_1  and  C_17
REMARK    2  A    between atoms: C_9  and  C_13
REMARK    3  A    between atoms: C_18  and  C_20
REMARK                            x       y       z     vdW  Elec       q    Type
REMARK                         _______ _______ _______ _____ _____    ______ ____
ROOT
ATOM      1  C   UNL     1      34.119 -21.672 -18.547  0.00  0.00    -0.022 C 
ATOM      2  C   UNL     1      35.223 -20.996 -19.064  0.00  0.00    -0.004 C 
ATOM      3  C   UNL     1      32.842 -21.391 -19.025  0.00  0.00    -0.004 C 
ATOM      4  C   UNL     1      35.065 -20.028 -20.069  0.00  0.00    -0.000 C 
ATOM      5  C   UNL     1      32.667 -20.431 -20.024  0.00  0.00    -0.000 C 
ATOM      6  C   UNL     1      33.767 -19.741 -20.556  0.00  0.00    +0.000 C 
ATOM      7  C   UNL     1      36.165 -19.336 -20.601  0.00  0.00    +0.000 C 
ATOM      8  C   UNL     1      33.608 -18.773 -21.560  0.00  0.00    +0.003 C 
ATOM      9  C   UNL     1      34.713 -18.096 -22.079  0.00  0.00    +0.031 C 
ATOM     10  C   UNL     1      35.989 -18.378 -21.600  0.00  0.00    +0.003 C 
ENDROOT
BRANCH   9  13
ATOM     11  N   UNL     1      33.799 -17.375 -24.272  0.00  0.00    -0.343 N 
ATOM     12  N   UNL     1      35.072 -15.899 -22.983  0.00  0.00    -0.285 NA
ATOM     13  C   UNL     1      34.532 -17.097 -23.119  0.00  0.00    +0.117 C 
ATOM     14  H   UNL     1      33.689 -16.684 -24.964  0.00  0.00    +0.144 HD
ATOM     15  H   UNL     1      33.392 -18.263 -24.394  0.00  0.00    +0.144 HD
ATOM     16  H   UNL     1      34.949 -15.221 -23.686  0.00  0.00    +0.188 HD
ENDBRANCH   9  13
BRANCH   1  17
ATOM     17  C   UNL     1      34.305 -22.696 -17.481  0.00  0.00    +0.027 C 
ATOM     18  C   UNL     1      34.705 -22.257 -16.106  0.00  0.00    +0.027 C 
ATOM     19  C   UNL     1      33.317 -22.769 -16.358  0.00  0.00    +0.009 C 
BRANCH  18  20
ATOM     20  C   UNL     1      35.657 -23.089 -15.328  0.00  0.00    -0.022 C 
ATOM     21  C   UNL     1      37.030 -22.830 -15.388  0.00  0.00    -0.004 C 
ATOM     22  C   UNL     1      35.188 -24.136 -14.530  0.00  0.00    -0.004 C 
ATOM     23  C   UNL     1      37.925 -23.613 -14.658  0.00  0.00    -0.000 C 
ATOM     24  C   UNL     1      36.082 -24.919 -13.800  0.00  0.00    -0.000 C 
ATOM     25  C   UNL     1      37.451 -24.657 -13.865  0.00  0.00    -0.000 C 
ENDBRANCH  18  20
ENDBRANCH   1  17
TORSDOF 3
ENDMDL
MODEL 7
REMARK VINA RESULT:     -12.2      4.392      7.478
REMARK  Name = 448841
REMARK  3 active torsions:
REMARK  status: ('A' for Active; 'I' for Inactive)
REMARK    1  A    between atoms: C_1  and  C_17
REMARK    2  A    between atoms: C_9  and  C_13
REMARK    3  A    between atoms: C_18  and  C_20
REMARK                            x       y       z     vdW  Elec       q    Type
REMARK                         _______ _______ _______ _____ _____    ______ ____
ROOT
ATOM      1  C   UNL     1      33.950 -22.039 -17.852  0.00  0.00    -0.022 C 
ATOM      2  C   UNL     1      35.073 -21.415 -18.396  0.00  0.00    -0.004 C 
ATOM      3  C   UNL     1      32.687 -21.782 -18.378  0.00  0.00    -0.004 C 
ATOM      4  C   UNL     1      34.947 -20.525 -19.475  0.00  0.00    -0.000 C 
ATOM      5  C   UNL     1      32.543 -20.899 -19.450  0.00  0.00    -0.000 C 
ATOM      6  C   UNL     1      33.663 -20.263 -20.010  0.00  0.00    +0.000 C 
ATOM      7  C   UNL     1      36.066 -19.888 -20.034  0.00  0.00    +0.000 C 
ATOM      8  C   UNL     1      33.536 -19.373 -21.088  0.00  0.00    +0.003 C 
ATOM      9  C   UNL     1      34.659 -18.749 -21.633  0.00  0.00    +0.031 C 
ATOM     10  C   UNL     1      35.922 -19.007 -21.106  0.00  0.00    +0.003 C 
ENDROOT
BRANCH   9  13
ATOM     11  N   UNL     1      35.087 -16.561 -22.725  0.00  0.00    -0.343 N 
ATOM     12  N   UNL     1      33.816 -18.193 -23.813  0.00  0.00    -0.285 NA
ATOM     13  C   UNL     1      34.511 -17.830 -22.749  0.00  0.00    +0.117 C 
ATOM     14  H   UNL     1      34.974 -15.955 -23.493  0.00  0.00    +0.144 HD
ATOM     15  H   UNL     1      35.606 -16.271 -21.941  0.00  0.00    +0.144 HD
ATOM     16  H   UNL     1      33.715 -17.572 -24.570  0.00  0.00    +0.188 HD
ENDBRANCH   9  13
BRANCH   1  17
ATOM     17  C   UNL     1      34.102 -22.980 -16.708  0.00  0.00    +0.027 C 
ATOM     18  C   UNL     1      34.687 -22.482 -15.423  0.00  0.00    +0.027 C 
ATOM     19  C   UNL     1      33.226 -22.815 -15.505  0.00  0.00    +0.009 C 
BRANCH  18  20
ATOM     20  C   UNL     1      35.592 -23.366 -14.647  0.00  0.00    -0.022 C 
ATOM     21  C   UNL     1      35.716 -24.717 -14.985  0.00  0.00    -0.004 C 
ATOM     22  C   UNL     1      36.324 -22.854 -13.571  0.00  0.00    -0.004 C 
ATOM     23  C   UNL     1      36.565 -25.549 -14.253  0.00  0.00    -0.000 C 
ATOM     24  C   UNL     1      37.173 -23.685 -12.840  0.00  0.00    -0.000 C 
ATOM     25  C   UNL     1      37.293 -25.033 -13.181  0.00  0.00    -0.000 C 
ENDBRANCH  18  20
ENDBRANCH   1  17
TORSDOF 3
ENDMDL
MODEL 8
REMARK VINA RESULT:     -12.1      1.433      2.148
REMARK  Name = 448841
REMARK  3 active torsions:
REMARK  status: ('A' for Active; 'I' for Inactive)
REMARK    1  A    between atoms: C_1  and  C_17
REMARK    2  A    between atoms: C_9  and  C_13
REMARK    3  A    between atoms: C_18  and  C_20
REMARK                            x       y       z     vdW  Elec       q    Type
REMARK                         _______ _______ _______ _____ _____    ______ ____
ROOT
ATOM      1  C   UNL     1      34.895 -17.635 -21.274  0.00  0.00    -0.022 C 
ATOM      2  C   UNL     1      34.550 -16.414 -20.694  0.00  0.00    -0.004 C 
ATOM      3  C   UNL     1      34.865 -17.782 -22.658  0.00  0.00    -0.004 C 
ATOM      4  C   UNL     1      34.171 -15.322 -21.492  0.00  0.00    -0.000 C 
ATOM      5  C   UNL     1      34.491 -16.707 -23.466  0.00  0.00    -0.000 C 
ATOM      6  C   UNL     1      34.141 -15.471 -22.900  0.00  0.00    +0.000 C 
ATOM      7  C   UNL     1      33.820 -14.087 -20.926  0.00  0.00    +0.000 C 
ATOM      8  C   UNL     1      33.762 -14.381 -23.698  0.00  0.00    +0.003 C 
ATOM      9  C   UNL     1      33.417 -13.159 -23.118  0.00  0.00    +0.031 C 
ATOM     10  C   UNL     1      33.447 -13.013 -21.734  0.00  0.00    +0.003 C 
ENDROOT
BRANCH   9  13
ATOM     11  N   UNL     1      32.672 -12.224 -25.294  0.00  0.00    -0.343 N 
ATOM     12  N   UNL     1      33.009 -10.816 -23.460  0.00  0.00    -0.285 NA
ATOM     13  C   UNL     1      33.027 -12.039 -23.959  0.00  0.00    +0.117 C 
ATOM     14  H   UNL     1      32.412 -11.451 -25.846  0.00  0.00    +0.144 HD
ATOM     15  H   UNL     1      32.683 -13.127 -25.686  0.00  0.00    +0.144 HD
ATOM     16  H   UNL     1      32.745 -10.056 -24.028  0.00  0.00    +0.188 HD
ENDBRANCH   9  13
BRANCH   1  17
ATOM     17  C   UNL     1      35.294 -18.782 -20.412  0.00  0.00    +0.027 C 
ATOM     18  C   UNL     1      34.600 -20.098 -20.577  0.00  0.00    +0.027 C 
ATOM     19  C   UNL     1      36.023 -19.938 -21.025  0.00  0.00    +0.009 C 
BRANCH  18  20
ATOM     20  C   UNL     1      34.304 -20.918 -19.376  0.00  0.00    -0.022 C 
ATOM     21  C   UNL     1      32.999 -21.354 -19.125  0.00  0.00    -0.004 C 
ATOM     22  C   UNL     1      35.327 -21.260 -18.487  0.00  0.00    -0.004 C 
ATOM     23  C   UNL     1      32.719 -22.123 -17.995  0.00  0.00    -0.000 C 
ATOM     24  C   UNL     1      35.048 -22.029 -17.357  0.00  0.00    -0.000 C 
ATOM     25  C   UNL     1      33.744 -22.460 -17.111  0.00  0.00    -0.000 C 
ENDBRANCH  18  20
ENDBRANCH   1  17
TORSDOF 3
ENDMDL
MODEL 9
REMARK VINA RESULT:     -11.9      3.544      6.301
REMARK  Name = 448841
REMARK  3 active torsions:
REMARK  status: ('A' for Active; 'I' for Inactive)
REMARK    1  A    between atoms: C_1  and  C_17
REMARK    2  A    between atoms: C_9  and  C_13
REMARK    3  A    between atoms: C_18  and  C_20
REMARK                            x       y       z     vdW  Elec       q    Type
REMARK                         _______ _______ _______ _____ _____    ______ ____
ROOT
ATOM      1  C   UNL     1      31.580 -10.988 -21.325  0.00  0.00    -0.022 C 
ATOM      2  C   UNL     1      31.658 -10.137 -22.427  0.00  0.00    -0.004 C 
ATOM      3  C   UNL     1      31.360 -10.465 -20.054  0.00  0.00    -0.004 C 
ATOM      4  C   UNL     1      31.518  -8.748 -22.272  0.00  0.00    -0.000 C 
ATOM      5  C   UNL     1      31.219  -9.087 -19.882  0.00  0.00    -0.000 C 
ATOM      6  C   UNL     1      31.295  -8.215 -20.980  0.00  0.00    +0.000 C 
ATOM      7  C   UNL     1      31.596  -7.877 -23.370  0.00  0.00    +0.000 C 
ATOM      8  C   UNL     1      31.155  -6.827 -20.824  0.00  0.00    +0.003 C 
ATOM      9  C   UNL     1      31.234  -5.975 -21.926  0.00  0.00    +0.031 C 
ATOM     10  C   UNL     1      31.453  -6.500 -23.197  0.00  0.00    +0.003 C 
ENDROOT
BRANCH   9  13
ATOM     11  N   UNL     1      31.614  -3.637 -22.671  0.00  0.00    -0.343 N 
ATOM     12  N   UNL     1      30.445  -4.069 -20.694  0.00  0.00    -0.285 NA
ATOM     13  C   UNL     1      31.086  -4.540 -21.749  0.00  0.00    +0.117 C 
ATOM     14  H   UNL     1      31.502  -2.669 -22.530  0.00  0.00    +0.144 HD
ATOM     15  H   UNL     1      32.098  -3.967 -23.461  0.00  0.00    +0.144 HD
ATOM     16  H   UNL     1      30.344  -3.097 -20.572  0.00  0.00    +0.188 HD
ENDBRANCH   9  13
BRANCH   1  17
ATOM     17  C   UNL     1      31.731 -12.459 -21.507  0.00  0.00    +0.027 C 
ATOM     18  C   UNL     1      33.073 -13.089 -21.296  0.00  0.00    +0.027 C 
ATOM     19  C   UNL     1      31.968 -13.323 -20.308  0.00  0.00    +0.009 C 
BRANCH  18  20
ATOM     20  C   UNL     1      33.502 -14.198 -22.184  0.00  0.00    -0.022 C 
ATOM     21  C   UNL     1      34.224 -15.276 -21.664  0.00  0.00    -0.004 C 
ATOM     22  C   UNL     1      33.189 -14.171 -23.546  0.00  0.00    -0.004 C 
ATOM     23  C   UNL     1      34.630 -16.318 -22.499  0.00  0.00    -0.000 C 
ATOM     24  C   UNL     1      33.595 -15.212 -24.381  0.00  0.00    -0.000 C 
ATOM     25  C   UNL     1      34.315 -16.285 -23.857  0.00  0.00    -0.000 C 
ENDBRANCH  18  20
ENDBRANCH   1  17
TORSDOF 3
ENDMDL
