MODEL 1
REMARK VINA RESULT:     -13.4      0.000      0.000
REMARK  Name = 24755471
REMARK  13 active torsions:
REMARK  status: ('A' for Active; 'I' for Inactive)
REMARK    1  A    between atoms: C_1  and  S_11
REMARK    2  A    between atoms: C_9  and  O_27
REMARK    3  A    between atoms: S_11  and  N_14
REMARK    4  A    between atoms: N_14  and  C_16
REMARK    5  A    between atoms: C_16  and  C_18
REMARK    6  A    between atoms: C_16  and  C_21
REMARK    7  A    between atoms: C_18  and  O_19
REMARK    8  A    between atoms: C_21  and  C_22
REMARK    9  A    between atoms: C_22  and  C_24
REMARK   10  A    between atoms: C_24  and  O_25
REMARK   11  A    between atoms: O_27  and  C_28
REMARK   12  A    between atoms: C_28  and  C_29
REMARK   13  A    between atoms: C_34  and  C_36
REMARK                            x       y       z     vdW  Elec       q    Type
REMARK                         _______ _______ _______ _____ _____    ______ ____
ROOT
ATOM      1  C   UNL     1      35.600 -22.443 -16.340  0.00  0.00    +0.122 C 
ATOM      2  C   UNL     1      34.146 -21.649 -18.122  0.00  0.00    +0.002 C 
ATOM      3  C   UNL     1      34.348 -22.402 -16.954  0.00  0.00    +0.020 C 
ATOM      4  C   UNL     1      35.230 -20.927 -18.676  0.00  0.00    +0.003 C 
ATOM      5  C   UNL     1      36.666 -21.733 -16.885  0.00  0.00    +0.020 C 
ATOM      6  C   UNL     1      36.484 -20.980 -18.046  0.00  0.00    +0.001 C 
ATOM      7  C   UNL     1      35.028 -20.175 -19.844  0.00  0.00    +0.037 C 
ATOM      8  C   UNL     1      32.892 -21.597 -18.753  0.00  0.00    +0.003 C 
ATOM      9  C   UNL     1      33.776 -20.134 -20.457  0.00  0.00    +0.139 C 
ATOM     10  C   UNL     1      32.710 -20.844 -19.913  0.00  0.00    +0.037 C 
ENDROOT
BRANCH   1  11
ATOM     11  S   UNL     1      35.833 -23.396 -14.870  0.00  0.00    +0.061 S 
ATOM     12  O   UNL     1      35.316 -22.628 -13.753  0.00  0.00    -0.153 OA
ATOM     13  O   UNL     1      35.319 -24.725 -15.142  0.00  0.00    -0.153 OA
BRANCH  11  14
ATOM     14  N   UNL     1      37.528 -23.472 -14.767  0.00  0.00    -0.170 NA
ATOM     15  H   UNL     1      37.826 -22.660 -14.227  0.00  0.00    +0.149 HD
BRANCH  14  16
ATOM     16  C   UNL     1      38.178 -24.653 -14.158  0.00  0.00    +0.174 C 
BRANCH  16  18
ATOM     17  O   UNL     1      40.559 -24.155 -14.115  0.00  0.00    -0.249 OA
ATOM     18  C   UNL     1      39.605 -24.707 -14.650  0.00  0.00    +0.330 C 
BRANCH  18  19
ATOM     19  O   UNL     1      39.732 -25.469 -15.767  0.00  0.00    -0.479 OA
ATOM     20  H   UNL     1      40.579 -25.755 -16.045  0.00  0.00    +0.295 HD
ENDBRANCH  18  19
ENDBRANCH  16  18
BRANCH  16  21
ATOM     21  C   UNL     1      38.030 -24.618 -12.632  0.00  0.00    +0.040 C 
BRANCH  21  22
ATOM     22  C   UNL     1      36.826 -25.362 -12.047  0.00  0.00    +0.111 C 
BRANCH  22  24
ATOM     23  O   UNL     1      36.465 -23.875 -10.179  0.00  0.00    -0.250 OA
ATOM     24  C   UNL     1      35.997 -24.532 -11.100  0.00  0.00    +0.314 C 
BRANCH  24  25
ATOM     25  O   UNL     1      34.668 -24.604 -11.364  0.00  0.00    -0.480 OA
ATOM     26  H   UNL     1      34.064 -24.798 -10.674  0.00  0.00    +0.295 HD
ENDBRANCH  24  25
ENDBRANCH  22  24
ENDBRANCH  21  22
ENDBRANCH  16  21
ENDBRANCH  14  16
ENDBRANCH  11  14
ENDBRANCH   1  11
BRANCH   9  27
ATOM     27  O   UNL     1      33.596 -19.399 -21.589  0.00  0.00    -0.471 OA
BRANCH  27  28
ATOM     28  C   UNL     1      34.754 -18.789 -22.157  0.00  0.00    +0.232 C 
BRANCH  28  29
ATOM     29  C   UNL     1      34.481 -17.331 -22.380  0.00  0.00    +0.021 C 
ATOM     30  C   UNL     1      34.484 -16.448 -21.299  0.00  0.00    -0.000 C 
ATOM     31  C   UNL     1      34.222 -16.857 -23.666  0.00  0.00    -0.000 C 
ATOM     32  C   UNL     1      34.230 -15.093 -21.506  0.00  0.00    +0.010 C 
ATOM     33  C   UNL     1      33.968 -15.502 -23.873  0.00  0.00    +0.010 C 
ATOM     34  C   UNL     1      33.971 -14.620 -22.792  0.00  0.00    +0.068 C 
BRANCH  34  36
ATOM     35  N   UNL     1      33.500 -12.102 -23.175  0.00  0.00    -0.191 NA
ATOM     36  C   UNL     1      33.711 -13.230 -23.003  0.00  0.00    +0.100 C 
ENDBRANCH  34  36
ENDBRANCH  28  29
ENDBRANCH  27  28
ENDBRANCH   9  27
TORSDOF 13
ENDMDL
MODEL 2
REMARK VINA RESULT:     -13.3      1.453      2.756
REMARK  Name = 24755471
REMARK  13 active torsions:
REMARK  status: ('A' for Active; 'I' for Inactive)
REMARK    1  A    between atoms: C_1  and  S_11
REMARK    2  A    between atoms: C_9  and  O_27
REMARK    3  A    between atoms: S_11  and  N_14
REMARK    4  A    between atoms: N_14  and  C_16
REMARK    5  A    between atoms: C_16  and  C_18
REMARK    6  A    between atoms: C_16  and  C_21
REMARK    7  A    between atoms: C_18  and  O_19
REMARK    8  A    between atoms: C_21  and  C_22
REMARK    9  A    between atoms: C_22  and  C_24
REMARK   10  A    between atoms: C_24  and  O_25
REMARK   11  A    between atoms: O_27  and  C_28
REMARK   12  A    between atoms: C_28  and  C_29
REMARK   13  A    between atoms: C_34  and  C_36
REMARK                            x       y       z     vdW  Elec       q    Type
REMARK                         _______ _______ _______ _____ _____    ______ ____
ROOT
ATOM      1  C   UNL     1      33.856 -22.722 -16.366  0.00  0.00    +0.122 C 
ATOM      2  C   UNL     1      34.677 -21.445 -18.268  0.00  0.00    +0.002 C 
ATOM      3  C   UNL     1      34.914 -22.156 -17.080  0.00  0.00    +0.020 C 
ATOM      4  C   UNL     1      33.350 -21.305 -18.738  0.00  0.00    +0.003 C 
ATOM      5  C   UNL     1      32.551 -22.583 -16.829  0.00  0.00    +0.020 C 
ATOM      6  C   UNL     1      32.298 -21.880 -18.007  0.00  0.00    +0.001 C 
ATOM      7  C   UNL     1      33.114 -20.593 -19.926  0.00  0.00    +0.037 C 
ATOM      8  C   UNL     1      35.730 -20.869 -18.999  0.00  0.00    +0.003 C 
ATOM      9  C   UNL     1      34.171 -20.028 -20.639  0.00  0.00    +0.139 C 
ATOM     10  C   UNL     1      35.477 -20.166 -20.177  0.00  0.00    +0.037 C 
ENDROOT
BRANCH   1  11
ATOM     11  S   UNL     1      34.176 -23.613 -14.873  0.00  0.00    +0.061 S 
ATOM     12  O   UNL     1      34.653 -22.668 -13.883  0.00  0.00    -0.153 OA
ATOM     13  O   UNL     1      33.003 -24.422 -14.606  0.00  0.00    -0.153 OA
BRANCH  11  14
ATOM     14  N   UNL     1      35.453 -24.633 -15.342  0.00  0.00    -0.170 NA
ATOM     15  H   UNL     1      36.068 -24.079 -15.938  0.00  0.00    +0.149 HD
BRANCH  14  16
ATOM     16  C   UNL     1      36.307 -25.266 -14.314  0.00  0.00    +0.174 C 
BRANCH  16  18
ATOM     17  O   UNL     1      37.690 -27.267 -14.363  0.00  0.00    -0.249 OA
ATOM     18  C   UNL     1      36.811 -26.578 -14.867  0.00  0.00    +0.330 C 
BRANCH  18  19
ATOM     19  O   UNL     1      36.160 -26.938 -16.003  0.00  0.00    -0.479 OA
ATOM     20  H   UNL     1      35.252 -27.165 -15.970  0.00  0.00    +0.295 HD
ENDBRANCH  18  19
ENDBRANCH  16  18
BRANCH  16  21
ATOM     21  C   UNL     1      37.408 -24.298 -13.864  0.00  0.00    +0.040 C 
BRANCH  21  22
ATOM     22  C   UNL     1      38.412 -23.862 -14.936  0.00  0.00    +0.111 C 
BRANCH  22  24
ATOM     23  O   UNL     1      40.635 -24.163 -14.041  0.00  0.00    -0.250 OA
ATOM     24  C   UNL     1      39.760 -24.527 -14.816  0.00  0.00    +0.314 C 
BRANCH  24  25
ATOM     25  O   UNL     1      39.911 -25.567 -15.674  0.00  0.00    -0.480 OA
ATOM     26  H   UNL     1      40.080 -25.404 -16.581  0.00  0.00    +0.295 HD
ENDBRANCH  24  25
ENDBRANCH  22  24
ENDBRANCH  21  22
ENDBRANCH  16  21
ENDBRANCH  14  16
ENDBRANCH  11  14
ENDBRANCH   1  11
BRANCH   9  27
ATOM     27  O   UNL     1      33.926 -19.343 -21.790  0.00  0.00    -0.471 OA
BRANCH  27  28
ATOM     28  C   UNL     1      35.014 -18.617 -22.358  0.00  0.00    +0.232 C 
BRANCH  28  29
ATOM     29  C   UNL     1      34.615 -17.179 -22.515  0.00  0.00    +0.021 C 
ATOM     30  C   UNL     1      34.555 -16.346 -21.398  0.00  0.00    -0.000 C 
ATOM     31  C   UNL     1      34.301 -16.676 -23.777  0.00  0.00    -0.000 C 
ATOM     32  C   UNL     1      34.184 -15.010 -21.543  0.00  0.00    +0.010 C 
ATOM     33  C   UNL     1      33.930 -15.340 -23.923  0.00  0.00    +0.010 C 
ATOM     34  C   UNL     1      33.870 -14.507 -22.806  0.00  0.00    +0.068 C 
BRANCH  34  36
ATOM     35  N   UNL     1      33.180 -12.025 -23.076  0.00  0.00    -0.191 NA
ATOM     36  C   UNL     1      33.490 -13.137 -22.955  0.00  0.00    +0.100 C 
ENDBRANCH  34  36
ENDBRANCH  28  29
ENDBRANCH  27  28
ENDBRANCH   9  27
TORSDOF 13
ENDMDL
MODEL 3
REMARK VINA RESULT:     -13.1      1.052      1.904
REMARK  Name = 24755471
REMARK  13 active torsions:
REMARK  status: ('A' for Active; 'I' for Inactive)
REMARK    1  A    between atoms: C_1  and  S_11
REMARK    2  A    between atoms: C_9  and  O_27
REMARK    3  A    between atoms: S_11  and  N_14
REMARK    4  A    between atoms: N_14  and  C_16
REMARK    5  A    between atoms: C_16  and  C_18
REMARK    6  A    between atoms: C_16  and  C_21
REMARK    7  A    between atoms: C_18  and  O_19
REMARK    8  A    between atoms: C_21  and  C_22
REMARK    9  A    between atoms: C_22  and  C_24
REMARK   10  A    between atoms: C_24  and  O_25
REMARK   11  A    between atoms: O_27  and  C_28
REMARK   12  A    between atoms: C_28  and  C_29
REMARK   13  A    between atoms: C_34  and  C_36
REMARK                            x       y       z     vdW  Elec       q    Type
REMARK                         _______ _______ _______ _____ _____    ______ ____
ROOT
ATOM      1  C   UNL     1      34.069 -22.894 -16.291  0.00  0.00    +0.122 C 
ATOM      2  C   UNL     1      34.803 -21.522 -18.162  0.00  0.00    +0.002 C 
ATOM      3  C   UNL     1      35.090 -22.264 -17.005  0.00  0.00    +0.020 C 
ATOM      4  C   UNL     1      33.462 -21.417 -18.602  0.00  0.00    +0.003 C 
ATOM      5  C   UNL     1      32.751 -22.789 -16.724  0.00  0.00    +0.020 C 
ATOM      6  C   UNL     1      32.448 -22.057 -17.871  0.00  0.00    +0.001 C 
ATOM      7  C   UNL     1      33.176 -20.675 -19.759  0.00  0.00    +0.037 C 
ATOM      8  C   UNL     1      35.819 -20.882 -18.893  0.00  0.00    +0.003 C 
ATOM      9  C   UNL     1      34.196 -20.046 -20.473  0.00  0.00    +0.139 C 
ATOM     10  C   UNL     1      35.515 -20.149 -20.041  0.00  0.00    +0.037 C 
ENDROOT
BRANCH   1  11
ATOM     11  S   UNL     1      34.452 -23.823 -14.837  0.00  0.00    +0.061 S 
ATOM     12  O   UNL     1      33.442 -23.528 -13.840  0.00  0.00    -0.153 OA
ATOM     13  O   UNL     1      34.685 -25.191 -15.259  0.00  0.00    -0.153 OA
BRANCH  11  14
ATOM     14  N   UNL     1      35.932 -23.134 -14.362  0.00  0.00    -0.170 NA
ATOM     15  H   UNL     1      35.710 -22.368 -13.727  0.00  0.00    +0.149 HD
BRANCH  14  16
ATOM     16  C   UNL     1      36.952 -23.967 -13.687  0.00  0.00    +0.174 C 
BRANCH  16  18
ATOM     17  O   UNL     1      38.862 -23.312 -15.043  0.00  0.00    -0.249 OA
ATOM     18  C   UNL     1      38.093 -24.182 -14.652  0.00  0.00    +0.330 C 
BRANCH  18  19
ATOM     19  O   UNL     1      38.199 -25.480 -15.040  0.00  0.00    -0.479 OA
ATOM     20  H   UNL     1      38.062 -25.713 -15.936  0.00  0.00    +0.295 HD
ENDBRANCH  18  19
ENDBRANCH  16  18
BRANCH  16  21
ATOM     21  C   UNL     1      37.357 -23.339 -12.349  0.00  0.00    +0.040 C 
BRANCH  21  22
ATOM     22  C   UNL     1      36.223 -22.760 -11.497  0.00  0.00    +0.111 C 
BRANCH  22  24
ATOM     23  O   UNL     1      35.877 -23.854  -9.372  0.00  0.00    -0.250 OA
ATOM     24  C   UNL     1      35.593 -23.758 -10.559  0.00  0.00    +0.314 C 
BRANCH  24  25
ATOM     25  O   UNL     1      34.685 -24.557 -11.175  0.00  0.00    -0.480 OA
ATOM     26  H   UNL     1      34.973 -25.303 -11.662  0.00  0.00    +0.295 HD
ENDBRANCH  24  25
ENDBRANCH  22  24
ENDBRANCH  21  22
ENDBRANCH  16  21
ENDBRANCH  14  16
ENDBRANCH  11  14
ENDBRANCH   1  11
BRANCH   9  27
ATOM     27  O   UNL     1      33.902 -19.332 -21.594  0.00  0.00    -0.471 OA
BRANCH  27  28
ATOM     28  C   UNL     1      34.982 -18.656 -22.235  0.00  0.00    +0.232 C 
BRANCH  28  29
ATOM     29  C   UNL     1      34.613 -17.214 -22.426  0.00  0.00    +0.021 C 
ATOM     30  C   UNL     1      34.341 -16.728 -23.705  0.00  0.00    -0.000 C 
ATOM     31  C   UNL     1      34.545 -16.360 -21.326  0.00  0.00    -0.000 C 
ATOM     32  C   UNL     1      33.999 -15.388 -23.883  0.00  0.00    +0.010 C 
ATOM     33  C   UNL     1      34.203 -15.020 -21.504  0.00  0.00    +0.010 C 
ATOM     34  C   UNL     1      33.930 -14.534 -22.783  0.00  0.00    +0.068 C 
BRANCH  34  36
ATOM     35  N   UNL     1      33.293 -12.045 -23.114  0.00  0.00    -0.191 NA
ATOM     36  C   UNL     1      33.579 -13.160 -22.966  0.00  0.00    +0.100 C 
ENDBRANCH  34  36
ENDBRANCH  28  29
ENDBRANCH  27  28
ENDBRANCH   9  27
TORSDOF 13
ENDMDL
MODEL 4
REMARK VINA RESULT:     -12.7      1.245      2.970
REMARK  Name = 24755471
REMARK  13 active torsions:
REMARK  status: ('A' for Active; 'I' for Inactive)
REMARK    1  A    between atoms: C_1  and  S_11
REMARK    2  A    between atoms: C_9  and  O_27
REMARK    3  A    between atoms: S_11  and  N_14
REMARK    4  A    between atoms: N_14  and  C_16
REMARK    5  A    between atoms: C_16  and  C_18
REMARK    6  A    between atoms: C_16  and  C_21
REMARK    7  A    between atoms: C_18  and  O_19
REMARK    8  A    between atoms: C_21  and  C_22
REMARK    9  A    between atoms: C_22  and  C_24
REMARK   10  A    between atoms: C_24  and  O_25
REMARK   11  A    between atoms: O_27  and  C_28
REMARK   12  A    between atoms: C_28  and  C_29
REMARK   13  A    between atoms: C_34  and  C_36
REMARK                            x       y       z     vdW  Elec       q    Type
REMARK                         _______ _______ _______ _____ _____    ______ ____
ROOT
ATOM      1  C   UNL     1      35.530 -22.779 -15.476  0.00  0.00    +0.122 C 
ATOM      2  C   UNL     1      34.386 -22.030 -17.489  0.00  0.00    +0.002 C 
ATOM      3  C   UNL     1      34.387 -22.738 -16.276  0.00  0.00    +0.020 C 
ATOM      4  C   UNL     1      35.560 -21.354 -17.897  0.00  0.00    +0.003 C 
ATOM      5  C   UNL     1      36.684 -22.114 -15.878  0.00  0.00    +0.020 C 
ATOM      6  C   UNL     1      36.701 -21.406 -17.080  0.00  0.00    +0.001 C 
ATOM      7  C   UNL     1      35.559 -20.646 -19.110  0.00  0.00    +0.037 C 
ATOM      8  C   UNL     1      33.244 -21.979 -18.307  0.00  0.00    +0.003 C 
ATOM      9  C   UNL     1      34.416 -20.605 -19.909  0.00  0.00    +0.139 C 
ATOM     10  C   UNL     1      33.261 -21.270 -19.509  0.00  0.00    +0.037 C 
ENDROOT
BRANCH   1  11
ATOM     11  S   UNL     1      35.510 -23.676 -13.953  0.00  0.00    +0.061 S 
ATOM     12  O   UNL     1      34.394 -23.191 -13.164  0.00  0.00    -0.153 OA
ATOM     13  O   UNL     1      35.608 -25.083 -14.290  0.00  0.00    -0.153 OA
BRANCH  11  14
ATOM     14  N   UNL     1      36.968 -23.178 -13.235  0.00  0.00    -0.170 NA
ATOM     15  H   UNL     1      36.788 -22.274 -12.800  0.00  0.00    +0.149 HD
BRANCH  14  16
ATOM     16  C   UNL     1      37.613 -24.026 -12.209  0.00  0.00    +0.174 C 
BRANCH  16  18
ATOM     17  O   UNL     1      36.061 -25.289 -10.826  0.00  0.00    -0.249 OA
ATOM     18  C   UNL     1      36.625 -24.233 -11.085  0.00  0.00    +0.330 C 
BRANCH  18  19
ATOM     19  O   UNL     1      36.435 -23.103 -10.357  0.00  0.00    -0.479 OA
ATOM     20  H   UNL     1      35.769 -22.493 -10.604  0.00  0.00    +0.295 HD
ENDBRANCH  18  19
ENDBRANCH  16  18
BRANCH  16  21
ATOM     21  C   UNL     1      38.142 -25.320 -12.840  0.00  0.00    +0.040 C 
BRANCH  21  22
ATOM     22  C   UNL     1      39.560 -25.266 -13.415  0.00  0.00    +0.111 C 
BRANCH  22  24
ATOM     23  O   UNL     1      39.257 -23.609 -15.146  0.00  0.00    -0.250 OA
ATOM     24  C   UNL     1      39.628 -24.730 -14.823  0.00  0.00    +0.314 C 
BRANCH  24  25
ATOM     25  O   UNL     1      40.132 -25.630 -15.704  0.00  0.00    -0.480 OA
ATOM     26  H   UNL     1      40.089 -26.546 -15.513  0.00  0.00    +0.295 HD
ENDBRANCH  24  25
ENDBRANCH  22  24
ENDBRANCH  21  22
ENDBRANCH  16  21
ENDBRANCH  14  16
ENDBRANCH  11  14
ENDBRANCH   1  11
BRANCH   9  27
ATOM     27  O   UNL     1      34.431 -19.913 -21.081  0.00  0.00    -0.471 OA
BRANCH  27  28
ATOM     28  C   UNL     1      35.326 -18.806 -21.171  0.00  0.00    +0.232 C 
BRANCH  28  29
ATOM     29  C   UNL     1      34.807 -17.837 -22.191  0.00  0.00    +0.021 C 
ATOM     30  C   UNL     1      34.150 -18.307 -23.328  0.00  0.00    -0.000 C 
ATOM     31  C   UNL     1      34.982 -16.466 -22.003  0.00  0.00    -0.000 C 
ATOM     32  C   UNL     1      33.668 -17.406 -24.277  0.00  0.00    +0.010 C 
ATOM     33  C   UNL     1      34.500 -15.565 -22.952  0.00  0.00    +0.010 C 
ATOM     34  C   UNL     1      33.844 -16.035 -24.089  0.00  0.00    +0.068 C 
BRANCH  34  36
ATOM     35  N   UNL     1      32.947 -14.362 -25.851  0.00  0.00    -0.191 NA
ATOM     36  C   UNL     1      33.348 -15.112 -25.062  0.00  0.00    +0.100 C 
ENDBRANCH  34  36
ENDBRANCH  28  29
ENDBRANCH  27  28
ENDBRANCH   9  27
TORSDOF 13
ENDMDL
MODEL 5
REMARK VINA RESULT:     -12.7      2.710      4.541
REMARK  Name = 24755471
REMARK  13 active torsions:
REMARK  status: ('A' for Active; 'I' for Inactive)
REMARK    1  A    between atoms: C_1  and  S_11
REMARK    2  A    between atoms: C_9  and  O_27
REMARK    3  A    between atoms: S_11  and  N_14
REMARK    4  A    between atoms: N_14  and  C_16
REMARK    5  A    between atoms: C_16  and  C_18
REMARK    6  A    between atoms: C_16  and  C_21
REMARK    7  A    between atoms: C_18  and  O_19
REMARK    8  A    between atoms: C_21  and  C_22
REMARK    9  A    between atoms: C_22  and  C_24
REMARK   10  A    between atoms: C_24  and  O_25
REMARK   11  A    between atoms: O_27  and  C_28
REMARK   12  A    between atoms: C_28  and  C_29
REMARK   13  A    between atoms: C_34  and  C_36
REMARK                            x       y       z     vdW  Elec       q    Type
REMARK                         _______ _______ _______ _____ _____    ______ ____
ROOT
ATOM      1  C   UNL     1      34.934 -22.339 -16.560  0.00  0.00    +0.122 C 
ATOM      2  C   UNL     1      33.764 -21.375 -18.463  0.00  0.00    +0.002 C 
ATOM      3  C   UNL     1      33.752 -22.106 -17.265  0.00  0.00    +0.020 C 
ATOM      4  C   UNL     1      34.992 -20.871 -18.954  0.00  0.00    +0.003 C 
ATOM      5  C   UNL     1      36.141 -21.844 -17.043  0.00  0.00    +0.020 C 
ATOM      6  C   UNL     1      36.172 -21.114 -18.232  0.00  0.00    +0.001 C 
ATOM      7  C   UNL     1      35.004 -20.139 -20.153  0.00  0.00    +0.037 C 
ATOM      8  C   UNL     1      32.584 -21.132 -19.186  0.00  0.00    +0.003 C 
ATOM      9  C   UNL     1      33.822 -19.908 -20.857  0.00  0.00    +0.139 C 
ATOM     10  C   UNL     1      32.615 -20.403 -20.375  0.00  0.00    +0.037 C 
ENDROOT
BRANCH   1  11
ATOM     11  S   UNL     1      34.896 -23.262 -15.053  0.00  0.00    +0.061 S 
ATOM     12  O   UNL     1      34.730 -24.662 -15.391  0.00  0.00    -0.153 OA
ATOM     13  O   UNL     1      36.035 -22.831 -14.265  0.00  0.00    -0.153 OA
BRANCH  11  14
ATOM     14  N   UNL     1      33.473 -22.685 -14.325  0.00  0.00    -0.170 NA
ATOM     15  H   UNL     1      33.303 -21.755 -14.708  0.00  0.00    +0.149 HD
BRANCH  14  16
ATOM     16  C   UNL     1      32.211 -23.444 -14.467  0.00  0.00    +0.174 C 
BRANCH  16  18
ATOM     17  O   UNL     1      30.905 -24.586 -12.762  0.00  0.00    -0.249 OA
ATOM     18  C   UNL     1      31.994 -24.233 -13.197  0.00  0.00    +0.330 C 
BRANCH  18  19
ATOM     19  O   UNL     1      33.163 -24.537 -12.578  0.00  0.00    -0.479 OA
ATOM     20  H   UNL     1      33.342 -24.200 -11.723  0.00  0.00    +0.295 HD
ENDBRANCH  18  19
ENDBRANCH  16  18
BRANCH  16  21
ATOM     21  C   UNL     1      31.059 -22.503 -14.838  0.00  0.00    +0.040 C 
BRANCH  21  22
ATOM     22  C   UNL     1      30.314 -22.818 -16.138  0.00  0.00    +0.111 C 
BRANCH  22  24
ATOM     23  O   UNL     1      28.217 -21.729 -16.640  0.00  0.00    -0.250 OA
ATOM     24  C   UNL     1      28.822 -22.615 -16.051  0.00  0.00    +0.314 C 
BRANCH  24  25
ATOM     25  O   UNL     1      28.217 -23.514 -15.234  0.00  0.00    -0.480 OA
ATOM     26  H   UNL     1      27.293 -23.463 -15.086  0.00  0.00    +0.295 HD
ENDBRANCH  24  25
ENDBRANCH  22  24
ENDBRANCH  21  22
ENDBRANCH  16  21
ENDBRANCH  14  16
ENDBRANCH  11  14
ENDBRANCH   1  11
BRANCH   9  27
ATOM     27  O   UNL     1      33.851 -19.195 -22.016  0.00  0.00    -0.471 OA
BRANCH  27  28
ATOM     28  C   UNL     1      35.013 -18.407 -22.266  0.00  0.00    +0.232 C 
BRANCH  28  29
ATOM     29  C   UNL     1      34.603 -16.977 -22.463  0.00  0.00    +0.021 C 
ATOM     30  C   UNL     1      34.341 -16.498 -23.747  0.00  0.00    -0.000 C 
ATOM     31  C   UNL     1      34.485 -16.127 -21.364  0.00  0.00    -0.000 C 
ATOM     32  C   UNL     1      33.960 -15.170 -23.931  0.00  0.00    +0.010 C 
ATOM     33  C   UNL     1      34.104 -14.798 -21.548  0.00  0.00    +0.010 C 
ATOM     34  C   UNL     1      33.842 -14.319 -22.831  0.00  0.00    +0.068 C 
BRANCH  34  36
ATOM     35  N   UNL     1      33.133 -11.852 -23.173  0.00  0.00    -0.191 NA
ATOM     36  C   UNL     1      33.451 -12.957 -23.020  0.00  0.00    +0.100 C 
ENDBRANCH  34  36
ENDBRANCH  28  29
ENDBRANCH  27  28
ENDBRANCH   9  27
TORSDOF 13
ENDMDL
MODEL 6
REMARK VINA RESULT:     -12.5      3.545      5.452
REMARK  Name = 24755471
REMARK  13 active torsions:
REMARK  status: ('A' for Active; 'I' for Inactive)
REMARK    1  A    between atoms: C_1  and  S_11
REMARK    2  A    between atoms: C_9  and  O_27
REMARK    3  A    between atoms: S_11  and  N_14
REMARK    4  A    between atoms: N_14  and  C_16
REMARK    5  A    between atoms: C_16  and  C_18
REMARK    6  A    between atoms: C_16  and  C_21
REMARK    7  A    between atoms: C_18  and  O_19
REMARK    8  A    between atoms: C_21  and  C_22
REMARK    9  A    between atoms: C_22  and  C_24
REMARK   10  A    between atoms: C_24  and  O_25
REMARK   11  A    between atoms: O_27  and  C_28
REMARK   12  A    between atoms: C_28  and  C_29
REMARK   13  A    between atoms: C_34  and  C_36
REMARK                            x       y       z     vdW  Elec       q    Type
REMARK                         _______ _______ _______ _____ _____    ______ ____
ROOT
ATOM      1  C   UNL     1      33.562 -21.638 -18.581  0.00  0.00    +0.122 C 
ATOM      2  C   UNL     1      34.988 -20.143 -19.866  0.00  0.00    +0.002 C 
ATOM      3  C   UNL     1      34.829 -21.141 -18.890  0.00  0.00    +0.020 C 
ATOM      4  C   UNL     1      33.848 -19.643 -20.538  0.00  0.00    +0.003 C 
ATOM      5  C   UNL     1      32.440 -21.145 -19.241  0.00  0.00    +0.020 C 
ATOM      6  C   UNL     1      32.580 -20.154 -20.213  0.00  0.00    +0.001 C 
ATOM      7  C   UNL     1      34.008 -18.645 -21.513  0.00  0.00    +0.037 C 
ATOM      8  C   UNL     1      36.256 -19.631 -20.189  0.00  0.00    +0.003 C 
ATOM      9  C   UNL     1      35.275 -18.149 -21.822  0.00  0.00    +0.139 C 
ATOM     10  C   UNL     1      36.396 -18.640 -21.162  0.00  0.00    +0.037 C 
ENDROOT
BRANCH   1  11
ATOM     11  S   UNL     1      33.383 -22.894 -17.350  0.00  0.00    +0.061 S 
ATOM     12  O   UNL     1      32.989 -24.119 -18.016  0.00  0.00    -0.153 OA
ATOM     13  O   UNL     1      34.581 -22.859 -16.534  0.00  0.00    -0.153 OA
BRANCH  11  14
ATOM     14  N   UNL     1      32.076 -22.303 -16.436  0.00  0.00    -0.170 NA
ATOM     15  H   UNL     1      31.433 -21.862 -17.093  0.00  0.00    +0.149 HD
BRANCH  14  16
ATOM     16  C   UNL     1      31.274 -23.231 -15.609  0.00  0.00    +0.174 C 
BRANCH  16  18
ATOM     17  O   UNL     1      32.028 -24.635 -13.771  0.00  0.00    -0.249 OA
ATOM     18  C   UNL     1      32.077 -23.571 -14.375  0.00  0.00    +0.330 C 
BRANCH  18  19
ATOM     19  O   UNL     1      32.898 -22.555 -14.003  0.00  0.00    -0.479 OA
ATOM     20  H   UNL     1      32.576 -21.676 -13.983  0.00  0.00    +0.295 HD
ENDBRANCH  18  19
ENDBRANCH  16  18
BRANCH  16  21
ATOM     21  C   UNL     1      29.890 -22.636 -15.326  0.00  0.00    +0.040 C 
BRANCH  21  22
ATOM     22  C   UNL     1      28.689 -23.545 -15.601  0.00  0.00    +0.111 C 
BRANCH  22  24
ATOM     23  O   UNL     1      27.081 -23.761 -17.391  0.00  0.00    -0.250 OA
ATOM     24  C   UNL     1      27.776 -23.038 -16.689  0.00  0.00    +0.314 C 
BRANCH  24  25
ATOM     25  O   UNL     1      27.818 -21.688 -16.822  0.00  0.00    -0.480 OA
ATOM     26  H   UNL     1      27.548 -21.139 -16.112  0.00  0.00    +0.295 HD
ENDBRANCH  24  25
ENDBRANCH  22  24
ENDBRANCH  21  22
ENDBRANCH  16  21
ENDBRANCH  14  16
ENDBRANCH  11  14
ENDBRANCH   1  11
BRANCH   9  27
ATOM     27  O   UNL     1      35.413 -17.183 -22.771  0.00  0.00    -0.471 OA
BRANCH  27  28
ATOM     28  C   UNL     1      34.296 -16.950 -23.628  0.00  0.00    +0.232 C 
BRANCH  28  29
ATOM     29  C   UNL     1      33.893 -15.508 -23.526  0.00  0.00    +0.021 C 
ATOM     30  C   UNL     1      34.130 -14.800 -22.348  0.00  0.00    -0.000 C 
ATOM     31  C   UNL     1      33.281 -14.877 -24.608  0.00  0.00    -0.000 C 
ATOM     32  C   UNL     1      33.755 -13.460 -22.253  0.00  0.00    +0.010 C 
ATOM     33  C   UNL     1      32.906 -13.537 -24.513  0.00  0.00    +0.010 C 
ATOM     34  C   UNL     1      33.142 -12.829 -23.335  0.00  0.00    +0.068 C 
BRANCH  34  36
ATOM     35  N   UNL     1      32.447 -10.340 -23.159  0.00  0.00    -0.191 NA
ATOM     36  C   UNL     1      32.758 -11.455 -23.237  0.00  0.00    +0.100 C 
ENDBRANCH  34  36
ENDBRANCH  28  29
ENDBRANCH  27  28
ENDBRANCH   9  27
TORSDOF 13
ENDMDL
MODEL 7
REMARK VINA RESULT:     -12.3      1.015      2.864
REMARK  Name = 24755471
REMARK  13 active torsions:
REMARK  status: ('A' for Active; 'I' for Inactive)
REMARK    1  A    between atoms: C_1  and  S_11
REMARK    2  A    between atoms: C_9  and  O_27
REMARK    3  A    between atoms: S_11  and  N_14
REMARK    4  A    between atoms: N_14  and  C_16
REMARK    5  A    between atoms: C_16  and  C_18
REMARK    6  A    between atoms: C_16  and  C_21
REMARK    7  A    between atoms: C_18  and  O_19
REMARK    8  A    between atoms: C_21  and  C_22
REMARK    9  A    between atoms: C_22  and  C_24
REMARK   10  A    between atoms: C_24  and  O_25
REMARK   11  A    between atoms: O_27  and  C_28
REMARK   12  A    between atoms: C_28  and  C_29
REMARK   13  A    between atoms: C_34  and  C_36
REMARK                            x       y       z     vdW  Elec       q    Type
REMARK                         _______ _______ _______ _____ _____    ______ ____
ROOT
ATOM      1  C   UNL     1      34.722 -22.613 -16.356  0.00  0.00    +0.122 C 
ATOM      2  C   UNL     1      33.707 -21.534 -18.286  0.00  0.00    +0.002 C 
ATOM      3  C   UNL     1      33.594 -22.307 -17.119  0.00  0.00    +0.020 C 
ATOM      4  C   UNL     1      34.981 -21.064 -18.685  0.00  0.00    +0.003 C 
ATOM      5  C   UNL     1      35.974 -22.151 -16.748  0.00  0.00    +0.020 C 
ATOM      6  C   UNL     1      36.105 -21.381 -17.905  0.00  0.00    +0.001 C 
ATOM      7  C   UNL     1      35.094 -20.291 -19.852  0.00  0.00    +0.037 C 
ATOM      8  C   UNL     1      32.583 -21.217 -19.067  0.00  0.00    +0.003 C 
ATOM      9  C   UNL     1      33.966 -19.986 -20.615  0.00  0.00    +0.139 C 
ATOM     10  C   UNL     1      32.713 -20.448 -20.224  0.00  0.00    +0.037 C 
ENDROOT
BRANCH   1  11
ATOM     11  S   UNL     1      34.558 -23.587 -14.890  0.00  0.00    +0.061 S 
ATOM     12  O   UNL     1      33.170 -23.538 -14.474  0.00  0.00    -0.153 OA
ATOM     13  O   UNL     1      35.196 -24.862 -15.157  0.00  0.00    -0.153 OA
BRANCH  11  14
ATOM     14  N   UNL     1      35.510 -22.716 -13.783  0.00  0.00    -0.170 NA
ATOM     15  H   UNL     1      34.879 -22.092 -13.280  0.00  0.00    +0.149 HD
BRANCH  14  16
ATOM     16  C   UNL     1      36.302 -23.438 -12.763  0.00  0.00    +0.174 C 
BRANCH  16  18
ATOM     17  O   UNL     1      34.317 -23.335 -11.362  0.00  0.00    -0.249 OA
ATOM     18  C   UNL     1      35.359 -23.897 -11.677  0.00  0.00    +0.330 C 
BRANCH  18  19
ATOM     19  O   UNL     1      35.785 -25.039 -11.079  0.00  0.00    -0.479 OA
ATOM     20  H   UNL     1      35.672 -25.863 -11.510  0.00  0.00    +0.295 HD
ENDBRANCH  18  19
ENDBRANCH  16  18
BRANCH  16  21
ATOM     21  C   UNL     1      37.119 -24.560 -13.416  0.00  0.00    +0.040 C 
BRANCH  21  22
ATOM     22  C   UNL     1      38.485 -24.165 -13.984  0.00  0.00    +0.111 C 
BRANCH  22  24
ATOM     23  O   UNL     1      38.968 -26.501 -14.365  0.00  0.00    -0.250 OA
ATOM     24  C   UNL     1      39.357 -25.341 -14.347  0.00  0.00    +0.314 C 
BRANCH  24  25
ATOM     25  O   UNL     1      40.632 -24.979 -14.639  0.00  0.00    -0.480 OA
ATOM     26  H   UNL     1      41.020 -25.244 -15.450  0.00  0.00    +0.295 HD
ENDBRANCH  24  25
ENDBRANCH  22  24
ENDBRANCH  21  22
ENDBRANCH  16  21
ENDBRANCH  14  16
ENDBRANCH  11  14
ENDBRANCH   1  11
BRANCH   9  27
ATOM     27  O   UNL     1      34.092 -19.234 -21.743  0.00  0.00    -0.471 OA
BRANCH  27  28
ATOM     28  C   UNL     1      35.224 -18.369 -21.824  0.00  0.00    +0.232 C 
BRANCH  28  29
ATOM     29  C   UNL     1      34.753 -16.969 -22.087  0.00  0.00    +0.021 C 
ATOM     30  C   UNL     1      34.600 -16.520 -23.399  0.00  0.00    -0.000 C 
ATOM     31  C   UNL     1      34.470 -16.116 -21.020  0.00  0.00    -0.000 C 
ATOM     32  C   UNL     1      34.163 -15.219 -23.644  0.00  0.00    +0.010 C 
ATOM     33  C   UNL     1      34.034 -14.815 -21.265  0.00  0.00    +0.010 C 
ATOM     34  C   UNL     1      33.881 -14.366 -22.577  0.00  0.00    +0.068 C 
BRANCH  34  36
ATOM     35  N   UNL     1      33.068 -11.949 -23.032  0.00  0.00    -0.191 NA
ATOM     36  C   UNL     1      33.432 -13.032 -22.828  0.00  0.00    +0.100 C 
ENDBRANCH  34  36
ENDBRANCH  28  29
ENDBRANCH  27  28
ENDBRANCH   9  27
TORSDOF 13
ENDMDL
MODEL 8
REMARK VINA RESULT:     -12.1      2.229      3.442
REMARK  Name = 24755471
REMARK  13 active torsions:
REMARK  status: ('A' for Active; 'I' for Inactive)
REMARK    1  A    between atoms: C_1  and  S_11
REMARK    2  A    between atoms: C_9  and  O_27
REMARK    3  A    between atoms: S_11  and  N_14
REMARK    4  A    between atoms: N_14  and  C_16
REMARK    5  A    between atoms: C_16  and  C_18
REMARK    6  A    between atoms: C_16  and  C_21
REMARK    7  A    between atoms: C_18  and  O_19
REMARK    8  A    between atoms: C_21  and  C_22
REMARK    9  A    between atoms: C_22  and  C_24
REMARK   10  A    between atoms: C_24  and  O_25
REMARK   11  A    between atoms: O_27  and  C_28
REMARK   12  A    between atoms: C_28  and  C_29
REMARK   13  A    between atoms: C_34  and  C_36
REMARK                            x       y       z     vdW  Elec       q    Type
REMARK                         _______ _______ _______ _____ _____    ______ ____
ROOT
ATOM      1  C   UNL     1      35.261 -22.384 -16.601  0.00  0.00    +0.122 C 
ATOM      2  C   UNL     1      35.466 -20.986 -18.582  0.00  0.00    +0.002 C 
ATOM      3  C   UNL     1      36.032 -21.581 -17.444  0.00  0.00    +0.020 C 
ATOM      4  C   UNL     1      34.099 -21.208 -18.872  0.00  0.00    +0.003 C 
ATOM      5  C   UNL     1      33.917 -22.602 -16.886  0.00  0.00    +0.020 C 
ATOM      6  C   UNL     1      33.338 -22.019 -18.014  0.00  0.00    +0.001 C 
ATOM      7  C   UNL     1      33.532 -20.612 -20.011  0.00  0.00    +0.037 C 
ATOM      8  C   UNL     1      36.227 -20.174 -19.440  0.00  0.00    +0.003 C 
ATOM      9  C   UNL     1      34.303 -19.810 -20.852  0.00  0.00    +0.139 C 
ATOM     10  C   UNL     1      35.648 -19.591 -20.567  0.00  0.00    +0.037 C 
ENDROOT
BRANCH   1  11
ATOM     11  S   UNL     1      35.994 -23.125 -15.173  0.00  0.00    +0.061 S 
ATOM     12  O   UNL     1      35.945 -24.564 -15.341  0.00  0.00    -0.153 OA
ATOM     13  O   UNL     1      37.263 -22.458 -14.956  0.00  0.00    -0.153 OA
BRANCH  11  14
ATOM     14  N   UNL     1      34.912 -22.662 -13.946  0.00  0.00    -0.170 NA
ATOM     15  H   UNL     1      34.160 -22.143 -14.398  0.00  0.00    +0.149 HD
BRANCH  14  16
ATOM     16  C   UNL     1      34.272 -23.693 -13.099  0.00  0.00    +0.174 C 
BRANCH  16  18
ATOM     17  O   UNL     1      35.690 -22.779 -11.347  0.00  0.00    -0.249 OA
ATOM     18  C   UNL     1      34.929 -23.655 -11.740  0.00  0.00    +0.330 C 
BRANCH  18  19
ATOM     19  O   UNL     1      34.565 -24.709 -10.966  0.00  0.00    -0.479 OA
ATOM     20  H   UNL     1      35.014 -24.878 -10.162  0.00  0.00    +0.295 HD
ENDBRANCH  18  19
ENDBRANCH  16  18
BRANCH  16  21
ATOM     21  C   UNL     1      32.751 -23.500 -13.079  0.00  0.00    +0.040 C 
BRANCH  21  22
ATOM     22  C   UNL     1      31.908 -24.685 -13.558  0.00  0.00    +0.111 C 
BRANCH  22  24
ATOM     23  O   UNL     1      29.555 -25.096 -13.915  0.00  0.00    -0.250 OA
ATOM     24  C   UNL     1      30.435 -24.543 -13.269  0.00  0.00    +0.314 C 
BRANCH  24  25
ATOM     25  O   UNL     1      30.183 -23.718 -12.221  0.00  0.00    -0.480 OA
ATOM     26  H   UNL     1      30.691 -23.789 -11.437  0.00  0.00    +0.295 HD
ENDBRANCH  24  25
ENDBRANCH  22  24
ENDBRANCH  21  22
ENDBRANCH  16  21
ENDBRANCH  14  16
ENDBRANCH  11  14
ENDBRANCH   1  11
BRANCH   9  27
ATOM     27  O   UNL     1      33.740 -19.241 -21.953  0.00  0.00    -0.471 OA
BRANCH  27  28
ATOM     28  C   UNL     1      34.626 -18.674 -22.916  0.00  0.00    +0.232 C 
BRANCH  28  29
ATOM     29  C   UNL     1      34.337 -17.207 -23.045  0.00  0.00    +0.021 C 
ATOM     30  C   UNL     1      34.524 -16.361 -21.951  0.00  0.00    -0.000 C 
ATOM     31  C   UNL     1      33.879 -16.690 -24.256  0.00  0.00    -0.000 C 
ATOM     32  C   UNL     1      34.254 -14.998 -22.071  0.00  0.00    +0.010 C 
ATOM     33  C   UNL     1      33.609 -15.327 -24.376  0.00  0.00    +0.010 C 
ATOM     34  C   UNL     1      33.796 -14.481 -23.282  0.00  0.00    +0.068 C 
BRANCH  34  36
ATOM     35  N   UNL     1      33.297 -11.949 -23.503  0.00  0.00    -0.191 NA
ATOM     36  C   UNL     1      33.520 -13.084 -23.404  0.00  0.00    +0.100 C 
ENDBRANCH  34  36
ENDBRANCH  28  29
ENDBRANCH  27  28
ENDBRANCH   9  27
TORSDOF 13
ENDMDL
MODEL 9
REMARK VINA RESULT:     -12.0      2.450      3.770
REMARK  Name = 24755471
REMARK  13 active torsions:
REMARK  status: ('A' for Active; 'I' for Inactive)
REMARK    1  A    between atoms: C_1  and  S_11
REMARK    2  A    between atoms: C_9  and  O_27
REMARK    3  A    between atoms: S_11  and  N_14
REMARK    4  A    between atoms: N_14  and  C_16
REMARK    5  A    between atoms: C_16  and  C_18
REMARK    6  A    between atoms: C_16  and  C_21
REMARK    7  A    between atoms: C_18  and  O_19
REMARK    8  A    between atoms: C_21  and  C_22
REMARK    9  A    between atoms: C_22  and  C_24
REMARK   10  A    between atoms: C_24  and  O_25
REMARK   11  A    between atoms: O_27  and  C_28
REMARK   12  A    between atoms: C_28  and  C_29
REMARK   13  A    between atoms: C_34  and  C_36
REMARK                            x       y       z     vdW  Elec       q    Type
REMARK                         _______ _______ _______ _____ _____    ______ ____
ROOT
ATOM      1  C   UNL     1      33.263 -21.663 -18.651  0.00  0.00    +0.122 C 
ATOM      2  C   UNL     1      34.805 -20.212 -19.849  0.00  0.00    +0.002 C 
ATOM      3  C   UNL     1      34.563 -21.227 -18.911  0.00  0.00    +0.020 C 
ATOM      4  C   UNL     1      33.713 -19.629 -20.535  0.00  0.00    +0.003 C 
ATOM      5  C   UNL     1      32.189 -21.089 -19.325  0.00  0.00    +0.020 C 
ATOM      6  C   UNL     1      32.411 -20.078 -20.261  0.00  0.00    +0.001 C 
ATOM      7  C   UNL     1      33.955 -18.613 -21.474  0.00  0.00    +0.037 C 
ATOM      8  C   UNL     1      36.108 -19.761 -20.123  0.00  0.00    +0.003 C 
ATOM      9  C   UNL     1      35.255 -18.178 -21.734  0.00  0.00    +0.139 C 
ATOM     10  C   UNL     1      36.329 -18.751 -21.059  0.00  0.00    +0.037 C 
ENDROOT
BRANCH   1  11
ATOM     11  S   UNL     1      32.980 -22.943 -17.465  0.00  0.00    +0.061 S 
ATOM     12  O   UNL     1      31.754 -22.632 -16.756  0.00  0.00    -0.153 OA
ATOM     13  O   UNL     1      33.120 -24.205 -18.165  0.00  0.00    -0.153 OA
BRANCH  11  14
ATOM     14  N   UNL     1      34.304 -22.745 -16.416  0.00  0.00    -0.170 NA
ATOM     15  H   UNL     1      34.257 -21.792 -16.059  0.00  0.00    +0.149 HD
BRANCH  14  16
ATOM     16  C   UNL     1      34.456 -23.635 -15.244  0.00  0.00    +0.174 C 
BRANCH  16  18
ATOM     17  O   UNL     1      36.525 -22.836 -14.246  0.00  0.00    -0.249 OA
ATOM     18  C   UNL     1      35.922 -23.690 -14.885  0.00  0.00    +0.330 C 
BRANCH  18  19
ATOM     19  O   UNL     1      36.518 -24.823 -15.337  0.00  0.00    -0.479 OA
ATOM     20  H   UNL     1      36.236 -25.211 -16.142  0.00  0.00    +0.295 HD
ENDBRANCH  18  19
ENDBRANCH  16  18
BRANCH  16  21
ATOM     21  C   UNL     1      33.536 -23.181 -14.105  0.00  0.00    +0.040 C 
BRANCH  21  22
ATOM     22  C   UNL     1      32.432 -24.157 -13.690  0.00  0.00    +0.111 C 
BRANCH  22  24
ATOM     23  O   UNL     1      30.372 -23.903 -12.454  0.00  0.00    -0.250 OA
ATOM     24  C   UNL     1      31.133 -23.488 -13.319  0.00  0.00    +0.314 C 
BRANCH  24  25
ATOM     25  O   UNL     1      30.883 -22.379 -14.060  0.00  0.00    -0.480 OA
ATOM     26  H   UNL     1      30.492 -22.461 -14.908  0.00  0.00    +0.295 HD
ENDBRANCH  24  25
ENDBRANCH  22  24
ENDBRANCH  21  22
ENDBRANCH  16  21
ENDBRANCH  14  16
ENDBRANCH  11  14
ENDBRANCH   1  11
BRANCH   9  27
ATOM     27  O   UNL     1      35.473 -17.194 -22.648  0.00  0.00    -0.471 OA
BRANCH  27  28
ATOM     28  C   UNL     1      34.448 -16.966 -23.614  0.00  0.00    +0.232 C 
BRANCH  28  29
ATOM     29  C   UNL     1      33.994 -15.539 -23.519  0.00  0.00    +0.021 C 
ATOM     30  C   UNL     1      33.334 -14.945 -24.594  0.00  0.00    -0.000 C 
ATOM     31  C   UNL     1      34.234 -14.806 -22.356  0.00  0.00    -0.000 C 
ATOM     32  C   UNL     1      32.912 -13.618 -24.507  0.00  0.00    +0.010 C 
ATOM     33  C   UNL     1      33.812 -13.480 -22.269  0.00  0.00    +0.010 C 
ATOM     34  C   UNL     1      33.152 -12.886 -23.344  0.00  0.00    +0.068 C 
BRANCH  34  36
ATOM     35  N   UNL     1      32.369 -10.422 -23.182  0.00  0.00    -0.191 NA
ATOM     36  C   UNL     1      32.719 -11.526 -23.254  0.00  0.00    +0.100 C 
ENDBRANCH  34  36
ENDBRANCH  28  29
ENDBRANCH  27  28
ENDBRANCH   9  27
TORSDOF 13
ENDMDL
