MODEL 1
REMARK VINA RESULT:     -14.2      0.000      0.000
REMARK  Name = 6105620
REMARK  4 active torsions:
REMARK  status: ('A' for Active; 'I' for Inactive)
REMARK    1  A    between atoms: N_2  and  C_7
REMARK    2  A    between atoms: N_3  and  C_21
REMARK    3  A    between atoms: C_9  and  C_29
REMARK    4  A    between atoms: C_30  and  C_31
REMARK                            x       y       z     vdW  Elec       q    Type
REMARK                         _______ _______ _______ _____ _____    ______ ____
ROOT
ATOM      1  N   UNL     1      35.258 -22.146 -17.026  0.00  0.00    -0.086 NA
ATOM      2  N   UNL     1      33.839 -22.212 -17.363  0.00  0.00    -0.132 N 
ATOM      3  N   UNL     1      35.848 -21.298 -18.006  0.00  0.00    -0.240 N 
ATOM      4  N   UNL     1      33.632 -21.513 -18.545  0.00  0.00    -0.146 NA
ATOM      5  C   UNL     1      34.814 -21.012 -18.870  0.00  0.00    +0.162 C 
ATOM      6  H   UNL     1      36.781 -20.987 -18.055  0.00  0.00    +0.170 HD
ENDROOT
BRANCH   2  11
ATOM      7  O   UNL     1      33.068 -24.228 -12.737  0.00  0.00    -0.220 OA
ATOM      8  O   UNL     1      28.269 -23.814 -14.690  0.00  0.00    -0.220 OA
ATOM      9  N   UNL     1      30.817 -24.519 -12.522  0.00  0.00    -0.062 NA
ATOM     10  N   UNL     1      29.664 -24.420 -12.990  0.00  0.00    -0.062 NA
ATOM     11  C   UNL     1      32.730 -22.630 -16.598  0.00  0.00    +0.089 C 
ATOM     12  C   UNL     1      32.905 -23.160 -15.307  0.00  0.00    +0.030 C 
ATOM     13  C   UNL     1      31.424 -22.526 -17.111  0.00  0.00    +0.019 C 
ATOM     14  C   UNL     1      31.799 -23.571 -14.557  0.00  0.00    +0.097 C 
ATOM     15  C   UNL     1      30.523 -23.462 -15.077  0.00  0.00    +0.096 C 
ATOM     16  C   UNL     1      30.324 -22.938 -16.357  0.00  0.00    +0.014 C 
ATOM     17  C   UNL     1      31.939 -24.129 -13.208  0.00  0.00    +0.174 C 
ATOM     18  C   UNL     1      29.406 -23.910 -14.239  0.00  0.00    +0.174 C 
ENDBRANCH   2  11
BRANCH   1  21
ATOM     19  S   UNL     1      37.571 -22.340 -15.694  0.00  0.00    -0.074 S 
ATOM     20  N   UNL     1      35.475 -23.898 -15.473  0.00  0.00    -0.310 N 
ATOM     21  C   UNL     1      35.934 -22.824 -16.125  0.00  0.00    +0.222 C 
ATOM     22  C   UNL     1      36.382 -24.402 -14.598  0.00  0.00    +0.052 C 
ATOM     23  C   UNL     1      37.595 -23.705 -14.556  0.00  0.00    +0.041 C 
ATOM     24  C   UNL     1      36.178 -25.510 -13.789  0.00  0.00    +0.015 C 
ATOM     25  C   UNL     1      38.622 -24.095 -13.713  0.00  0.00    +0.007 C 
ATOM     26  C   UNL     1      37.206 -25.913 -12.934  0.00  0.00    +0.001 C 
ATOM     27  C   UNL     1      38.420 -25.211 -12.897  0.00  0.00    +0.001 C 
ATOM     28  H   UNL     1      34.578 -24.281 -15.613  0.00  0.00    +0.149 HD
ENDBRANCH   1  21
BRANCH   5  29
ATOM     29  C   UNL     1      34.979 -20.207 -20.089  0.00  0.00    +0.037 C 
ATOM     30  C   UNL     1      34.051 -19.356 -20.494  0.00  0.00    +0.003 C 
BRANCH  30  31
ATOM     31  C   UNL     1      34.167 -18.536 -21.713  0.00  0.00    +0.000 C 
ATOM     32  C   UNL     1      34.755 -17.283 -21.634  0.00  0.00    +0.000 C 
ATOM     33  C   UNL     1      33.686 -19.032 -22.913  0.00  0.00    +0.000 C 
ATOM     34  C   UNL     1      34.865 -16.506 -22.788  0.00  0.00    +0.000 C 
ATOM     35  C   UNL     1      33.796 -18.256 -24.067  0.00  0.00    +0.000 C 
ATOM     36  C   UNL     1      34.386 -16.993 -24.005  0.00  0.00    +0.000 C 
ENDBRANCH  30  31
ENDBRANCH   5  29
TORSDOF 4
ENDMDL
MODEL 2
REMARK VINA RESULT:     -14.0      2.362      5.439
REMARK  Name = 6105620
REMARK  4 active torsions:
REMARK  status: ('A' for Active; 'I' for Inactive)
REMARK    1  A    between atoms: N_2  and  C_7
REMARK    2  A    between atoms: N_3  and  C_21
REMARK    3  A    between atoms: C_9  and  C_29
REMARK    4  A    between atoms: C_30  and  C_31
REMARK                            x       y       z     vdW  Elec       q    Type
REMARK                         _______ _______ _______ _____ _____    ______ ____
ROOT
ATOM      1  N   UNL     1      33.278 -22.453 -17.114  0.00  0.00    -0.086 NA
ATOM      2  N   UNL     1      34.671 -22.173 -16.781  0.00  0.00    -0.132 N 
ATOM      3  N   UNL     1      33.082 -21.930 -18.423  0.00  0.00    -0.240 N 
ATOM      4  N   UNL     1      35.232 -21.432 -17.813  0.00  0.00    -0.146 NA
ATOM      5  C   UNL     1      34.279 -21.320 -18.725  0.00  0.00    +0.162 C 
ATOM      6  H   UNL     1      32.274 -21.989 -18.984  0.00  0.00    +0.170 HD
ENDROOT
BRANCH   2  11
ATOM      7  O   UNL     1      36.362 -26.804 -15.459  0.00  0.00    -0.220 OA
ATOM      8  O   UNL     1      38.545 -23.669 -11.934  0.00  0.00    -0.220 OA
ATOM      9  N   UNL     1      37.689 -26.513 -13.627  0.00  0.00    -0.062 NA
ATOM     10  N   UNL     1      38.213 -25.761 -12.781  0.00  0.00    -0.062 NA
ATOM     11  C   UNL     1      35.505 -22.713 -15.780  0.00  0.00    +0.089 C 
ATOM     12  C   UNL     1      35.757 -24.095 -15.721  0.00  0.00    +0.030 C 
ATOM     13  C   UNL     1      36.104 -21.880 -14.818  0.00  0.00    +0.019 C 
ATOM     14  C   UNL     1      36.585 -24.621 -14.725  0.00  0.00    +0.097 C 
ATOM     15  C   UNL     1      37.164 -23.788 -13.788  0.00  0.00    +0.096 C 
ATOM     16  C   UNL     1      36.930 -22.410 -13.825  0.00  0.00    +0.014 C 
ATOM     17  C   UNL     1      36.871 -26.056 -14.630  0.00  0.00    +0.174 C 
ATOM     18  C   UNL     1      38.023 -24.401 -12.769  0.00  0.00    +0.174 C 
ENDBRANCH   2  11
BRANCH   1  21
ATOM     19  S   UNL     1      32.659 -23.412 -14.693  0.00  0.00    -0.074 S 
ATOM     20  N   UNL     1      31.052 -23.107 -16.741  0.00  0.00    -0.310 N 
ATOM     21  C   UNL     1      32.320 -22.936 -16.354  0.00  0.00    +0.222 C 
ATOM     22  C   UNL     1      30.272 -23.622 -15.755  0.00  0.00    +0.052 C 
ATOM     23  C   UNL     1      30.946 -23.864 -14.552  0.00  0.00    +0.041 C 
ATOM     24  C   UNL     1      28.919 -23.902 -15.874  0.00  0.00    +0.015 C 
ATOM     25  C   UNL     1      30.289 -24.388 -13.451  0.00  0.00    +0.007 C 
ATOM     26  C   UNL     1      28.246 -24.431 -14.770  0.00  0.00    +0.001 C 
ATOM     27  C   UNL     1      28.927 -24.672 -13.568  0.00  0.00    +0.001 C 
ATOM     28  H   UNL     1      30.719 -22.884 -17.641  0.00  0.00    +0.149 HD
ENDBRANCH   1  21
BRANCH   5  29
ATOM     29  C   UNL     1      34.516 -20.578 -19.972  0.00  0.00    +0.037 C 
ATOM     30  C   UNL     1      33.912 -19.429 -20.226  0.00  0.00    +0.003 C 
BRANCH  30  31
ATOM     31  C   UNL     1      34.109 -18.654 -21.463  0.00  0.00    +0.000 C 
ATOM     32  C   UNL     1      34.783 -17.444 -21.407  0.00  0.00    +0.000 C 
ATOM     33  C   UNL     1      33.617 -19.150 -22.660  0.00  0.00    +0.000 C 
ATOM     34  C   UNL     1      34.970 -16.711 -22.579  0.00  0.00    +0.000 C 
ATOM     35  C   UNL     1      33.804 -18.417 -23.832  0.00  0.00    +0.000 C 
ATOM     36  C   UNL     1      34.480 -17.198 -23.792  0.00  0.00    +0.000 C 
ENDBRANCH  30  31
ENDBRANCH   5  29
TORSDOF 4
ENDMDL
MODEL 3
REMARK VINA RESULT:     -13.8      1.353      2.066
REMARK  Name = 6105620
REMARK  4 active torsions:
REMARK  status: ('A' for Active; 'I' for Inactive)
REMARK    1  A    between atoms: N_2  and  C_7
REMARK    2  A    between atoms: N_3  and  C_21
REMARK    3  A    between atoms: C_9  and  C_29
REMARK    4  A    between atoms: C_30  and  C_31
REMARK                            x       y       z     vdW  Elec       q    Type
REMARK                         _______ _______ _______ _____ _____    ______ ____
ROOT
ATOM      1  N   UNL     1      35.350 -22.243 -16.504  0.00  0.00    -0.086 NA
ATOM      2  N   UNL     1      33.959 -22.456 -16.890  0.00  0.00    -0.132 N 
ATOM      3  N   UNL     1      35.906 -21.405 -17.513  0.00  0.00    -0.240 N 
ATOM      4  N   UNL     1      33.743 -21.850 -18.121  0.00  0.00    -0.146 NA
ATOM      5  C   UNL     1      34.889 -21.265 -18.432  0.00  0.00    +0.162 C 
ATOM      6  H   UNL     1      36.810 -21.016 -17.546  0.00  0.00    +0.170 HD
ENDROOT
BRANCH   2  11
ATOM      7  O   UNL     1      28.879 -21.992 -17.077  0.00  0.00    -0.220 OA
ATOM      8  O   UNL     1      29.662 -25.042 -12.941  0.00  0.00    -0.220 OA
ATOM      9  N   UNL     1      28.051 -23.199 -15.328  0.00  0.00    -0.062 NA
ATOM     10  N   UNL     1      28.239 -23.931 -14.335  0.00  0.00    -0.062 NA
ATOM     11  C   UNL     1      32.858 -22.925 -16.144  0.00  0.00    +0.089 C 
ATOM     12  C   UNL     1      31.544 -22.579 -16.504  0.00  0.00    +0.030 C 
ATOM     13  C   UNL     1      33.051 -23.751 -15.021  0.00  0.00    +0.019 C 
ATOM     14  C   UNL     1      30.459 -23.049 -15.758  0.00  0.00    +0.097 C 
ATOM     15  C   UNL     1      30.667 -23.859 -14.658  0.00  0.00    +0.096 C 
ATOM     16  C   UNL     1      31.965 -24.218 -14.280  0.00  0.00    +0.014 C 
ATOM     17  C   UNL     1      29.075 -22.710 -16.101  0.00  0.00    +0.174 C 
ATOM     18  C   UNL     1      29.488 -24.319 -13.918  0.00  0.00    +0.174 C 
ENDBRANCH   2  11
BRANCH   1  21
ATOM     19  S   UNL     1      35.686 -22.423 -13.856  0.00  0.00    -0.074 S 
ATOM     20  N   UNL     1      37.040 -23.675 -15.718  0.00  0.00    -0.310 N 
ATOM     21  C   UNL     1      36.043 -22.802 -15.538  0.00  0.00    +0.222 C 
ATOM     22  C   UNL     1      37.582 -24.095 -14.546  0.00  0.00    +0.052 C 
ATOM     23  C   UNL     1      36.994 -23.539 -13.405  0.00  0.00    +0.041 C 
ATOM     24  C   UNL     1      38.628 -24.998 -14.431  0.00  0.00    +0.015 C 
ATOM     25  C   UNL     1      37.435 -23.868 -12.134  0.00  0.00    +0.007 C 
ATOM     26  C   UNL     1      39.081 -25.338 -13.154  0.00  0.00    +0.001 C 
ATOM     27  C   UNL     1      38.489 -24.776 -12.014  0.00  0.00    +0.001 C 
ATOM     28  H   UNL     1      37.348 -23.979 -16.603  0.00  0.00    +0.149 HD
ENDBRANCH   1  21
BRANCH   5  29
ATOM     29  C   UNL     1      35.037 -20.523 -19.693  0.00  0.00    +0.037 C 
ATOM     30  C   UNL     1      34.185 -19.576 -20.049  0.00  0.00    +0.003 C 
BRANCH  30  31
ATOM     31  C   UNL     1      34.285 -18.813 -21.305  0.00  0.00    +0.000 C 
ATOM     32  C   UNL     1      34.914 -17.578 -21.300  0.00  0.00    +0.000 C 
ATOM     33  C   UNL     1      33.749 -19.344 -22.467  0.00  0.00    +0.000 C 
ATOM     34  C   UNL     1      35.009 -16.855 -22.490  0.00  0.00    +0.000 C 
ATOM     35  C   UNL     1      33.845 -18.622 -23.656  0.00  0.00    +0.000 C 
ATOM     36  C   UNL     1      34.475 -17.378 -23.668  0.00  0.00    +0.000 C 
ENDBRANCH  30  31
ENDBRANCH   5  29
TORSDOF 4
ENDMDL
MODEL 4
REMARK VINA RESULT:     -12.8      2.556      5.569
REMARK  Name = 6105620
REMARK  4 active torsions:
REMARK  status: ('A' for Active; 'I' for Inactive)
REMARK    1  A    between atoms: N_2  and  C_7
REMARK    2  A    between atoms: N_3  and  C_21
REMARK    3  A    between atoms: C_9  and  C_29
REMARK    4  A    between atoms: C_30  and  C_31
REMARK                            x       y       z     vdW  Elec       q    Type
REMARK                         _______ _______ _______ _____ _____    ______ ____
ROOT
ATOM      1  N   UNL     1      33.246 -22.753 -16.707  0.00  0.00    -0.086 NA
ATOM      2  N   UNL     1      34.629 -22.647 -16.253  0.00  0.00    -0.132 N 
ATOM      3  N   UNL     1      33.209 -22.118 -17.981  0.00  0.00    -0.240 N 
ATOM      4  N   UNL     1      35.342 -21.897 -17.179  0.00  0.00    -0.146 NA
ATOM      5  C   UNL     1      34.482 -21.619 -18.146  0.00  0.00    +0.162 C 
ATOM      6  H   UNL     1      32.448 -22.050 -18.602  0.00  0.00    +0.170 HD
ENDROOT
BRANCH   2  11
ATOM      7  O   UNL     1      37.173 -21.444 -11.994  0.00  0.00    -0.220 OA
ATOM      8  O   UNL     1      37.510 -26.628 -12.179  0.00  0.00    -0.220 OA
ATOM      9  N   UNL     1      37.909 -23.408 -11.099  0.00  0.00    -0.062 NA
ATOM     10  N   UNL     1      37.990 -24.652 -11.144  0.00  0.00    -0.062 NA
ATOM     11  C   UNL     1      35.320 -23.344 -15.240  0.00  0.00    +0.089 C 
ATOM     12  C   UNL     1      35.924 -22.652 -14.174  0.00  0.00    +0.030 C 
ATOM     13  C   UNL     1      35.422 -24.746 -15.274  0.00  0.00    +0.019 C 
ATOM     14  C   UNL     1      36.607 -23.352 -13.175  0.00  0.00    +0.097 C 
ATOM     15  C   UNL     1      36.697 -24.729 -13.225  0.00  0.00    +0.096 C 
ATOM     16  C   UNL     1      36.106 -25.439 -14.274  0.00  0.00    +0.014 C 
ATOM     17  C   UNL     1      37.249 -22.668 -12.048  0.00  0.00    +0.174 C 
ATOM     18  C   UNL     1      37.427 -25.403 -12.146  0.00  0.00    +0.174 C 
ENDBRANCH   2  11
BRANCH   1  21
ATOM     19  S   UNL     1      32.328 -23.745 -14.397  0.00  0.00    -0.074 S 
ATOM     20  N   UNL     1      30.950 -23.237 -16.568  0.00  0.00    -0.310 N 
ATOM     21  C   UNL     1      32.186 -23.183 -16.060  0.00  0.00    +0.222 C 
ATOM     22  C   UNL     1      30.044 -23.723 -15.681  0.00  0.00    +0.052 C 
ATOM     23  C   UNL     1      30.580 -24.062 -14.433  0.00  0.00    +0.041 C 
ATOM     24  C   UNL     1      28.690 -23.890 -15.935  0.00  0.00    +0.015 C 
ATOM     25  C   UNL     1      29.784 -24.571 -13.421  0.00  0.00    +0.007 C 
ATOM     26  C   UNL     1      27.877 -24.402 -14.922  0.00  0.00    +0.001 C 
ATOM     27  C   UNL     1      28.420 -24.741 -13.674  0.00  0.00    +0.001 C 
ATOM     28  H   UNL     1      30.722 -22.957 -17.484  0.00  0.00    +0.149 HD
ENDBRANCH   1  21
BRANCH   5  29
ATOM     29  C   UNL     1      34.892 -20.818 -19.309  0.00  0.00    +0.037 C 
ATOM     30  C   UNL     1      34.036 -20.055 -19.967  0.00  0.00    +0.003 C 
BRANCH  30  31
ATOM     31  C   UNL     1      34.397 -19.244 -21.142  0.00  0.00    +0.000 C 
ATOM     32  C   UNL     1      33.558 -19.238 -22.247  0.00  0.00    +0.000 C 
ATOM     33  C   UNL     1      35.567 -18.503 -21.123  0.00  0.00    +0.000 C 
ATOM     34  C   UNL     1      33.900 -18.469 -23.360  0.00  0.00    +0.000 C 
ATOM     35  C   UNL     1      35.909 -17.734 -22.236  0.00  0.00    +0.000 C 
ATOM     36  C   UNL     1      35.075 -17.717 -23.354  0.00  0.00    +0.000 C 
ENDBRANCH  30  31
ENDBRANCH   5  29
TORSDOF 4
ENDMDL
