MODEL 1
REMARK VINA RESULT:     -12.0      0.000      0.000
REMARK  Name = 11749858
REMARK  9 active torsions:
REMARK  status: ('A' for Active; 'I' for Inactive)
REMARK    1  A    between atoms: N_2  and  C_19
REMARK    2  A    between atoms: C_3  and  C_8
REMARK    3  A    between atoms: C_6  and  C_14
REMARK    4  A    between atoms: C_14  and  N_15
REMARK    5  A    between atoms: C_19  and  C_20
REMARK    6  A    between atoms: C_20  and  O_21
REMARK    7  A    between atoms: O_21  and  C_22
REMARK    8  A    between atoms: C_25  and  C_30
REMARK    9  A    between atoms: N_29  and  O_32
REMARK                            x       y       z     vdW  Elec       q    Type
REMARK                         _______ _______ _______ _____ _____    ______ ____
ROOT
ATOM      1  O   UNL     1      33.450 -23.216 -19.500  0.00  0.00    -0.267 OA
ATOM      2  N   UNL     1      34.213 -21.223 -18.653  0.00  0.00    -0.295 N 
ATOM      3  C   UNL     1      33.444 -22.402 -18.542  0.00  0.00    +0.280 C 
ATOM      4  H   UNL     1      34.203 -20.590 -17.899  0.00  0.00    +0.150 HD
ENDROOT
BRANCH   3   8
ATOM      5  O   UNL     1      31.395 -22.342 -17.332  0.00  0.00    -0.449 OA
ATOM      6  C   UNL     1      33.135 -23.040 -16.087  0.00  0.00    -0.001 A 
ATOM      7  C   UNL     1      31.977 -23.044 -15.265  0.00  0.00    +0.032 A 
ATOM      8  C   UNL     1      32.728 -22.606 -17.328  0.00  0.00    +0.192 A 
ATOM      9  C   UNL     1      30.936 -22.608 -16.076  0.00  0.00    +0.145 A 
ATOM     10  C   UNL     1      31.697 -23.369 -13.927  0.00  0.00    +0.003 C 
ATOM     11  C   UNL     1      29.617 -22.468 -15.647  0.00  0.00    +0.037 C 
ATOM     12  C   UNL     1      30.379 -23.239 -13.466  0.00  0.00    +0.000 C 
ATOM     13  C   UNL     1      29.360 -22.796 -14.313  0.00  0.00    +0.003 C 
BRANCH   6  14
ATOM     14  C   UNL     1      34.504 -23.423 -15.690  0.00  0.00    -0.047 C 
BRANCH  14  15
ATOM     15  N   UNL     1      35.143 -22.318 -14.970  0.00  0.00    +0.387 N 
ATOM     16  C   UNL     1      36.269 -21.794 -15.740  0.00  0.00    -0.100 C 
ATOM     17  C   UNL     1      35.585 -22.760 -13.650  0.00  0.00    -0.100 C 
ATOM     18  H   UNL     1      34.460 -21.570 -14.848  0.00  0.00    -0.079 HD
ENDBRANCH  14  15
ENDBRANCH   6  14
ENDBRANCH   3   8
BRANCH   2  19
ATOM     19  C   UNL     1      35.016 -20.891 -19.809  0.00  0.00    +0.137 C 
BRANCH  19  20
ATOM     20  C   UNL     1      34.373 -19.794 -20.638  0.00  0.00    +0.227 C 
BRANCH  20  21
ATOM     21  O   UNL     1      35.281 -18.708 -20.771  0.00  0.00    -0.474 OA
BRANCH  21  22
ATOM     22  C   UNL     1      34.855 -17.633 -21.505  0.00  0.00    +0.139 C 
ATOM     23  C   UNL     1      34.690 -17.750 -22.885  0.00  0.00    +0.037 C 
ATOM     24  C   UNL     1      34.590 -16.418 -20.872  0.00  0.00    +0.037 C 
ATOM     25  C   UNL     1      33.993 -15.440 -22.999  0.00  0.00    +0.056 C 
ATOM     26  C   UNL     1      34.258 -16.654 -23.631  0.00  0.00    +0.008 C 
ATOM     27  C   UNL     1      34.159 -15.322 -21.619  0.00  0.00    +0.008 C 
BRANCH  25  30
ATOM     28  O   UNL     1      33.739 -13.136 -23.375  0.00  0.00    -0.268 OA
ATOM     29  N   UNL     1      32.882 -14.564 -24.969  0.00  0.00    -0.193 N 
ATOM     30  C   UNL     1      33.543 -14.298 -23.778  0.00  0.00    +0.268 C 
ATOM     31  H   UNL     1      32.730 -15.485 -25.280  0.00  0.00    +0.183 HD
BRANCH  29  32
ATOM     32  O   UNL     1      32.438 -13.457 -25.707  0.00  0.00    -0.295 OA
ATOM     33  H   UNL     1      32.624 -13.600 -26.649  0.00  0.00    +0.241 HD
ENDBRANCH  29  32
ENDBRANCH  25  30
ENDBRANCH  21  22
ENDBRANCH  20  21
ENDBRANCH  19  20
ENDBRANCH   2  19
TORSDOF 9
ENDMDL
MODEL 2
REMARK VINA RESULT:     -11.3      2.815     10.427
REMARK  Name = 11749858
REMARK  9 active torsions:
REMARK  status: ('A' for Active; 'I' for Inactive)
REMARK    1  A    between atoms: N_2  and  C_19
REMARK    2  A    between atoms: C_3  and  C_8
REMARK    3  A    between atoms: C_6  and  C_14
REMARK    4  A    between atoms: C_14  and  N_15
REMARK    5  A    between atoms: C_19  and  C_20
REMARK    6  A    between atoms: C_20  and  O_21
REMARK    7  A    between atoms: O_21  and  C_22
REMARK    8  A    between atoms: C_25  and  C_30
REMARK    9  A    between atoms: N_29  and  O_32
REMARK                            x       y       z     vdW  Elec       q    Type
REMARK                         _______ _______ _______ _____ _____    ______ ____
ROOT
ATOM      1  O   UNL     1      33.877 -15.224 -19.541  0.00  0.00    -0.267 OA
ATOM      2  N   UNL     1      34.421 -15.639 -21.733  0.00  0.00    -0.295 N 
ATOM      3  C   UNL     1      33.819 -14.839 -20.736  0.00  0.00    +0.280 C 
ATOM      4  H   UNL     1      34.373 -15.331 -22.666  0.00  0.00    +0.150 HD
ENDROOT
BRANCH   3   8
ATOM      5  O   UNL     1      32.492 -12.930 -20.228  0.00  0.00    -0.449 OA
ATOM      6  C   UNL     1      33.189 -12.976 -22.367  0.00  0.00    -0.001 A 
ATOM      7  C   UNL     1      32.412 -11.802 -22.185  0.00  0.00    +0.032 A 
ATOM      8  C   UNL     1      33.206 -13.623 -21.153  0.00  0.00    +0.192 A 
ATOM      9  C   UNL     1      32.007 -11.820 -20.854  0.00  0.00    +0.145 A 
ATOM     10  C   UNL     1      32.008 -10.728 -22.995  0.00  0.00    +0.003 C 
ATOM     11  C   UNL     1      31.218 -10.834 -20.264  0.00  0.00    +0.037 C 
ATOM     12  C   UNL     1      31.214  -9.721 -22.430  0.00  0.00    +0.000 C 
ATOM     13  C   UNL     1      30.827  -9.775 -21.089  0.00  0.00    +0.003 C 
BRANCH   6  14
ATOM     14  C   UNL     1      33.848 -13.416 -23.613  0.00  0.00    -0.047 C 
BRANCH  14  15
ATOM     15  N   UNL     1      32.864 -14.029 -24.508  0.00  0.00    +0.387 N 
ATOM     16  C   UNL     1      33.283 -15.380 -24.876  0.00  0.00    -0.100 C 
ATOM     17  C   UNL     1      32.680 -13.206 -25.702  0.00  0.00    -0.100 C 
ATOM     18  H   UNL     1      31.971 -14.092 -24.019  0.00  0.00    -0.079 HD
ENDBRANCH  14  15
ENDBRANCH   6  14
ENDBRANCH   3   8
BRANCH   2  19
ATOM     19  C   UNL     1      35.107 -16.883 -21.461  0.00  0.00    +0.137 C 
BRANCH  19  20
ATOM     20  C   UNL     1      34.379 -18.066 -22.072  0.00  0.00    +0.227 C 
BRANCH  20  21
ATOM     21  O   UNL     1      35.049 -19.268 -21.718  0.00  0.00    -0.474 OA
BRANCH  21  22
ATOM     22  C   UNL     1      34.495 -20.011 -20.709  0.00  0.00    +0.139 C 
ATOM     23  C   UNL     1      33.116 -19.985 -20.500  0.00  0.00    +0.037 C 
ATOM     24  C   UNL     1      35.310 -20.790 -19.888  0.00  0.00    +0.037 C 
ATOM     25  C   UNL     1      33.367 -21.520 -18.650  0.00  0.00    +0.056 C 
ATOM     26  C   UNL     1      32.553 -20.740 -19.471  0.00  0.00    +0.008 C 
ATOM     27  C   UNL     1      34.747 -21.544 -18.859  0.00  0.00    +0.008 C 
BRANCH  25  30
ATOM     28  O   UNL     1      33.482 -23.072 -16.893  0.00  0.00    -0.268 OA
ATOM     29  N   UNL     1      31.414 -22.173 -17.370  0.00  0.00    -0.193 N 
ATOM     30  C   UNL     1      32.780 -22.306 -17.578  0.00  0.00    +0.268 C 
ATOM     31  H   UNL     1      30.866 -21.566 -17.918  0.00  0.00    +0.183 HD
BRANCH  29  32
ATOM     32  O   UNL     1      30.852 -22.946 -16.344  0.00  0.00    -0.295 OA
ATOM     33  H   UNL     1      29.889 -22.984 -16.458  0.00  0.00    +0.241 HD
ENDBRANCH  29  32
ENDBRANCH  25  30
ENDBRANCH  21  22
ENDBRANCH  20  21
ENDBRANCH  19  20
ENDBRANCH   2  19
TORSDOF 9
ENDMDL
MODEL 3
REMARK VINA RESULT:     -11.3      1.864      3.644
REMARK  Name = 11749858
REMARK  9 active torsions:
REMARK  status: ('A' for Active; 'I' for Inactive)
REMARK    1  A    between atoms: N_2  and  C_19
REMARK    2  A    between atoms: C_3  and  C_8
REMARK    3  A    between atoms: C_6  and  C_14
REMARK    4  A    between atoms: C_14  and  N_15
REMARK    5  A    between atoms: C_19  and  C_20
REMARK    6  A    between atoms: C_20  and  O_21
REMARK    7  A    between atoms: O_21  and  C_22
REMARK    8  A    between atoms: C_25  and  C_30
REMARK    9  A    between atoms: N_29  and  O_32
REMARK                            x       y       z     vdW  Elec       q    Type
REMARK                         _______ _______ _______ _____ _____    ______ ____
ROOT
ATOM      1  O   UNL     1      32.702 -23.101 -17.676  0.00  0.00    -0.267 OA
ATOM      2  N   UNL     1      34.511 -21.696 -17.854  0.00  0.00    -0.295 N 
ATOM      3  C   UNL     1      33.742 -22.642 -17.139  0.00  0.00    +0.280 C 
ATOM      4  H   UNL     1      35.323 -21.342 -17.427  0.00  0.00    +0.150 HD
ENDROOT
BRANCH   3   8
ATOM      5  O   UNL     1      35.506 -23.463 -15.768  0.00  0.00    -0.449 OA
ATOM      6  C   UNL     1      33.605 -23.082 -14.626  0.00  0.00    -0.001 A 
ATOM      7  C   UNL     1      34.576 -23.566 -13.711  0.00  0.00    +0.032 A 
ATOM      8  C   UNL     1      34.218 -23.039 -15.857  0.00  0.00    +0.192 A 
ATOM      9  C   UNL     1      35.726 -23.785 -14.461  0.00  0.00    +0.145 A 
ATOM     10  C   UNL     1      34.609 -23.842 -12.334  0.00  0.00    +0.003 C 
ATOM     11  C   UNL     1      36.924 -24.265 -13.934  0.00  0.00    +0.037 C 
ATOM     12  C   UNL     1      35.800 -24.327 -11.774  0.00  0.00    +0.000 C 
ATOM     13  C   UNL     1      36.935 -24.534 -12.562  0.00  0.00    +0.003 C 
BRANCH   6  14
ATOM     14  C   UNL     1      32.212 -22.702 -14.319  0.00  0.00    -0.047 C 
BRANCH  14  15
ATOM     15  N   UNL     1      31.298 -23.762 -14.752  0.00  0.00    +0.387 N 
ATOM     16  C   UNL     1      30.088 -23.184 -15.334  0.00  0.00    -0.100 C 
ATOM     17  C   UNL     1      30.960 -24.633 -13.629  0.00  0.00    -0.100 C 
ATOM     18  H   UNL     1      31.763 -24.322 -15.467  0.00  0.00    -0.079 HD
ENDBRANCH  14  15
ENDBRANCH   6  14
ENDBRANCH   3   8
BRANCH   2  19
ATOM     19  C   UNL     1      34.172 -21.220 -19.177  0.00  0.00    +0.137 C 
BRANCH  19  20
ATOM     20  C   UNL     1      35.414 -20.870 -19.977  0.00  0.00    +0.227 C 
BRANCH  20  21
ATOM     21  O   UNL     1      35.581 -19.459 -19.998  0.00  0.00    -0.474 OA
BRANCH  21  22
ATOM     22  C   UNL     1      35.074 -18.792 -21.082  0.00  0.00    +0.139 C 
ATOM     23  C   UNL     1      34.365 -19.489 -22.061  0.00  0.00    +0.037 C 
ATOM     24  C   UNL     1      35.269 -17.417 -21.208  0.00  0.00    +0.037 C 
ATOM     25  C   UNL     1      34.046 -17.434 -23.292  0.00  0.00    +0.056 C 
ATOM     26  C   UNL     1      33.851 -18.809 -23.165  0.00  0.00    +0.008 C 
ATOM     27  C   UNL     1      34.755 -16.738 -22.313  0.00  0.00    +0.008 C 
BRANCH  25  30
ATOM     28  O   UNL     1      32.728 -17.293 -25.230  0.00  0.00    -0.268 OA
ATOM     29  N   UNL     1      33.919 -15.414 -24.627  0.00  0.00    -0.193 N 
ATOM     30  C   UNL     1      33.510 -16.727 -24.444  0.00  0.00    +0.268 C 
ATOM     31  H   UNL     1      34.539 -14.974 -24.001  0.00  0.00    +0.183 HD
BRANCH  29  32
ATOM     32  O   UNL     1      33.409 -14.743 -25.749  0.00  0.00    -0.295 OA
ATOM     33  H   UNL     1      32.565 -15.143 -26.009  0.00  0.00    +0.241 HD
ENDBRANCH  29  32
ENDBRANCH  25  30
ENDBRANCH  21  22
ENDBRANCH  20  21
ENDBRANCH  19  20
ENDBRANCH   2  19
TORSDOF 9
ENDMDL
MODEL 4
REMARK VINA RESULT:     -11.2      1.537      3.378
REMARK  Name = 11749858
REMARK  9 active torsions:
REMARK  status: ('A' for Active; 'I' for Inactive)
REMARK    1  A    between atoms: N_2  and  C_19
REMARK    2  A    between atoms: C_3  and  C_8
REMARK    3  A    between atoms: C_6  and  C_14
REMARK    4  A    between atoms: C_14  and  N_15
REMARK    5  A    between atoms: C_19  and  C_20
REMARK    6  A    between atoms: C_20  and  O_21
REMARK    7  A    between atoms: O_21  and  C_22
REMARK    8  A    between atoms: C_25  and  C_30
REMARK    9  A    between atoms: N_29  and  O_32
REMARK                            x       y       z     vdW  Elec       q    Type
REMARK                         _______ _______ _______ _____ _____    ______ ____
ROOT
ATOM      1  O   UNL     1      32.311 -22.002 -19.128  0.00  0.00    -0.267 OA
ATOM      2  N   UNL     1      34.059 -20.523 -19.306  0.00  0.00    -0.295 N 
ATOM      3  C   UNL     1      33.390 -21.575 -18.643  0.00  0.00    +0.280 C 
ATOM      4  H   UNL     1      34.903 -20.195 -18.920  0.00  0.00    +0.150 HD
ENDROOT
BRANCH   3   8
ATOM      5  O   UNL     1      35.320 -21.841 -17.276  0.00  0.00    -0.449 OA
ATOM      6  C   UNL     1      33.504 -22.880 -16.449  0.00  0.00    -0.001 A 
ATOM      7  C   UNL     1      34.584 -23.108 -15.556  0.00  0.00    +0.032 A 
ATOM      8  C   UNL     1      34.003 -22.108 -17.473  0.00  0.00    +0.192 A 
ATOM      9  C   UNL     1      35.676 -22.449 -16.109  0.00  0.00    +0.145 A 
ATOM     10  C   UNL     1      34.757 -23.797 -14.344  0.00  0.00    +0.003 C 
ATOM     11  C   UNL     1      36.947 -22.426 -15.536  0.00  0.00    +0.037 C 
ATOM     12  C   UNL     1      36.024 -23.792 -13.743  0.00  0.00    +0.000 C 
ATOM     13  C   UNL     1      37.098 -23.118 -14.331  0.00  0.00    +0.003 C 
BRANCH   6  14
ATOM     14  C   UNL     1      32.119 -23.373 -16.307  0.00  0.00    -0.047 C 
BRANCH  14  15
ATOM     15  N   UNL     1      31.269 -22.319 -15.747  0.00  0.00    +0.387 N 
ATOM     16  C   UNL     1      31.376 -22.299 -14.290  0.00  0.00    -0.100 C 
ATOM     17  C   UNL     1      29.880 -22.515 -16.157  0.00  0.00    -0.100 C 
ATOM     18  H   UNL     1      31.586 -21.418 -16.106  0.00  0.00    -0.079 HD
ENDBRANCH  14  15
ENDBRANCH   6  14
ENDBRANCH   3   8
BRANCH   2  19
ATOM     19  C   UNL     1      33.577 -19.901 -20.519  0.00  0.00    +0.137 C 
BRANCH  19  20
ATOM     20  C   UNL     1      34.706 -19.255 -21.301  0.00  0.00    +0.227 C 
BRANCH  20  21
ATOM     21  O   UNL     1      35.057 -18.020 -20.691  0.00  0.00    -0.474 OA
BRANCH  21  22
ATOM     22  C   UNL     1      34.678 -16.877 -21.345  0.00  0.00    +0.139 C 
ATOM     23  C   UNL     1      34.718 -16.825 -22.738  0.00  0.00    +0.037 C 
ATOM     24  C   UNL     1      34.254 -15.765 -20.617  0.00  0.00    +0.037 C 
ATOM     25  C   UNL     1      33.909 -14.548 -22.676  0.00  0.00    +0.056 C 
ATOM     26  C   UNL     1      34.333 -15.661 -23.403  0.00  0.00    +0.008 C 
ATOM     27  C   UNL     1      33.870 -14.601 -21.282  0.00  0.00    +0.008 C 
BRANCH  25  30
ATOM     28  O   UNL     1      32.838 -13.394 -24.417  0.00  0.00    -0.268 OA
ATOM     29  N   UNL     1      33.919 -12.128 -22.823  0.00  0.00    -0.193 N 
ATOM     30  C   UNL     1      33.509 -13.336 -23.370  0.00  0.00    +0.268 C 
ATOM     31  H   UNL     1      34.451 -12.091 -21.995  0.00  0.00    +0.183 HD
BRANCH  29  32
ATOM     32  O   UNL     1      33.541 -10.963 -23.506  0.00  0.00    -0.295 OA
ATOM     33  H   UNL     1      32.599 -11.011 -23.731  0.00  0.00    +0.241 HD
ENDBRANCH  29  32
ENDBRANCH  25  30
ENDBRANCH  21  22
ENDBRANCH  20  21
ENDBRANCH  19  20
ENDBRANCH   2  19
TORSDOF 9
ENDMDL
MODEL 5
REMARK VINA RESULT:     -11.2      2.362     10.287
REMARK  Name = 11749858
REMARK  9 active torsions:
REMARK  status: ('A' for Active; 'I' for Inactive)
REMARK    1  A    between atoms: N_2  and  C_19
REMARK    2  A    between atoms: C_3  and  C_8
REMARK    3  A    between atoms: C_6  and  C_14
REMARK    4  A    between atoms: C_14  and  N_15
REMARK    5  A    between atoms: C_19  and  C_20
REMARK    6  A    between atoms: C_20  and  O_21
REMARK    7  A    between atoms: O_21  and  C_22
REMARK    8  A    between atoms: C_25  and  C_30
REMARK    9  A    between atoms: N_29  and  O_32
REMARK                            x       y       z     vdW  Elec       q    Type
REMARK                         _______ _______ _______ _____ _____    ______ ____
ROOT
ATOM      1  O   UNL     1      36.510 -18.346 -20.260  0.00  0.00    -0.267 OA
ATOM      2  N   UNL     1      34.474 -19.333 -20.653  0.00  0.00    -0.295 N 
ATOM      3  C   UNL     1      35.333 -18.212 -20.681  0.00  0.00    +0.280 C 
ATOM      4  H   UNL     1      33.554 -19.220 -20.984  0.00  0.00    +0.150 HD
ENDROOT
BRANCH   3   8
ATOM      5  O   UNL     1      34.515 -16.002 -20.343  0.00  0.00    -0.449 OA
ATOM      6  C   UNL     1      34.533 -16.616 -22.508  0.00  0.00    -0.001 A 
ATOM      7  C   UNL     1      34.028 -15.290 -22.432  0.00  0.00    +0.032 A 
ATOM      8  C   UNL     1      34.812 -17.000 -21.217  0.00  0.00    +0.192 A 
ATOM      9  C   UNL     1      34.038 -14.960 -21.082  0.00  0.00    +0.145 A 
ATOM     10  C   UNL     1      33.567 -14.337 -23.354  0.00  0.00    +0.003 C 
ATOM     11  C   UNL     1      33.615 -13.732 -20.574  0.00  0.00    +0.037 C 
ATOM     12  C   UNL     1      33.135 -13.092 -22.875  0.00  0.00    +0.000 C 
ATOM     13  C   UNL     1      33.159 -12.798 -21.509  0.00  0.00    +0.003 C 
BRANCH   6  14
ATOM     14  C   UNL     1      34.720 -17.422 -23.730  0.00  0.00    -0.047 C 
BRANCH  14  15
ATOM     15  N   UNL     1      33.626 -18.388 -23.863  0.00  0.00    +0.387 N 
ATOM     16  C   UNL     1      34.148 -19.697 -24.250  0.00  0.00    -0.100 C 
ATOM     17  C   UNL     1      32.647 -17.917 -24.841  0.00  0.00    -0.100 C 
ATOM     18  H   UNL     1      33.161 -18.481 -22.960  0.00  0.00    -0.079 HD
ENDBRANCH  14  15
ENDBRANCH   6  14
ENDBRANCH   3   8
BRANCH   2  19
ATOM     19  C   UNL     1      34.868 -20.637 -20.166  0.00  0.00    +0.137 C 
BRANCH  19  20
ATOM     20  C   UNL     1      33.993 -21.089 -19.012  0.00  0.00    +0.227 C 
BRANCH  20  21
ATOM     21  O   UNL     1      34.749 -21.922 -18.143  0.00  0.00    -0.474 OA
BRANCH  21  22
ATOM     22  C   UNL     1      34.112 -22.386 -17.022  0.00  0.00    +0.139 C 
ATOM     23  C   UNL     1      34.844 -22.662 -15.867  0.00  0.00    +0.037 C 
ATOM     24  C   UNL     1      32.732 -22.585 -17.037  0.00  0.00    +0.037 C 
ATOM     25  C   UNL     1      32.815 -23.335 -14.742  0.00  0.00    +0.056 C 
ATOM     26  C   UNL     1      34.196 -23.136 -14.728  0.00  0.00    +0.008 C 
ATOM     27  C   UNL     1      32.084 -23.060 -15.898  0.00  0.00    +0.008 C 
BRANCH  25  30
ATOM     28  O   UNL     1      32.770 -24.021 -12.497  0.00  0.00    -0.268 OA
ATOM     29  N   UNL     1      30.780 -24.088 -13.659  0.00  0.00    -0.193 N 
ATOM     30  C   UNL     1      32.140 -23.830 -13.553  0.00  0.00    +0.268 C 
ATOM     31  H   UNL     1      30.290 -23.935 -14.499  0.00  0.00    +0.183 HD
BRANCH  29  32
ATOM     32  O   UNL     1      30.139 -24.579 -12.512  0.00  0.00    -0.295 OA
ATOM     33  H   UNL     1      29.540 -23.901 -12.161  0.00  0.00    +0.241 HD
ENDBRANCH  29  32
ENDBRANCH  25  30
ENDBRANCH  21  22
ENDBRANCH  20  21
ENDBRANCH  19  20
ENDBRANCH   2  19
TORSDOF 9
ENDMDL
MODEL 6
REMARK VINA RESULT:     -10.7      2.926     10.326
REMARK  Name = 11749858
REMARK  9 active torsions:
REMARK  status: ('A' for Active; 'I' for Inactive)
REMARK    1  A    between atoms: N_2  and  C_19
REMARK    2  A    between atoms: C_3  and  C_8
REMARK    3  A    between atoms: C_6  and  C_14
REMARK    4  A    between atoms: C_14  and  N_15
REMARK    5  A    between atoms: C_19  and  C_20
REMARK    6  A    between atoms: C_20  and  O_21
REMARK    7  A    between atoms: O_21  and  C_22
REMARK    8  A    between atoms: C_25  and  C_30
REMARK    9  A    between atoms: N_29  and  O_32
REMARK                            x       y       z     vdW  Elec       q    Type
REMARK                         _______ _______ _______ _____ _____    ______ ____
ROOT
ATOM      1  O   UNL     1      36.660 -18.384 -20.543  0.00  0.00    -0.267 OA
ATOM      2  N   UNL     1      34.578 -19.348 -20.624  0.00  0.00    -0.295 N 
ATOM      3  C   UNL     1      35.435 -18.237 -20.784  0.00  0.00    +0.280 C 
ATOM      4  H   UNL     1      33.620 -19.226 -20.815  0.00  0.00    +0.150 HD
ENDROOT
BRANCH   3   8
ATOM      5  O   UNL     1      34.559 -16.076 -20.308  0.00  0.00    -0.449 OA
ATOM      6  C   UNL     1      34.510 -16.585 -22.499  0.00  0.00    -0.001 A 
ATOM      7  C   UNL     1      33.965 -15.284 -22.339  0.00  0.00    +0.032 A 
ATOM      8  C   UNL     1      34.853 -17.020 -21.240  0.00  0.00    +0.192 A 
ATOM      9  C   UNL     1      34.018 -15.017 -20.976  0.00  0.00    +0.145 A 
ATOM     10  C   UNL     1      33.436 -14.304 -23.196  0.00  0.00    +0.003 C 
ATOM     11  C   UNL     1      33.575 -13.830 -20.393  0.00  0.00    +0.037 C 
ATOM     12  C   UNL     1      32.982 -13.100 -22.640  0.00  0.00    +0.000 C 
ATOM     13  C   UNL     1      33.051 -12.870 -21.263  0.00  0.00    +0.003 C 
BRANCH   6  14
ATOM     14  C   UNL     1      34.674 -17.326 -23.765  0.00  0.00    -0.047 C 
BRANCH  14  15
ATOM     15  N   UNL     1      33.674 -18.393 -23.853  0.00  0.00    +0.387 N 
ATOM     16  C   UNL     1      34.315 -19.664 -24.184  0.00  0.00    -0.100 C 
ATOM     17  C   UNL     1      32.657 -18.057 -24.847  0.00  0.00    -0.100 C 
ATOM     18  H   UNL     1      33.219 -18.489 -22.945  0.00  0.00    -0.079 HD
ENDBRANCH  14  15
ENDBRANCH   6  14
ENDBRANCH   3   8
BRANCH   2  19
ATOM     19  C   UNL     1      35.026 -20.656 -20.198  0.00  0.00    +0.137 C 
BRANCH  19  20
ATOM     20  C   UNL     1      34.840 -20.849 -18.704  0.00  0.00    +0.227 C 
BRANCH  20  21
ATOM     21  O   UNL     1      35.857 -21.709 -18.209  0.00  0.00    -0.474 OA
BRANCH  21  22
ATOM     22  C   UNL     1      35.805 -22.024 -16.876  0.00  0.00    +0.139 C 
ATOM     23  C   UNL     1      34.592 -22.384 -16.290  0.00  0.00    +0.037 C 
ATOM     24  C   UNL     1      36.967 -21.980 -16.104  0.00  0.00    +0.037 C 
ATOM     25  C   UNL     1      35.700 -22.660 -14.161  0.00  0.00    +0.056 C 
ATOM     26  C   UNL     1      34.539 -22.702 -14.934  0.00  0.00    +0.008 C 
ATOM     27  C   UNL     1      36.914 -22.298 -14.747  0.00  0.00    +0.008 C 
BRANCH  25  30
ATOM     28  O   UNL     1      34.768 -23.758 -12.307  0.00  0.00    -0.268 OA
ATOM     29  N   UNL     1      36.595 -22.407 -11.922  0.00  0.00    -0.193 N 
ATOM     30  C   UNL     1      35.645 -22.991 -12.747  0.00  0.00    +0.268 C 
ATOM     31  H   UNL     1      37.284 -21.801 -12.277  0.00  0.00    +0.183 HD
BRANCH  29  32
ATOM     32  O   UNL     1      36.526 -22.720 -10.556  0.00  0.00    -0.295 OA
ATOM     33  H   UNL     1      35.832 -22.187 -10.137  0.00  0.00    +0.241 HD
ENDBRANCH  29  32
ENDBRANCH  25  30
ENDBRANCH  21  22
ENDBRANCH  20  21
ENDBRANCH  19  20
ENDBRANCH   2  19
TORSDOF 9
ENDMDL
MODEL 7
REMARK VINA RESULT:     -10.6      2.889      5.929
REMARK  Name = 11749858
REMARK  9 active torsions:
REMARK  status: ('A' for Active; 'I' for Inactive)
REMARK    1  A    between atoms: N_2  and  C_19
REMARK    2  A    between atoms: C_3  and  C_8
REMARK    3  A    between atoms: C_6  and  C_14
REMARK    4  A    between atoms: C_14  and  N_15
REMARK    5  A    between atoms: C_19  and  C_20
REMARK    6  A    between atoms: C_20  and  O_21
REMARK    7  A    between atoms: O_21  and  C_22
REMARK    8  A    between atoms: C_25  and  C_30
REMARK    9  A    between atoms: N_29  and  O_32
REMARK                            x       y       z     vdW  Elec       q    Type
REMARK                         _______ _______ _______ _____ _____    ______ ____
ROOT
ATOM      1  O   UNL     1      33.343 -23.245 -13.234  0.00  0.00    -0.267 OA
ATOM      2  N   UNL     1      33.625 -23.306 -15.513  0.00  0.00    -0.295 N 
ATOM      3  C   UNL     1      34.123 -23.452 -14.199  0.00  0.00    +0.280 C 
ATOM      4  H   UNL     1      34.242 -23.470 -16.262  0.00  0.00    +0.150 HD
ENDROOT
BRANCH   3   8
ATOM      5  O   UNL     1      36.317 -23.642 -15.102  0.00  0.00    -0.449 OA
ATOM      6  C   UNL     1      36.151 -24.454 -13.010  0.00  0.00    -0.001 A 
ATOM      7  C   UNL     1      37.494 -24.621 -13.439  0.00  0.00    +0.032 A 
ATOM      8  C   UNL     1      35.481 -23.857 -14.053  0.00  0.00    +0.192 A 
ATOM      9  C   UNL     1      37.544 -24.106 -14.730  0.00  0.00    +0.145 A 
ATOM     10  C   UNL     1      38.669 -25.149 -12.880  0.00  0.00    +0.003 C 
ATOM     11  C   UNL     1      38.695 -24.079 -15.516  0.00  0.00    +0.037 C 
ATOM     12  C   UNL     1      39.843 -25.135 -13.646  0.00  0.00    +0.000 C 
ATOM     13  C   UNL     1      39.853 -24.610 -14.941  0.00  0.00    +0.003 C 
BRANCH   6  14
ATOM     14  C   UNL     1      35.585 -24.843 -11.703  0.00  0.00    -0.047 C 
BRANCH  14  15
ATOM     15  N   UNL     1      35.325 -23.649 -10.895  0.00  0.00    +0.387 N 
ATOM     16  C   UNL     1      36.380 -22.658 -11.099  0.00  0.00    -0.100 C 
ATOM     17  C   UNL     1      35.220 -24.004  -9.482  0.00  0.00    -0.100 C 
ATOM     18  H   UNL     1      34.439 -23.241 -11.192  0.00  0.00    -0.079 HD
ENDBRANCH  14  15
ENDBRANCH   6  14
ENDBRANCH   3   8
BRANCH   2  19
ATOM     19  C   UNL     1      32.263 -22.931 -15.820  0.00  0.00    +0.137 C 
BRANCH  19  20
ATOM     20  C   UNL     1      32.112 -22.523 -17.274  0.00  0.00    +0.227 C 
BRANCH  20  21
ATOM     21  O   UNL     1      33.325 -22.785 -17.967  0.00  0.00    -0.474 OA
BRANCH  21  22
ATOM     22  C   UNL     1      33.828 -21.770 -18.738  0.00  0.00    +0.139 C 
ATOM     23  C   UNL     1      35.197 -21.504 -18.736  0.00  0.00    +0.037 C 
ATOM     24  C   UNL     1      32.969 -21.001 -19.524  0.00  0.00    +0.037 C 
ATOM     25  C   UNL     1      34.849 -19.701 -20.306  0.00  0.00    +0.056 C 
ATOM     26  C   UNL     1      35.707 -20.470 -19.521  0.00  0.00    +0.008 C 
ATOM     27  C   UNL     1      33.479 -19.967 -20.307  0.00  0.00    +0.008 C 
BRANCH  25  30
ATOM     28  O   UNL     1      36.442 -18.051 -20.809  0.00  0.00    -0.268 OA
ATOM     29  N   UNL     1      34.652 -18.258 -22.246  0.00  0.00    -0.193 N 
ATOM     30  C   UNL     1      35.382 -18.623 -21.123  0.00  0.00    +0.268 C 
ATOM     31  H   UNL     1      33.813 -18.715 -22.486  0.00  0.00    +0.183 HD
BRANCH  29  32
ATOM     32  O   UNL     1      35.164 -17.207 -23.020  0.00  0.00    -0.295 OA
ATOM     33  H   UNL     1      34.439 -16.771 -23.494  0.00  0.00    +0.241 HD
ENDBRANCH  29  32
ENDBRANCH  25  30
ENDBRANCH  21  22
ENDBRANCH  20  21
ENDBRANCH  19  20
ENDBRANCH   2  19
TORSDOF 9
ENDMDL
MODEL 8
REMARK VINA RESULT:     -10.5      7.120     14.829
REMARK  Name = 11749858
REMARK  9 active torsions:
REMARK  status: ('A' for Active; 'I' for Inactive)
REMARK    1  A    between atoms: N_2  and  C_19
REMARK    2  A    between atoms: C_3  and  C_8
REMARK    3  A    between atoms: C_6  and  C_14
REMARK    4  A    between atoms: C_14  and  N_15
REMARK    5  A    between atoms: C_19  and  C_20
REMARK    6  A    between atoms: C_20  and  O_21
REMARK    7  A    between atoms: O_21  and  C_22
REMARK    8  A    between atoms: C_25  and  C_30
REMARK    9  A    between atoms: N_29  and  O_32
REMARK                            x       y       z     vdW  Elec       q    Type
REMARK                         _______ _______ _______ _____ _____    ______ ____
ROOT
ATOM      1  O   UNL     1      32.425  -7.160 -20.108  0.00  0.00    -0.267 OA
ATOM      2  N   UNL     1      31.472  -8.579 -21.641  0.00  0.00    -0.295 N 
ATOM      3  C   UNL     1      32.225  -7.428 -21.320  0.00  0.00    +0.280 C 
ATOM      4  H   UNL     1      31.319  -8.782 -22.592  0.00  0.00    +0.150 HD
ENDROOT
BRANCH   3   8
ATOM      5  O   UNL     1      33.448  -7.308 -23.358  0.00  0.00    -0.449 OA
ATOM      6  C   UNL     1      32.652  -5.313 -22.688  0.00  0.00    -0.001 A 
ATOM      7  C   UNL     1      33.358  -5.117 -23.904  0.00  0.00    +0.032 A 
ATOM      8  C   UNL     1      32.736  -6.656 -22.402  0.00  0.00    +0.192 A 
ATOM      9  C   UNL     1      33.828  -6.372 -24.274  0.00  0.00    +0.145 A 
ATOM     10  C   UNL     1      33.652  -4.019 -24.730  0.00  0.00    +0.003 C 
ATOM     11  C   UNL     1      34.579  -6.618 -25.422  0.00  0.00    +0.037 C 
ATOM     12  C   UNL     1      34.405  -4.235 -25.892  0.00  0.00    +0.000 C 
ATOM     13  C   UNL     1      34.860  -5.512 -26.230  0.00  0.00    +0.003 C 
BRANCH   6  14
ATOM     14  C   UNL     1      31.963  -4.280 -21.889  0.00  0.00    -0.047 C 
BRANCH  14  15
ATOM     15  N   UNL     1      30.639  -4.012 -22.455  0.00  0.00    +0.387 N 
ATOM     16  C   UNL     1      30.371  -2.575 -22.463  0.00  0.00    -0.100 C 
ATOM     17  C   UNL     1      29.609  -4.721 -21.700  0.00  0.00    -0.100 C 
ATOM     18  H   UNL     1      30.621  -4.347 -23.418  0.00  0.00    -0.079 HD
ENDBRANCH  14  15
ENDBRANCH   6  14
ENDBRANCH   3   8
BRANCH   2  19
ATOM     19  C   UNL     1      30.913  -9.477 -20.654  0.00  0.00    +0.137 C 
BRANCH  19  20
ATOM     20  C   UNL     1      30.856 -10.904 -21.168  0.00  0.00    +0.227 C 
BRANCH  20  21
ATOM     21  O   UNL     1      31.941 -11.129 -22.058  0.00  0.00    -0.474 OA
BRANCH  21  22
ATOM     22  C   UNL     1      32.599 -12.326 -21.940  0.00  0.00    +0.139 C 
ATOM     23  C   UNL     1      32.548 -13.035 -20.740  0.00  0.00    +0.037 C 
ATOM     24  C   UNL     1      33.321 -12.834 -23.020  0.00  0.00    +0.037 C 
ATOM     25  C   UNL     1      33.941 -14.761 -21.699  0.00  0.00    +0.056 C 
ATOM     26  C   UNL     1      33.218 -14.252 -20.620  0.00  0.00    +0.008 C 
ATOM     27  C   UNL     1      33.992 -14.050 -22.899  0.00  0.00    +0.008 C 
BRANCH  25  30
ATOM     28  O   UNL     1      34.797 -16.561 -20.459  0.00  0.00    -0.268 OA
ATOM     29  N   UNL     1      35.130 -16.600 -22.739  0.00  0.00    -0.193 N 
ATOM     30  C   UNL     1      34.640 -16.029 -21.573  0.00  0.00    +0.268 C 
ATOM     31  H   UNL     1      35.003 -16.172 -23.616  0.00  0.00    +0.183 HD
BRANCH  29  32
ATOM     32  O   UNL     1      35.816 -17.816 -22.608  0.00  0.00    -0.295 OA
ATOM     33  H   UNL     1      36.577 -17.696 -22.018  0.00  0.00    +0.241 HD
ENDBRANCH  29  32
ENDBRANCH  25  30
ENDBRANCH  21  22
ENDBRANCH  20  21
ENDBRANCH  19  20
ENDBRANCH   2  19
TORSDOF 9
ENDMDL
MODEL 9
REMARK VINA RESULT:     -10.4      1.615      1.962
REMARK  Name = 11749858
REMARK  9 active torsions:
REMARK  status: ('A' for Active; 'I' for Inactive)
REMARK    1  A    between atoms: N_2  and  C_19
REMARK    2  A    between atoms: C_3  and  C_8
REMARK    3  A    between atoms: C_6  and  C_14
REMARK    4  A    between atoms: C_14  and  N_15
REMARK    5  A    between atoms: C_19  and  C_20
REMARK    6  A    between atoms: C_20  and  O_21
REMARK    7  A    between atoms: O_21  and  C_22
REMARK    8  A    between atoms: C_25  and  C_30
REMARK    9  A    between atoms: N_29  and  O_32
REMARK                            x       y       z     vdW  Elec       q    Type
REMARK                         _______ _______ _______ _____ _____    ______ ____
ROOT
ATOM      1  O   UNL     1      36.319 -21.842 -15.916  0.00  0.00    -0.267 OA
ATOM      2  N   UNL     1      35.036 -21.691 -17.815  0.00  0.00    -0.295 N 
ATOM      3  C   UNL     1      35.208 -22.062 -16.462  0.00  0.00    +0.280 C 
ATOM      4  H   UNL     1      34.163 -21.866 -18.235  0.00  0.00    +0.150 HD
ENDROOT
BRANCH   3   8
ATOM      5  O   UNL     1      32.851 -22.268 -16.206  0.00  0.00    -0.449 OA
ATOM      6  C   UNL     1      34.011 -23.541 -14.758  0.00  0.00    -0.001 A 
ATOM      7  C   UNL     1      32.628 -23.745 -14.510  0.00  0.00    +0.032 A 
ATOM      8  C   UNL     1      34.091 -22.638 -15.793  0.00  0.00    +0.192 A 
ATOM      9  C   UNL     1      31.958 -22.941 -15.426  0.00  0.00    +0.145 A 
ATOM     10  C   UNL     1      31.871 -24.520 -13.616  0.00  0.00    +0.003 C 
ATOM     11  C   UNL     1      30.570 -22.850 -15.517  0.00  0.00    +0.037 C 
ATOM     12  C   UNL     1      30.472 -24.449 -13.683  0.00  0.00    +0.000 C 
ATOM     13  C   UNL     1      29.836 -23.628 -14.617  0.00  0.00    +0.003 C 
BRANCH   6  14
ATOM     14  C   UNL     1      35.140 -24.171 -14.045  0.00  0.00    -0.047 C 
BRANCH  14  15
ATOM     15  N   UNL     1      35.760 -23.203 -13.137  0.00  0.00    +0.387 N 
ATOM     16  C   UNL     1      37.185 -23.489 -12.985  0.00  0.00    -0.100 C 
ATOM     17  C   UNL     1      35.091 -23.224 -11.838  0.00  0.00    -0.100 C 
ATOM     18  H   UNL     1      35.660 -22.270 -13.536  0.00  0.00    -0.079 HD
ENDBRANCH  14  15
ENDBRANCH   6  14
ENDBRANCH   3   8
BRANCH   2  19
ATOM     19  C   UNL     1      36.066 -21.069 -18.616  0.00  0.00    +0.137 C 
BRANCH  19  20
ATOM     20  C   UNL     1      35.601 -20.841 -20.043  0.00  0.00    +0.227 C 
BRANCH  20  21
ATOM     21  O   UNL     1      34.445 -20.014 -20.036  0.00  0.00    -0.474 OA
BRANCH  21  22
ATOM     22  C   UNL     1      34.393 -19.017 -20.976  0.00  0.00    +0.139 C 
ATOM     23  C   UNL     1      33.883 -19.283 -22.247  0.00  0.00    +0.037 C 
ATOM     24  C   UNL     1      34.853 -17.738 -20.662  0.00  0.00    +0.037 C 
ATOM     25  C   UNL     1      34.292 -16.990 -22.890  0.00  0.00    +0.056 C 
ATOM     26  C   UNL     1      33.832 -18.269 -23.203  0.00  0.00    +0.008 C 
ATOM     27  C   UNL     1      34.803 -16.725 -21.619  0.00  0.00    +0.008 C 
BRANCH  25  30
ATOM     28  O   UNL     1      35.065 -15.002 -23.871  0.00  0.00    -0.268 OA
ATOM     29  N   UNL     1      33.228 -16.007 -24.834  0.00  0.00    -0.193 N 
ATOM     30  C   UNL     1      34.239 -15.933 -23.887  0.00  0.00    +0.268 C 
ATOM     31  H   UNL     1      32.578 -16.746 -24.839  0.00  0.00    +0.183 HD
BRANCH  29  32
ATOM     32  O   UNL     1      33.175 -14.976 -25.784  0.00  0.00    -0.295 OA
ATOM     33  H   UNL     1      33.856 -15.122 -26.459  0.00  0.00    +0.241 HD
ENDBRANCH  29  32
ENDBRANCH  25  30
ENDBRANCH  21  22
ENDBRANCH  20  21
ENDBRANCH  19  20
ENDBRANCH   2  19
TORSDOF 9
ENDMDL
