MODEL 1
REMARK VINA RESULT:     -12.3      0.000      0.000
REMARK  Name = 25102779
REMARK  5 active torsions:
REMARK  status: ('A' for Active; 'I' for Inactive)
REMARK    1  A    between atoms: C_2  and  C_18
REMARK    2  A    between atoms: C_5  and  O_8
REMARK    3  A    between atoms: O_8  and  C_9
REMARK    4  A    between atoms: C_14  and  C_17
REMARK    5  A    between atoms: C_18  and  C_23
REMARK                            x       y       z     vdW  Elec       q    Type
REMARK                         _______ _______ _______ _____ _____    ______ ____
ROOT
ATOM      1 BR   UNL     1      33.059 -13.599 -25.294  0.00  0.00    -0.046 Br
ATOM      2  C   UNL     1      31.768 -12.301 -21.564  0.00  0.00    -0.016 C 
ATOM      3  C   UNL     1      31.902 -12.506 -22.937  0.00  0.00    +0.006 C 
ATOM      4  C   UNL     1      32.639 -12.934 -20.676  0.00  0.00    -0.001 C 
ATOM      5  C   UNL     1      33.777 -13.976 -22.535  0.00  0.00    +0.151 C 
ATOM      6  C   UNL     1      32.906 -13.343 -23.422  0.00  0.00    +0.069 C 
ATOM      7  C   UNL     1      33.643 -13.771 -21.162  0.00  0.00    +0.038 C 
ENDROOT
BRANCH   5   8
ATOM      8  O   UNL     1      34.769 -14.800 -22.977  0.00  0.00    -0.453 OA
BRANCH   8   9
ATOM      9  C   UNL     1      34.543 -16.165 -22.920  0.00  0.00    +0.146 C 
ATOM     10  C   UNL     1      33.544 -18.160 -23.846  0.00  0.00    -0.018 C 
ATOM     11  C   UNL     1      33.772 -16.785 -23.903  0.00  0.00    +0.033 C 
ATOM     12  C   UNL     1      35.085 -16.919 -21.879  0.00  0.00    +0.048 C 
ATOM     13  C   UNL     1      34.086 -18.914 -22.805  0.00  0.00    +0.006 C 
ATOM     14  C   UNL     1      34.856 -18.294 -21.822  0.00  0.00    +0.071 C 
ATOM     15  C   UNL     1      32.720 -18.823 -24.897  0.00  0.00    +0.031 C 
BRANCH  14  17
ATOM     16  N   UNL     1      35.863 -19.694 -19.890  0.00  0.00    -0.191 NA
ATOM     17  C   UNL     1      35.411 -19.067 -20.756  0.00  0.00    +0.101 C 
ENDBRANCH  14  17
ENDBRANCH   8   9
ENDBRANCH   5   8
BRANCH   2  18
ATOM     18  C   UNL     1      30.673 -11.387 -21.032  0.00  0.00    +0.070 C 
BRANCH  18  23
ATOM     19  N   UNL     1      31.428  -9.899 -19.191  0.00  0.00    -0.231 N 
ATOM     20  N   UNL     1      31.856  -8.656 -18.884  0.00  0.00    -0.126 NA
ATOM     21  N   UNL     1      32.202  -6.742 -20.335  0.00  0.00    -0.103 NA
ATOM     22  N   UNL     1      32.094  -6.395 -21.648  0.00  0.00    -0.107 NA
ATOM     23  C   UNL     1      31.153 -10.092 -20.517  0.00  0.00    +0.057 C 
ATOM     24  C   UNL     1      31.422  -8.888 -21.109  0.00  0.00    +0.078 C 
ATOM     25  C   UNL     1      31.855  -8.028 -20.064  0.00  0.00    +0.072 C 
ATOM     26  C   UNL     1      31.291  -8.599 -22.450  0.00  0.00    +0.031 C 
ATOM     27  C   UNL     1      31.667  -7.272 -22.625  0.00  0.00    +0.110 C 
ATOM     28  H   UNL     1      31.321 -10.608 -18.516  0.00  0.00    +0.175 HD
ENDBRANCH  18  23
ENDBRANCH   2  18
TORSDOF 5
ENDMDL
MODEL 2
REMARK VINA RESULT:     -12.2      4.675      7.459
REMARK  Name = 25102779
REMARK  5 active torsions:
REMARK  status: ('A' for Active; 'I' for Inactive)
REMARK    1  A    between atoms: C_2  and  C_18
REMARK    2  A    between atoms: C_5  and  O_8
REMARK    3  A    between atoms: O_8  and  C_9
REMARK    4  A    between atoms: C_14  and  C_17
REMARK    5  A    between atoms: C_18  and  C_23
REMARK                            x       y       z     vdW  Elec       q    Type
REMARK                         _______ _______ _______ _____ _____    ______ ____
ROOT
ATOM      1 BR   UNL     1      32.097 -20.361 -20.243  0.00  0.00    -0.046 Br
ATOM      2  C   UNL     1      34.911 -17.456 -21.198  0.00  0.00    -0.016 C 
ATOM      3  C   UNL     1      33.716 -18.133 -20.955  0.00  0.00    +0.006 C 
ATOM      4  C   UNL     1      36.130 -18.117 -21.050  0.00  0.00    -0.001 C 
ATOM      5  C   UNL     1      34.959 -20.133 -20.416  0.00  0.00    +0.151 C 
ATOM      6  C   UNL     1      33.740 -19.472 -20.565  0.00  0.00    +0.069 C 
ATOM      7  C   UNL     1      36.154 -19.456 -20.659  0.00  0.00    +0.038 C 
ENDROOT
BRANCH   5   8
ATOM      8  O   UNL     1      35.018 -21.441 -20.036  0.00  0.00    -0.453 OA
BRANCH   8   9
ATOM      9  C   UNL     1      34.978 -21.718 -18.680  0.00  0.00    +0.146 C 
ATOM     10  C   UNL     1      36.074 -21.796 -16.529  0.00  0.00    -0.018 C 
ATOM     11  C   UNL     1      36.113 -21.518 -17.894  0.00  0.00    +0.033 C 
ATOM     12  C   UNL     1      33.804 -22.197 -18.100  0.00  0.00    +0.048 C 
ATOM     13  C   UNL     1      34.900 -22.275 -15.948  0.00  0.00    +0.006 C 
ATOM     14  C   UNL     1      33.765 -22.476 -16.733  0.00  0.00    +0.071 C 
ATOM     15  C   UNL     1      37.288 -21.581 -15.689  0.00  0.00    +0.031 C 
BRANCH  14  17
ATOM     16  N   UNL     1      31.585 -23.367 -15.656  0.00  0.00    -0.191 NA
ATOM     17  C   UNL     1      32.563 -22.967 -16.139  0.00  0.00    +0.101 C 
ENDBRANCH  14  17
ENDBRANCH   8   9
ENDBRANCH   5   8
BRANCH   2  18
ATOM     18  C   UNL     1      34.886 -15.995 -21.626  0.00  0.00    +0.070 C 
BRANCH  18  23
ATOM     19  N   UNL     1      34.331 -16.744 -23.929  0.00  0.00    -0.231 N 
ATOM     20  N   UNL     1      33.802 -16.367 -25.112  0.00  0.00    -0.126 NA
ATOM     21  N   UNL     1      32.883 -14.221 -25.778  0.00  0.00    -0.103 NA
ATOM     22  N   UNL     1      32.659 -12.979 -25.267  0.00  0.00    -0.107 NA
ATOM     23  C   UNL     1      34.343 -15.761 -22.976  0.00  0.00    +0.057 C 
ATOM     24  C   UNL     1      33.783 -14.673 -23.588  0.00  0.00    +0.078 C 
ATOM     25  C   UNL     1      33.462 -15.090 -24.907  0.00  0.00    +0.072 C 
ATOM     26  C   UNL     1      33.584 -13.436 -23.013  0.00  0.00    +0.031 C 
ATOM     27  C   UNL     1      32.991 -12.626 -23.974  0.00  0.00    +0.110 C 
ATOM     28  H   UNL     1      34.680 -17.650 -23.766  0.00  0.00    +0.175 HD
ENDBRANCH  18  23
ENDBRANCH   2  18
TORSDOF 5
ENDMDL
MODEL 3
REMARK VINA RESULT:     -11.4      5.069      8.273
REMARK  Name = 25102779
REMARK  5 active torsions:
REMARK  status: ('A' for Active; 'I' for Inactive)
REMARK    1  A    between atoms: C_2  and  C_18
REMARK    2  A    between atoms: C_5  and  O_8
REMARK    3  A    between atoms: O_8  and  C_9
REMARK    4  A    between atoms: C_14  and  C_17
REMARK    5  A    between atoms: C_18  and  C_23
REMARK                            x       y       z     vdW  Elec       q    Type
REMARK                         _______ _______ _______ _____ _____    ______ ____
ROOT
ATOM      1 BR   UNL     1      31.731 -20.778 -19.858  0.00  0.00    -0.046 Br
ATOM      2  C   UNL     1      35.158 -18.624 -20.797  0.00  0.00    -0.016 C 
ATOM      3  C   UNL     1      33.832 -19.024 -20.630  0.00  0.00    +0.006 C 
ATOM      4  C   UNL     1      36.195 -19.468 -20.401  0.00  0.00    -0.001 C 
ATOM      5  C   UNL     1      34.582 -21.111 -19.672  0.00  0.00    +0.151 C 
ATOM      6  C   UNL     1      33.544 -20.267 -20.068  0.00  0.00    +0.069 C 
ATOM      7  C   UNL     1      35.908 -20.711 -19.839  0.00  0.00    +0.038 C 
ENDROOT
BRANCH   5   8
ATOM      8  O   UNL     1      34.334 -22.333 -19.120  0.00  0.00    -0.453 OA
BRANCH   8   9
ATOM      9  C   UNL     1      34.173 -22.395 -17.746  0.00  0.00    +0.146 C 
ATOM     10  C   UNL     1      32.733 -22.592 -15.817  0.00  0.00    -0.018 C 
ATOM     11  C   UNL     1      32.896 -22.529 -17.200  0.00  0.00    +0.033 C 
ATOM     12  C   UNL     1      35.286 -22.324 -16.909  0.00  0.00    +0.048 C 
ATOM     13  C   UNL     1      33.846 -22.520 -14.979  0.00  0.00    +0.006 C 
ATOM     14  C   UNL     1      35.123 -22.387 -15.525  0.00  0.00    +0.071 C 
ATOM     15  C   UNL     1      31.368 -22.734 -15.233  0.00  0.00    +0.031 C 
BRANCH  14  17
ATOM     16  N   UNL     1      37.190 -22.254 -13.971  0.00  0.00    -0.191 NA
ATOM     17  C   UNL     1      36.263 -22.314 -14.667  0.00  0.00    +0.101 C 
ENDBRANCH  14  17
ENDBRANCH   8   9
ENDBRANCH   5   8
BRANCH   2  18
ATOM     18  C   UNL     1      35.474 -17.268 -21.411  0.00  0.00    +0.070 C 
BRANCH  18  23
ATOM     19  N   UNL     1      34.541 -17.961 -23.607  0.00  0.00    -0.231 N 
ATOM     20  N   UNL     1      33.881 -17.539 -24.707  0.00  0.00    -0.126 NA
ATOM     21  N   UNL     1      33.049 -15.326 -25.251  0.00  0.00    -0.103 NA
ATOM     22  N   UNL     1      32.997 -14.071 -24.722  0.00  0.00    -0.107 NA
ATOM     23  C   UNL     1      34.766 -16.987 -22.673  0.00  0.00    +0.057 C 
ATOM     24  C   UNL     1      34.212 -15.855 -23.207  0.00  0.00    +0.078 C 
ATOM     25  C   UNL     1      33.675 -16.241 -24.465  0.00  0.00    +0.072 C 
ATOM     26  C   UNL     1      34.194 -14.609 -22.619  0.00  0.00    +0.031 C 
ATOM     27  C   UNL     1      33.536 -13.751 -23.492  0.00  0.00    +0.110 C 
ATOM     28  H   UNL     1      34.837 -18.893 -23.488  0.00  0.00    +0.175 HD
ENDBRANCH  18  23
ENDBRANCH   2  18
TORSDOF 5
ENDMDL
MODEL 4
REMARK VINA RESULT:     -11.4      5.846      9.349
REMARK  Name = 25102779
REMARK  5 active torsions:
REMARK  status: ('A' for Active; 'I' for Inactive)
REMARK    1  A    between atoms: C_2  and  C_18
REMARK    2  A    between atoms: C_5  and  O_8
REMARK    3  A    between atoms: O_8  and  C_9
REMARK    4  A    between atoms: C_14  and  C_17
REMARK    5  A    between atoms: C_18  and  C_23
REMARK                            x       y       z     vdW  Elec       q    Type
REMARK                         _______ _______ _______ _____ _____    ______ ____
ROOT
ATOM      1 BR   UNL     1      36.594 -21.827 -17.225  0.00  0.00    -0.046 Br
ATOM      2  C   UNL     1      34.936 -19.492 -20.237  0.00  0.00    -0.016 C 
ATOM      3  C   UNL     1      35.778 -20.002 -19.249  0.00  0.00    +0.006 C 
ATOM      4  C   UNL     1      33.740 -20.145 -20.538  0.00  0.00    -0.001 C 
ATOM      5  C   UNL     1      34.230 -21.815 -18.863  0.00  0.00    +0.151 C 
ATOM      6  C   UNL     1      35.425 -21.163 -18.562  0.00  0.00    +0.069 C 
ATOM      7  C   UNL     1      33.387 -21.306 -19.851  0.00  0.00    +0.038 C 
ENDROOT
BRANCH   5   8
ATOM      8  O   UNL     1      33.855 -22.953 -18.210  0.00  0.00    -0.453 OA
BRANCH   8   9
ATOM      9  C   UNL     1      33.033 -22.817 -17.105  0.00  0.00    +0.146 C 
ATOM     10  C   UNL     1      32.729 -22.841 -14.709  0.00  0.00    -0.018 C 
ATOM     11  C   UNL     1      33.557 -22.977 -15.822  0.00  0.00    +0.033 C 
ATOM     12  C   UNL     1      31.681 -22.520 -17.274  0.00  0.00    +0.048 C 
ATOM     13  C   UNL     1      31.376 -22.544 -14.877  0.00  0.00    +0.006 C 
ATOM     14  C   UNL     1      30.852 -22.383 -16.159  0.00  0.00    +0.071 C 
ATOM     15  C   UNL     1      33.290 -23.012 -13.338  0.00  0.00    +0.031 C 
BRANCH  14  17
ATOM     16  N   UNL     1      28.341 -21.833 -16.473  0.00  0.00    -0.191 NA
ATOM     17  C   UNL     1      29.467 -22.079 -16.332  0.00  0.00    +0.101 C 
ENDBRANCH  14  17
ENDBRANCH   8   9
ENDBRANCH   5   8
BRANCH   2  18
ATOM     18  C   UNL     1      35.319 -18.224 -20.986  0.00  0.00    +0.070 C 
BRANCH  18  23
ATOM     19  N   UNL     1      34.279 -19.118 -23.058  0.00  0.00    -0.231 N 
ATOM     20  N   UNL     1      33.670 -18.787 -24.216  0.00  0.00    -0.126 NA
ATOM     21  N   UNL     1      33.133 -16.594 -25.104  0.00  0.00    -0.103 NA
ATOM     22  N   UNL     1      33.255 -15.277 -24.776  0.00  0.00    -0.107 NA
ATOM     23  C   UNL     1      34.641 -18.050 -22.283  0.00  0.00    +0.057 C 
ATOM     24  C   UNL     1      34.237 -16.951 -22.992  0.00  0.00    +0.078 C 
ATOM     25  C   UNL     1      33.641 -17.452 -24.180  0.00  0.00    +0.072 C 
ATOM     26  C   UNL     1      34.392 -15.638 -22.603  0.00  0.00    +0.031 C 
ATOM     27  C   UNL     1      33.845 -14.845 -23.606  0.00  0.00    +0.110 C 
ATOM     28  H   UNL     1      34.450 -20.051 -22.793  0.00  0.00    +0.175 HD
ENDBRANCH  18  23
ENDBRANCH   2  18
TORSDOF 5
ENDMDL
MODEL 5
REMARK VINA RESULT:     -11.4      1.412      2.156
REMARK  Name = 25102779
REMARK  5 active torsions:
REMARK  status: ('A' for Active; 'I' for Inactive)
REMARK    1  A    between atoms: C_2  and  C_18
REMARK    2  A    between atoms: C_5  and  O_8
REMARK    3  A    between atoms: O_8  and  C_9
REMARK    4  A    between atoms: C_14  and  C_17
REMARK    5  A    between atoms: C_18  and  C_23
REMARK                            x       y       z     vdW  Elec       q    Type
REMARK                         _______ _______ _______ _____ _____    ______ ____
ROOT
ATOM      1 BR   UNL     1      33.037 -13.071 -25.401  0.00  0.00    -0.046 Br
ATOM      2  C   UNL     1      31.710 -12.020 -21.606  0.00  0.00    -0.016 C 
ATOM      3  C   UNL     1      31.865 -12.125 -22.988  0.00  0.00    +0.006 C 
ATOM      4  C   UNL     1      32.545 -12.742 -20.754  0.00  0.00    -0.001 C 
ATOM      5  C   UNL     1      33.689 -13.676 -22.666  0.00  0.00    +0.151 C 
ATOM      6  C   UNL     1      32.855 -12.953 -23.518  0.00  0.00    +0.069 C 
ATOM      7  C   UNL     1      33.534 -13.571 -21.283  0.00  0.00    +0.038 C 
ENDROOT
BRANCH   5   8
ATOM      8  O   UNL     1      34.666 -14.494 -23.151  0.00  0.00    -0.453 OA
BRANCH   8   9
ATOM      9  C   UNL     1      34.444 -15.860 -23.100  0.00  0.00    +0.146 C 
ATOM     10  C   UNL     1      34.887 -18.014 -22.102  0.00  0.00    -0.018 C 
ATOM     11  C   UNL     1      35.110 -16.639 -22.154  0.00  0.00    +0.033 C 
ATOM     12  C   UNL     1      33.555 -16.455 -23.994  0.00  0.00    +0.048 C 
ATOM     13  C   UNL     1      33.998 -18.611 -22.996  0.00  0.00    +0.006 C 
ATOM     14  C   UNL     1      33.332 -17.832 -23.941  0.00  0.00    +0.071 C 
ATOM     15  C   UNL     1      35.599 -18.847 -21.090  0.00  0.00    +0.031 C 
BRANCH  14  17
ATOM     16  N   UNL     1      31.681 -18.940 -25.600  0.00  0.00    -0.191 NA
ATOM     17  C   UNL     1      32.421 -18.443 -24.857  0.00  0.00    +0.101 C 
ENDBRANCH  14  17
ENDBRANCH   8   9
ENDBRANCH   5   8
BRANCH   2  18
ATOM     18  C   UNL     1      30.632 -11.115 -21.026  0.00  0.00    +0.070 C 
BRANCH  18  23
ATOM     19  N   UNL     1      31.423  -9.700 -19.144  0.00  0.00    -0.231 N 
ATOM     20  N   UNL     1      31.867  -8.473 -18.799  0.00  0.00    -0.126 NA
ATOM     21  N   UNL     1      32.215  -6.513 -20.187  0.00  0.00    -0.103 NA
ATOM     22  N   UNL     1      32.096  -6.119 -21.486  0.00  0.00    -0.107 NA
ATOM     23  C   UNL     1      31.131  -9.843 -20.473  0.00  0.00    +0.057 C 
ATOM     24  C   UNL     1      31.405  -8.622 -21.026  0.00  0.00    +0.078 C 
ATOM     25  C   UNL     1      31.859  -7.804 -19.957  0.00  0.00    +0.072 C 
ATOM     26  C   UNL     1      31.261  -8.286 -22.355  0.00  0.00    +0.031 C 
ATOM     27  C   UNL     1      31.649  -6.958 -22.488  0.00  0.00    +0.110 C 
ATOM     28  H   UNL     1      31.317 -10.430 -18.492  0.00  0.00    +0.175 HD
ENDBRANCH  18  23
ENDBRANCH   2  18
TORSDOF 5
ENDMDL
MODEL 6
REMARK VINA RESULT:     -11.1      5.838      9.228
REMARK  Name = 25102779
REMARK  5 active torsions:
REMARK  status: ('A' for Active; 'I' for Inactive)
REMARK    1  A    between atoms: C_2  and  C_18
REMARK    2  A    between atoms: C_5  and  O_8
REMARK    3  A    between atoms: O_8  and  C_9
REMARK    4  A    between atoms: C_14  and  C_17
REMARK    5  A    between atoms: C_18  and  C_23
REMARK                            x       y       z     vdW  Elec       q    Type
REMARK                         _______ _______ _______ _____ _____    ______ ____
ROOT
ATOM      1 BR   UNL     1      36.572 -21.881 -17.231  0.00  0.00    -0.046 Br
ATOM      2  C   UNL     1      34.912 -19.484 -20.191  0.00  0.00    -0.016 C 
ATOM      3  C   UNL     1      35.754 -20.013 -19.213  0.00  0.00    +0.006 C 
ATOM      4  C   UNL     1      33.720 -20.134 -20.510  0.00  0.00    -0.001 C 
ATOM      5  C   UNL     1      34.212 -21.841 -18.874  0.00  0.00    +0.151 C 
ATOM      6  C   UNL     1      35.404 -21.191 -18.554  0.00  0.00    +0.069 C 
ATOM      7  C   UNL     1      33.370 -21.312 -19.852  0.00  0.00    +0.038 C 
ENDROOT
BRANCH   5   8
ATOM      8  O   UNL     1      33.840 -22.995 -18.248  0.00  0.00    -0.453 OA
BRANCH   8   9
ATOM      9  C   UNL     1      33.074 -22.885 -17.101  0.00  0.00    +0.146 C 
ATOM     10  C   UNL     1      30.962 -22.397 -16.035  0.00  0.00    -0.018 C 
ATOM     11  C   UNL     1      31.734 -22.508 -17.190  0.00  0.00    +0.033 C 
ATOM     12  C   UNL     1      33.643 -23.149 -15.855  0.00  0.00    +0.048 C 
ATOM     13  C   UNL     1      31.530 -22.662 -14.788  0.00  0.00    +0.006 C 
ATOM     14  C   UNL     1      32.870 -23.038 -14.698  0.00  0.00    +0.071 C 
ATOM     15  C   UNL     1      29.529 -21.995 -16.132  0.00  0.00    +0.031 C 
BRANCH  14  17
ATOM     16  N   UNL     1      33.925 -23.528 -12.385  0.00  0.00    -0.191 NA
ATOM     17  C   UNL     1      33.452 -23.309 -13.422  0.00  0.00    +0.101 C 
ENDBRANCH  14  17
ENDBRANCH   8   9
ENDBRANCH   5   8
BRANCH   2  18
ATOM     18  C   UNL     1      35.292 -18.197 -20.910  0.00  0.00    +0.070 C 
BRANCH  18  23
ATOM     19  N   UNL     1      34.286 -19.080 -23.003  0.00  0.00    -0.231 N 
ATOM     20  N   UNL     1      33.710 -18.742 -24.176  0.00  0.00    -0.126 NA
ATOM     21  N   UNL     1      33.234 -16.542 -25.083  0.00  0.00    -0.103 NA
ATOM     22  N   UNL     1      33.371 -15.226 -24.756  0.00  0.00    -0.107 NA
ATOM     23  C   UNL     1      34.649 -18.015 -22.223  0.00  0.00    +0.057 C 
ATOM     24  C   UNL     1      34.281 -16.912 -22.943  0.00  0.00    +0.078 C 
ATOM     25  C   UNL     1      33.704 -17.405 -24.144  0.00  0.00    +0.072 C 
ATOM     26  C   UNL     1      34.449 -15.600 -22.555  0.00  0.00    +0.031 C 
ATOM     27  C   UNL     1      33.941 -14.801 -23.573  0.00  0.00    +0.110 C 
ATOM     28  H   UNL     1      34.434 -20.014 -22.732  0.00  0.00    +0.175 HD
ENDBRANCH  18  23
ENDBRANCH   2  18
TORSDOF 5
ENDMDL
MODEL 7
REMARK VINA RESULT:     -10.5     11.094     14.160
REMARK  Name = 25102779
REMARK  5 active torsions:
REMARK  status: ('A' for Active; 'I' for Inactive)
REMARK    1  A    between atoms: C_2  and  C_18
REMARK    2  A    between atoms: C_5  and  O_8
REMARK    3  A    between atoms: O_8  and  C_9
REMARK    4  A    between atoms: C_14  and  C_17
REMARK    5  A    between atoms: C_18  and  C_23
REMARK                            x       y       z     vdW  Elec       q    Type
REMARK                         _______ _______ _______ _____ _____    ______ ____
ROOT
ATOM      1 BR   UNL     1      33.327 -21.185 -19.458  0.00  0.00    -0.046 Br
ATOM      2  C   UNL     1      35.387 -22.458 -16.081  0.00  0.00    -0.016 C 
ATOM      3  C   UNL     1      35.061 -21.932 -17.331  0.00  0.00    +0.006 C 
ATOM      4  C   UNL     1      34.383 -22.959 -15.253  0.00  0.00    -0.001 C 
ATOM      5  C   UNL     1      32.728 -22.409 -16.925  0.00  0.00    +0.151 C 
ATOM      6  C   UNL     1      33.732 -21.907 -17.753  0.00  0.00    +0.069 C 
ATOM      7  C   UNL     1      33.054 -22.935 -15.675  0.00  0.00    +0.038 C 
ENDROOT
BRANCH   5   8
ATOM      8  O   UNL     1      31.419 -22.400 -17.307  0.00  0.00    -0.453 OA
BRANCH   8   9
ATOM      9  C   UNL     1      30.471 -22.739 -16.358  0.00  0.00    +0.146 C 
ATOM     10  C   UNL     1      29.872 -23.883 -14.317  0.00  0.00    -0.018 C 
ATOM     11  C   UNL     1      30.826 -23.541 -15.274  0.00  0.00    +0.033 C 
ATOM     12  C   UNL     1      29.161 -22.279 -16.486  0.00  0.00    +0.048 C 
ATOM     13  C   UNL     1      28.561 -23.424 -14.444  0.00  0.00    +0.006 C 
ATOM     14  C   UNL     1      28.205 -22.622 -15.528  0.00  0.00    +0.071 C 
ATOM     15  C   UNL     1      30.252 -24.742 -13.158  0.00  0.00    +0.031 C 
BRANCH  14  17
ATOM     16  N   UNL     1      25.771 -21.770 -15.764  0.00  0.00    -0.191 NA
ATOM     17  C   UNL     1      26.863 -22.151 -15.658  0.00  0.00    +0.101 C 
ENDBRANCH  14  17
ENDBRANCH   8   9
ENDBRANCH   5   8
BRANCH   2  18
ATOM     18  C   UNL     1      36.837 -22.487 -15.620  0.00  0.00    +0.070 C 
BRANCH  18  23
ATOM     19  N   UNL     1      37.659 -24.753 -15.019  0.00  0.00    -0.231 N 
ATOM     20  N   UNL     1      37.885 -25.608 -13.999  0.00  0.00    -0.126 NA
ATOM     21  N   UNL     1      37.518 -25.303 -11.620  0.00  0.00    -0.103 NA
ATOM     22  N   UNL     1      37.061 -24.362 -10.747  0.00  0.00    -0.107 NA
ATOM     23  C   UNL     1      37.148 -23.542 -14.639  0.00  0.00    +0.057 C 
ATOM     24  C   UNL     1      37.036 -23.621 -13.278  0.00  0.00    +0.078 C 
ATOM     25  C   UNL     1      37.503 -24.915 -12.922  0.00  0.00    +0.072 C 
ATOM     26  C   UNL     1      36.562 -22.628 -12.447  0.00  0.00    +0.031 C 
ATOM     27  C   UNL     1      36.618 -23.117 -11.147  0.00  0.00    +0.110 C 
ATOM     28  H   UNL     1      37.845 -24.983 -15.958  0.00  0.00    +0.175 HD
ENDBRANCH  18  23
ENDBRANCH   2  18
TORSDOF 5
ENDMDL
MODEL 8
REMARK VINA RESULT:     -10.4      3.239      9.374
REMARK  Name = 25102779
REMARK  5 active torsions:
REMARK  status: ('A' for Active; 'I' for Inactive)
REMARK    1  A    between atoms: C_2  and  C_18
REMARK    2  A    between atoms: C_5  and  O_8
REMARK    3  A    between atoms: O_8  and  C_9
REMARK    4  A    between atoms: C_14  and  C_17
REMARK    5  A    between atoms: C_18  and  C_23
REMARK                            x       y       z     vdW  Elec       q    Type
REMARK                         _______ _______ _______ _____ _____    ______ ____
ROOT
ATOM      1 BR   UNL     1      30.409 -10.593 -20.615  0.00  0.00    -0.046 Br
ATOM      2  C   UNL     1      33.358 -12.825 -22.510  0.00  0.00    -0.016 C 
ATOM      3  C   UNL     1      32.394 -12.371 -21.610  0.00  0.00    +0.006 C 
ATOM      4  C   UNL     1      33.640 -12.088 -23.660  0.00  0.00    -0.001 C 
ATOM      5  C   UNL     1      31.995 -10.443 -23.010  0.00  0.00    +0.151 C 
ATOM      6  C   UNL     1      31.713 -11.180 -21.860  0.00  0.00    +0.069 C 
ATOM      7  C   UNL     1      32.959 -10.897 -23.910  0.00  0.00    +0.038 C 
ENDROOT
BRANCH   5   8
ATOM      8  O   UNL     1      31.348  -9.275 -23.284  0.00  0.00    -0.453 OA
BRANCH   8   9
ATOM      9  C   UNL     1      31.978  -8.093 -22.931  0.00  0.00    +0.146 C 
ATOM     10  C   UNL     1      33.319  -6.177 -23.534  0.00  0.00    -0.018 C 
ATOM     11  C   UNL     1      32.684  -7.367 -23.889  0.00  0.00    +0.033 C 
ATOM     12  C   UNL     1      31.906  -7.631 -21.617  0.00  0.00    +0.048 C 
ATOM     13  C   UNL     1      33.248  -5.714 -22.220  0.00  0.00    +0.006 C 
ATOM     14  C   UNL     1      32.542  -6.440 -21.262  0.00  0.00    +0.071 C 
ATOM     15  C   UNL     1      34.074  -5.401 -24.560  0.00  0.00    +0.031 C 
BRANCH  14  17
ATOM     16  N   UNL     1      32.409  -5.580 -18.823  0.00  0.00    -0.191 NA
ATOM     17  C   UNL     1      32.469  -5.966 -19.917  0.00  0.00    +0.101 C 
ENDBRANCH  14  17
ENDBRANCH   8   9
ENDBRANCH   5   8
BRANCH   2  18
ATOM     18  C   UNL     1      34.103 -14.125 -22.237  0.00  0.00    +0.070 C 
BRANCH  18  23
ATOM     19  N   UNL     1      33.146 -14.982 -24.363  0.00  0.00    -0.231 N 
ATOM     20  N   UNL     1      32.953 -16.084 -25.119  0.00  0.00    -0.126 NA
ATOM     21  N   UNL     1      33.606 -18.382 -24.691  0.00  0.00    -0.103 NA
ATOM     22  N   UNL     1      34.244 -19.126 -23.745  0.00  0.00    -0.107 NA
ATOM     23  C   UNL     1      33.807 -15.212 -23.188  0.00  0.00    +0.057 C 
ATOM     24  C   UNL     1      34.059 -16.556 -23.184  0.00  0.00    +0.078 C 
ATOM     25  C   UNL     1      33.515 -17.058 -24.396  0.00  0.00    +0.072 C 
ATOM     26  C   UNL     1      34.712 -17.254 -22.190  0.00  0.00    +0.031 C 
ATOM     27  C   UNL     1      34.755 -18.586 -22.582  0.00  0.00    +0.110 C 
ATOM     28  H   UNL     1      32.835 -14.089 -24.635  0.00  0.00    +0.175 HD
ENDBRANCH  18  23
ENDBRANCH   2  18
TORSDOF 5
ENDMDL
MODEL 9
REMARK VINA RESULT:     -10.3      3.845      5.959
REMARK  Name = 25102779
REMARK  5 active torsions:
REMARK  status: ('A' for Active; 'I' for Inactive)
REMARK    1  A    between atoms: C_2  and  C_18
REMARK    2  A    between atoms: C_5  and  O_8
REMARK    3  A    between atoms: O_8  and  C_9
REMARK    4  A    between atoms: C_14  and  C_17
REMARK    5  A    between atoms: C_18  and  C_23
REMARK                            x       y       z     vdW  Elec       q    Type
REMARK                         _______ _______ _______ _____ _____    ______ ____
ROOT
ATOM      1 BR   UNL     1      31.236  -9.643 -18.769  0.00  0.00    -0.046 Br
ATOM      2  C   UNL     1      32.300  -7.067 -21.851  0.00  0.00    -0.016 C 
ATOM      3  C   UNL     1      32.059  -7.623 -20.595  0.00  0.00    +0.006 C 
ATOM      4  C   UNL     1      32.033  -7.805 -23.004  0.00  0.00    -0.001 C 
ATOM      5  C   UNL     1      31.285  -9.657 -21.645  0.00  0.00    +0.151 C 
ATOM      6  C   UNL     1      31.552  -8.918 -20.492  0.00  0.00    +0.069 C 
ATOM      7  C   UNL     1      31.526  -9.101 -22.901  0.00  0.00    +0.038 C 
ENDROOT
BRANCH   5   8
ATOM      8  O   UNL     1      30.789 -10.926 -21.579  0.00  0.00    -0.453 OA
BRANCH   8   9
ATOM      9  C   UNL     1      31.635 -11.965 -21.926  0.00  0.00    +0.146 C 
ATOM     10  C   UNL     1      33.136 -13.743 -21.282  0.00  0.00    -0.018 C 
ATOM     11  C   UNL     1      32.284 -12.697 -20.932  0.00  0.00    +0.033 C 
ATOM     12  C   UNL     1      31.838 -12.279 -23.270  0.00  0.00    +0.048 C 
ATOM     13  C   UNL     1      33.340 -14.058 -22.625  0.00  0.00    +0.006 C 
ATOM     14  C   UNL     1      32.691 -13.326 -23.619  0.00  0.00    +0.071 C 
ATOM     15  C   UNL     1      33.831 -14.526 -20.219  0.00  0.00    +0.031 C 
BRANCH  14  17
ATOM     16  N   UNL     1      33.069 -13.911 -26.114  0.00  0.00    -0.191 NA
ATOM     17  C   UNL     1      32.900 -13.648 -24.995  0.00  0.00    +0.101 C 
ENDBRANCH  14  17
ENDBRANCH   8   9
ENDBRANCH   5   8
BRANCH   2  18
ATOM     18  C   UNL     1      32.852  -5.653 -21.965  0.00  0.00    +0.070 C 
BRANCH  18  23
ATOM     19  N   UNL     1      30.909  -4.175 -21.504  0.00  0.00    -0.231 N 
ATOM     20  N   UNL     1      30.078  -3.251 -22.031  0.00  0.00    -0.126 NA
ATOM     21  N   UNL     1      30.040  -2.308 -24.267  0.00  0.00    -0.103 NA
ATOM     22  N   UNL     1      30.710  -2.400 -25.449  0.00  0.00    -0.107 NA
ATOM     23  C   UNL     1      31.862  -4.639 -22.369  0.00  0.00    +0.057 C 
ATOM     24  C   UNL     1      31.631  -3.966 -23.538  0.00  0.00    +0.078 C 
ATOM     25  C   UNL     1      30.519  -3.118 -23.286  0.00  0.00    +0.072 C 
ATOM     26  C   UNL     1      32.348  -4.105 -24.707  0.00  0.00    +0.031 C 
ATOM     27  C   UNL     1      31.786  -3.243 -25.640  0.00  0.00    +0.110 C 
ATOM     28  H   UNL     1      30.833  -4.491 -20.574  0.00  0.00    +0.175 HD
ENDBRANCH  18  23
ENDBRANCH   2  18
TORSDOF 5
ENDMDL
