MODEL 1
REMARK VINA RESULT:     -12.3      0.000      0.000
REMARK  Name = 650361
REMARK  5 active torsions:
REMARK  status: ('A' for Active; 'I' for Inactive)
REMARK    1  A    between atoms: N_1  and  S_7
REMARK    2  A    between atoms: N_2  and  S_20
REMARK    3  A    between atoms: S_7  and  C_12
REMARK    4  A    between atoms: S_20  and  C_23
REMARK    5  A    between atoms: C_28  and  O_29
REMARK                            x       y       z     vdW  Elec       q    Type
REMARK                         _______ _______ _______ _____ _____    ______ ____
ROOT
ATOM      1  N   UNL     1      35.054 -19.130 -20.825  0.00  0.00    -0.153 NA
ATOM      2  N   UNL     1      33.888 -21.330 -19.422  0.00  0.00    -0.153 NA
ATOM      3  C   UNL     1      35.916 -20.198 -20.239  0.00  0.00    +0.115 C 
ATOM      4  C   UNL     1      33.718 -19.662 -21.226  0.00  0.00    +0.115 C 
ATOM      5  C   UNL     1      35.223 -20.797 -19.021  0.00  0.00    +0.115 C 
ATOM      6  C   UNL     1      33.026 -20.262 -20.009  0.00  0.00    +0.115 C 
ENDROOT
BRANCH   1   7
ATOM      7  S   UNL     1      35.818 -18.121 -21.980  0.00  0.00    +0.063 S 
ATOM      8  O   UNL     1      35.539 -18.628 -23.307  0.00  0.00    -0.153 OA
ATOM      9  O   UNL     1      37.175 -17.859 -21.551  0.00  0.00    -0.153 OA
BRANCH   7  12
ATOM     10  O   UNL     1      33.547 -13.952 -23.808  0.00  0.00    -0.468 OA
ATOM     11  O   UNL     1      32.749 -13.137 -21.161  0.00  0.00    -0.468 OA
ATOM     12  C   UNL     1      34.890 -16.650 -21.762  0.00  0.00    +0.125 C 
ATOM     13  C   UNL     1      34.577 -15.853 -22.863  0.00  0.00    +0.060 C 
ATOM     14  C   UNL     1      34.471 -16.276 -20.485  0.00  0.00    +0.023 C 
ATOM     15  C   UNL     1      33.842 -14.681 -22.685  0.00  0.00    +0.174 C 
ATOM     16  C   UNL     1      33.445 -14.292 -21.404  0.00  0.00    +0.172 C 
ATOM     17  C   UNL     1      33.746 -15.096 -20.305  0.00  0.00    +0.041 C 
ATOM     18  C   UNL     1      32.518 -12.989 -23.563  0.00  0.00    +0.253 C 
ATOM     19  C   UNL     1      32.796 -12.241 -22.275  0.00  0.00    +0.253 C 
ENDBRANCH   7  12
ENDBRANCH   1   7
BRANCH   2  20
ATOM     20  S   UNL     1      33.123 -22.338 -18.267  0.00  0.00    +0.063 S 
ATOM     21  O   UNL     1      33.070 -23.689 -18.783  0.00  0.00    -0.153 OA
ATOM     22  O   UNL     1      31.930 -21.676 -17.785  0.00  0.00    -0.153 OA
BRANCH  20  23
ATOM     23  C   UNL     1      34.328 -22.298 -16.978  0.00  0.00    +0.122 C 
ATOM     24  C   UNL     1      33.956 -22.651 -15.691  0.00  0.00    +0.023 C 
ATOM     25  C   UNL     1      35.626 -21.913 -17.273  0.00  0.00    +0.023 C 
ATOM     26  C   UNL     1      34.908 -22.620 -14.672  0.00  0.00    +0.038 C 
ATOM     27  C   UNL     1      36.577 -21.882 -16.255  0.00  0.00    +0.038 C 
ATOM     28  C   UNL     1      36.218 -22.235 -14.954  0.00  0.00    +0.139 C 
BRANCH  28  29
ATOM     29  O   UNL     1      37.148 -22.204 -13.959  0.00  0.00    -0.471 OA
ATOM     30  C   UNL     1      36.743 -22.680 -12.677  0.00  0.00    +0.252 C 
ENDBRANCH  28  29
ENDBRANCH  20  23
ENDBRANCH   2  20
TORSDOF 5
ENDMDL
MODEL 2
REMARK VINA RESULT:     -12.0      0.600      9.137
REMARK  Name = 650361
REMARK  5 active torsions:
REMARK  status: ('A' for Active; 'I' for Inactive)
REMARK    1  A    between atoms: N_1  and  S_7
REMARK    2  A    between atoms: N_2  and  S_20
REMARK    3  A    between atoms: S_7  and  C_12
REMARK    4  A    between atoms: S_20  and  C_23
REMARK    5  A    between atoms: C_28  and  O_29
REMARK                            x       y       z     vdW  Elec       q    Type
REMARK                         _______ _______ _______ _____ _____    ______ ____
ROOT
ATOM      1  N   UNL     1      33.868 -21.315 -19.429  0.00  0.00    -0.153 NA
ATOM      2  N   UNL     1      35.057 -19.122 -20.823  0.00  0.00    -0.153 NA
ATOM      3  C   UNL     1      35.224 -20.820 -19.048  0.00  0.00    +0.115 C 
ATOM      4  C   UNL     1      33.019 -20.219 -19.982  0.00  0.00    +0.115 C 
ATOM      5  C   UNL     1      35.906 -20.219 -20.272  0.00  0.00    +0.115 C 
ATOM      6  C   UNL     1      33.701 -19.617 -21.204  0.00  0.00    +0.115 C 
ENDROOT
BRANCH   1   7
ATOM      7  S   UNL     1      33.104 -22.323 -18.273  0.00  0.00    +0.063 S 
ATOM      8  O   UNL     1      33.015 -23.667 -18.805  0.00  0.00    -0.153 OA
ATOM      9  O   UNL     1      31.933 -21.645 -17.760  0.00  0.00    -0.153 OA
BRANCH   7  12
ATOM     10  O   UNL     1      34.767 -23.670 -13.659  0.00  0.00    -0.468 OA
ATOM     11  O   UNL     1      37.230 -22.221 -14.043  0.00  0.00    -0.468 OA
ATOM     12  C   UNL     1      34.323 -22.324 -17.015  0.00  0.00    +0.125 C 
ATOM     13  C   UNL     1      34.082 -22.987 -15.811  0.00  0.00    +0.060 C 
ATOM     14  C   UNL     1      35.530 -21.655 -17.215  0.00  0.00    +0.023 C 
ATOM     15  C   UNL     1      35.053 -22.982 -14.810  0.00  0.00    +0.174 C 
ATOM     16  C   UNL     1      36.251 -22.290 -15.000  0.00  0.00    +0.172 C 
ATOM     17  C   UNL     1      36.497 -21.639 -16.209  0.00  0.00    +0.041 C 
ATOM     18  C   UNL     1      35.937 -23.891 -12.866  0.00  0.00    +0.253 C 
ATOM     19  C   UNL     1      36.746 -22.614 -12.755  0.00  0.00    +0.253 C 
ENDBRANCH   7  12
ENDBRANCH   1   7
BRANCH   2  20
ATOM     20  S   UNL     1      35.821 -18.115 -21.980  0.00  0.00    +0.063 S 
ATOM     21  O   UNL     1      35.536 -18.620 -23.306  0.00  0.00    -0.153 OA
ATOM     22  O   UNL     1      37.180 -17.860 -21.555  0.00  0.00    -0.153 OA
BRANCH  20  23
ATOM     23  C   UNL     1      34.893 -16.630 -21.757  0.00  0.00    +0.122 C 
ATOM     24  C   UNL     1      34.487 -16.270 -20.482  0.00  0.00    +0.023 C 
ATOM     25  C   UNL     1      34.585 -15.850 -22.859  0.00  0.00    +0.023 C 
ATOM     26  C   UNL     1      33.753 -15.096 -20.306  0.00  0.00    +0.038 C 
ATOM     27  C   UNL     1      33.851 -14.678 -22.683  0.00  0.00    +0.038 C 
ATOM     28  C   UNL     1      33.435 -14.301 -21.406  0.00  0.00    +0.139 C 
BRANCH  28  29
ATOM     29  O   UNL     1      32.719 -13.155 -21.234  0.00  0.00    -0.471 OA
ATOM     30  C   UNL     1      32.390 -12.414 -22.407  0.00  0.00    +0.252 C 
ENDBRANCH  28  29
ENDBRANCH  20  23
ENDBRANCH   2  20
TORSDOF 5
ENDMDL
MODEL 3
REMARK VINA RESULT:     -11.7      3.177      6.135
REMARK  Name = 650361
REMARK  5 active torsions:
REMARK  status: ('A' for Active; 'I' for Inactive)
REMARK    1  A    between atoms: N_1  and  S_7
REMARK    2  A    between atoms: N_2  and  S_20
REMARK    3  A    between atoms: S_7  and  C_12
REMARK    4  A    between atoms: S_20  and  C_23
REMARK    5  A    between atoms: C_28  and  O_29
REMARK                            x       y       z     vdW  Elec       q    Type
REMARK                         _______ _______ _______ _____ _____    ______ ____
ROOT
ATOM      1  N   UNL     1      33.833 -23.108 -16.546  0.00  0.00    -0.153 NA
ATOM      2  N   UNL     1      34.707 -23.159 -13.825  0.00  0.00    -0.153 NA
ATOM      3  C   UNL     1      33.028 -23.811 -15.504  0.00  0.00    +0.115 C 
ATOM      4  C   UNL     1      34.589 -21.956 -15.971  0.00  0.00    +0.115 C 
ATOM      5  C   UNL     1      33.953 -24.311 -14.401  0.00  0.00    +0.115 C 
ATOM      6  C   UNL     1      35.513 -22.456 -14.867  0.00  0.00    +0.115 C 
ENDROOT
BRANCH   1   7
ATOM      7  S   UNL     1      33.012 -22.787 -18.015  0.00  0.00    +0.063 S 
ATOM      8  O   UNL     1      31.755 -22.134 -17.719  0.00  0.00    -0.153 OA
ATOM      9  O   UNL     1      33.062 -23.968 -18.849  0.00  0.00    -0.153 OA
BRANCH   7  12
ATOM     10  O   UNL     1      33.936 -18.883 -21.142  0.00  0.00    -0.468 OA
ATOM     11  O   UNL     1      36.712 -18.824 -20.369  0.00  0.00    -0.468 OA
ATOM     12  C   UNL     1      34.087 -21.590 -18.709  0.00  0.00    +0.125 C 
ATOM     13  C   UNL     1      33.610 -20.696 -19.668  0.00  0.00    +0.060 C 
ATOM     14  C   UNL     1      35.422 -21.536 -18.307  0.00  0.00    +0.023 C 
ATOM     15  C   UNL     1      34.469 -19.747 -20.222  0.00  0.00    +0.174 C 
ATOM     16  C   UNL     1      35.812 -19.711 -19.839  0.00  0.00    +0.172 C 
ATOM     17  C   UNL     1      36.286 -20.595 -18.870  0.00  0.00    +0.041 C 
ATOM     18  C   UNL     1      34.789 -17.758 -21.375  0.00  0.00    +0.253 C 
ATOM     19  C   UNL     1      36.221 -18.216 -21.567  0.00  0.00    +0.253 C 
ENDBRANCH   7  12
ENDBRANCH   1   7
BRANCH   2  20
ATOM     20  S   UNL     1      35.530 -23.480 -12.357  0.00  0.00    +0.063 S 
ATOM     21  O   UNL     1      34.730 -24.384 -11.557  0.00  0.00    -0.153 OA
ATOM     22  O   UNL     1      36.018 -22.233 -11.810  0.00  0.00    -0.153 OA
BRANCH  20  23
ATOM     23  C   UNL     1      36.915 -24.385 -12.971  0.00  0.00    +0.122 C 
ATOM     24  C   UNL     1      38.183 -23.836 -12.870  0.00  0.00    +0.023 C 
ATOM     25  C   UNL     1      36.713 -25.629 -13.546  0.00  0.00    +0.023 C 
ATOM     26  C   UNL     1      39.278 -24.551 -13.355  0.00  0.00    +0.038 C 
ATOM     27  C   UNL     1      37.807 -26.344 -14.031  0.00  0.00    +0.038 C 
ATOM     28  C   UNL     1      39.090 -25.804 -13.936  0.00  0.00    +0.139 C 
BRANCH  28  29
ATOM     29  O   UNL     1      40.158 -26.503 -14.410  0.00  0.00    -0.471 OA
ATOM     30  C   UNL     1      41.139 -26.913 -13.459  0.00  0.00    +0.252 C 
ENDBRANCH  28  29
ENDBRANCH  20  23
ENDBRANCH   2  20
TORSDOF 5
ENDMDL
MODEL 4
REMARK VINA RESULT:     -11.7      4.463      8.396
REMARK  Name = 650361
REMARK  5 active torsions:
REMARK  status: ('A' for Active; 'I' for Inactive)
REMARK    1  A    between atoms: N_1  and  S_7
REMARK    2  A    between atoms: N_2  and  S_20
REMARK    3  A    between atoms: S_7  and  C_12
REMARK    4  A    between atoms: S_20  and  C_23
REMARK    5  A    between atoms: C_28  and  O_29
REMARK                            x       y       z     vdW  Elec       q    Type
REMARK                         _______ _______ _______ _____ _____    ______ ____
ROOT
ATOM      1  N   UNL     1      32.156 -11.934 -22.061  0.00  0.00    -0.153 NA
ATOM      2  N   UNL     1      33.056 -14.260 -23.456  0.00  0.00    -0.153 NA
ATOM      3  C   UNL     1      31.488 -12.367 -23.323  0.00  0.00    +0.115 C 
ATOM      4  C   UNL     1      32.720 -13.096 -21.312  0.00  0.00    +0.115 C 
ATOM      5  C   UNL     1      32.494 -13.098 -24.204  0.00  0.00    +0.115 C 
ATOM      6  C   UNL     1      33.725 -13.828 -22.193  0.00  0.00    +0.115 C 
ENDROOT
BRANCH   1   7
ATOM      7  S   UNL     1      31.279 -10.808 -21.114  0.00  0.00    +0.063 S 
ATOM      8  O   UNL     1      31.749 -10.875 -19.746  0.00  0.00    -0.153 OA
ATOM      9  O   UNL     1      29.871 -10.927 -21.426  0.00  0.00    -0.153 OA
BRANCH   7  12
ATOM     10  O   UNL     1      31.185  -5.739 -21.527  0.00  0.00    -0.468 OA
ATOM     11  O   UNL     1      33.238  -5.792 -23.549  0.00  0.00    -0.468 OA
ATOM     12  C   UNL     1      31.860  -9.307 -21.807  0.00  0.00    +0.125 C 
ATOM     13  C   UNL     1      31.298  -8.093 -21.413  0.00  0.00    +0.060 C 
ATOM     14  C   UNL     1      32.881  -9.330 -22.758  0.00  0.00    +0.023 C 
ATOM     15  C   UNL     1      31.761  -6.900 -21.970  0.00  0.00    +0.174 C 
ATOM     16  C   UNL     1      32.764  -6.925 -22.942  0.00  0.00    +0.172 C 
ATOM     17  C   UNL     1      33.335  -8.138 -23.326  0.00  0.00    +0.041 C 
ATOM     18  C   UNL     1      31.955  -4.589 -21.890  0.00  0.00    +0.253 C 
ATOM     19  C   UNL     1      32.370  -4.673 -23.345  0.00  0.00    +0.253 C 
ENDBRANCH   7  12
ENDBRANCH   1   7
BRANCH   2  20
ATOM     20  S   UNL     1      33.935 -15.386 -24.402  0.00  0.00    +0.063 S 
ATOM     21  O   UNL     1      35.220 -14.813 -24.743  0.00  0.00    -0.153 OA
ATOM     22  O   UNL     1      33.062 -15.922 -25.425  0.00  0.00    -0.153 OA
BRANCH  20  23
ATOM     23  C   UNL     1      34.208 -16.651 -23.202  0.00  0.00    +0.122 C 
ATOM     24  C   UNL     1      33.855 -17.956 -23.500  0.00  0.00    +0.023 C 
ATOM     25  C   UNL     1      34.771 -16.317 -21.980  0.00  0.00    +0.023 C 
ATOM     26  C   UNL     1      34.071 -18.956 -22.551  0.00  0.00    +0.038 C 
ATOM     27  C   UNL     1      34.987 -17.316 -21.032  0.00  0.00    +0.038 C 
ATOM     28  C   UNL     1      34.636 -18.636 -21.317  0.00  0.00    +0.139 C 
BRANCH  28  29
ATOM     29  O   UNL     1      34.848 -19.611 -20.391  0.00  0.00    -0.471 OA
ATOM     30  C   UNL     1      33.703 -20.327 -19.929  0.00  0.00    +0.252 C 
ENDBRANCH  28  29
ENDBRANCH  20  23
ENDBRANCH   2  20
TORSDOF 5
ENDMDL
MODEL 5
REMARK VINA RESULT:     -10.5      4.077      7.356
REMARK  Name = 650361
REMARK  5 active torsions:
REMARK  status: ('A' for Active; 'I' for Inactive)
REMARK    1  A    between atoms: N_1  and  S_7
REMARK    2  A    between atoms: N_2  and  S_20
REMARK    3  A    between atoms: S_7  and  C_12
REMARK    4  A    between atoms: S_20  and  C_23
REMARK    5  A    between atoms: C_28  and  O_29
REMARK                            x       y       z     vdW  Elec       q    Type
REMARK                         _______ _______ _______ _____ _____    ______ ____
ROOT
ATOM      1  N   UNL     1      34.564 -22.552 -14.940  0.00  0.00    -0.153 NA
ATOM      2  N   UNL     1      32.115 -23.530 -13.837  0.00  0.00    -0.153 NA
ATOM      3  C   UNL     1      34.572 -23.416 -13.723  0.00  0.00    +0.115 C 
ATOM      4  C   UNL     1      33.404 -22.866 -15.827  0.00  0.00    +0.115 C 
ATOM      5  C   UNL     1      33.273 -23.215 -12.950  0.00  0.00    +0.115 C 
ATOM      6  C   UNL     1      32.106 -22.666 -15.054  0.00  0.00    +0.115 C 
ENDROOT
BRANCH   1   7
ATOM      7  S   UNL     1      36.072 -22.390 -15.735  0.00  0.00    +0.063 S 
ATOM      8  O   UNL     1      36.611 -23.708 -15.996  0.00  0.00    -0.153 OA
ATOM      9  O   UNL     1      36.857 -21.384 -15.052  0.00  0.00    -0.153 OA
BRANCH   7  12
ATOM     10  O   UNL     1      36.603 -19.147 -19.617  0.00  0.00    -0.468 OA
ATOM     11  O   UNL     1      34.182 -20.110 -20.849  0.00  0.00    -0.468 OA
ATOM     12  C   UNL     1      35.541 -21.715 -17.262  0.00  0.00    +0.125 C 
ATOM     13  C   UNL     1      36.266 -20.682 -17.858  0.00  0.00    +0.060 C 
ATOM     14  C   UNL     1      34.390 -22.207 -17.877  0.00  0.00    +0.023 C 
ATOM     15  C   UNL     1      35.838 -20.144 -19.072  0.00  0.00    +0.174 C 
ATOM     16  C   UNL     1      34.670 -20.618 -19.674  0.00  0.00    +0.172 C 
ATOM     17  C   UNL     1      33.954 -21.661 -19.086  0.00  0.00    +0.041 C 
ATOM     18  C   UNL     1      36.281 -18.920 -20.993  0.00  0.00    +0.253 C 
ATOM     19  C   UNL     1      34.778 -18.852 -21.176  0.00  0.00    +0.253 C 
ENDBRANCH   7  12
ENDBRANCH   1   7
BRANCH   2  20
ATOM     20  S   UNL     1      30.605 -23.691 -13.042  0.00  0.00    +0.063 S 
ATOM     21  O   UNL     1      30.439 -22.589 -12.120  0.00  0.00    -0.153 OA
ATOM     22  O   UNL     1      30.451 -25.061 -12.603  0.00  0.00    -0.153 OA
BRANCH  20  23
ATOM     23  C   UNL     1      29.512 -23.428 -14.402  0.00  0.00    +0.122 C 
ATOM     24  C   UNL     1      29.028 -22.153 -14.647  0.00  0.00    +0.023 C 
ATOM     25  C   UNL     1      29.155 -24.501 -15.203  0.00  0.00    +0.023 C 
ATOM     26  C   UNL     1      28.164 -21.945 -15.722  0.00  0.00    +0.038 C 
ATOM     27  C   UNL     1      28.291 -24.293 -16.278  0.00  0.00    +0.038 C 
ATOM     28  C   UNL     1      27.795 -23.015 -16.537  0.00  0.00    +0.139 C 
BRANCH  28  29
ATOM     29  O   UNL     1      26.952 -22.812 -17.587  0.00  0.00    -0.471 OA
ATOM     30  C   UNL     1      26.138 -21.641 -17.549  0.00  0.00    +0.252 C 
ENDBRANCH  28  29
ENDBRANCH  20  23
ENDBRANCH   2  20
TORSDOF 5
ENDMDL
MODEL 6
REMARK VINA RESULT:     -10.4      4.645      7.974
REMARK  Name = 650361
REMARK  5 active torsions:
REMARK  status: ('A' for Active; 'I' for Inactive)
REMARK    1  A    between atoms: N_1  and  S_7
REMARK    2  A    between atoms: N_2  and  S_20
REMARK    3  A    between atoms: S_7  and  C_12
REMARK    4  A    between atoms: S_20  and  C_23
REMARK    5  A    between atoms: C_28  and  O_29
REMARK                            x       y       z     vdW  Elec       q    Type
REMARK                         _______ _______ _______ _____ _____    ______ ____
ROOT
ATOM      1  N   UNL     1      34.641 -23.175 -14.185  0.00  0.00    -0.153 NA
ATOM      2  N   UNL     1      31.998 -23.760 -13.270  0.00  0.00    -0.153 NA
ATOM      3  C   UNL     1      34.428 -23.918 -12.909  0.00  0.00    +0.115 C 
ATOM      4  C   UNL     1      33.542 -23.434 -15.161  0.00  0.00    +0.115 C 
ATOM      5  C   UNL     1      33.097 -23.500 -12.295  0.00  0.00    +0.115 C 
ATOM      6  C   UNL     1      32.211 -23.017 -14.547  0.00  0.00    +0.115 C 
ENDROOT
BRANCH   1   7
ATOM      7  S   UNL     1      36.227 -23.260 -14.828  0.00  0.00    +0.063 S 
ATOM      8  O   UNL     1      36.468 -24.603 -15.313  0.00  0.00    -0.153 OA
ATOM      9  O   UNL     1      37.143 -22.624 -13.906  0.00  0.00    -0.153 OA
BRANCH   7  12
ATOM     10  O   UNL     1      33.695 -21.694 -18.953  0.00  0.00    -0.468 OA
ATOM     11  O   UNL     1      35.726 -19.737 -19.547  0.00  0.00    -0.468 OA
ATOM     12  C   UNL     1      36.048 -22.211 -16.221  0.00  0.00    +0.125 C 
ATOM     13  C   UNL     1      34.947 -22.354 -17.064  0.00  0.00    +0.060 C 
ATOM     14  C   UNL     1      37.012 -21.238 -16.487  0.00  0.00    +0.023 C 
ATOM     15  C   UNL     1      34.809 -21.520 -18.174  0.00  0.00    +0.174 C 
ATOM     16  C   UNL     1      35.788 -20.564 -18.456  0.00  0.00    +0.172 C 
ATOM     17  C   UNL     1      36.882 -20.412 -17.604  0.00  0.00    +0.041 C 
ATOM     18  C   UNL     1      33.480 -20.586 -19.832  0.00  0.00    +0.253 C 
ATOM     19  C   UNL     1      34.778 -20.198 -20.514  0.00  0.00    +0.253 C 
ENDBRANCH   7  12
ENDBRANCH   1   7
BRANCH   2  20
ATOM     20  S   UNL     1      30.412 -23.674 -12.628  0.00  0.00    +0.063 S 
ATOM     21  O   UNL     1      30.279 -22.452 -11.863  0.00  0.00    -0.153 OA
ATOM     22  O   UNL     1      30.069 -24.956 -12.051  0.00  0.00    -0.153 OA
BRANCH  20  23
ATOM     23  C   UNL     1      29.486 -23.481 -14.118  0.00  0.00    +0.122 C 
ATOM     24  C   UNL     1      29.180 -22.207 -14.567  0.00  0.00    +0.023 C 
ATOM     25  C   UNL     1      29.080 -24.608 -14.815  0.00  0.00    +0.023 C 
ATOM     26  C   UNL     1      28.449 -22.056 -15.745  0.00  0.00    +0.038 C 
ATOM     27  C   UNL     1      28.349 -24.456 -15.992  0.00  0.00    +0.038 C 
ATOM     28  C   UNL     1      28.033 -23.179 -16.458  0.00  0.00    +0.139 C 
BRANCH  28  29
ATOM     29  O   UNL     1      27.319 -23.032 -17.608  0.00  0.00    -0.471 OA
ATOM     30  C   UNL     1      26.372 -21.966 -17.651  0.00  0.00    +0.252 C 
ENDBRANCH  28  29
ENDBRANCH  20  23
ENDBRANCH   2  20
TORSDOF 5
ENDMDL
MODEL 7
REMARK VINA RESULT:     -10.1      6.086     13.042
REMARK  Name = 650361
REMARK  5 active torsions:
REMARK  status: ('A' for Active; 'I' for Inactive)
REMARK    1  A    between atoms: N_1  and  S_7
REMARK    2  A    between atoms: N_2  and  S_20
REMARK    3  A    between atoms: S_7  and  C_12
REMARK    4  A    between atoms: S_20  and  C_23
REMARK    5  A    between atoms: C_28  and  O_29
REMARK                            x       y       z     vdW  Elec       q    Type
REMARK                         _______ _______ _______ _____ _____    ______ ____
ROOT
ATOM      1  N   UNL     1      32.624 -10.963 -23.065  0.00  0.00    -0.153 NA
ATOM      2  N   UNL     1      31.863  -8.556 -21.726  0.00  0.00    -0.153 NA
ATOM      3  C   UNL     1      31.333 -10.885 -22.322  0.00  0.00    +0.115 C 
ATOM      4  C   UNL     1      33.023  -9.633 -23.613  0.00  0.00    +0.115 C 
ATOM      5  C   UNL     1      31.466  -9.887 -21.178  0.00  0.00    +0.115 C 
ATOM      6  C   UNL     1      33.155  -8.633 -22.470  0.00  0.00    +0.115 C 
ENDROOT
BRANCH   1   7
ATOM      7  S   UNL     1      32.766 -12.277 -24.156  0.00  0.00    +0.063 S 
ATOM      8  O   UNL     1      33.806 -11.981 -25.118  0.00  0.00    -0.153 OA
ATOM      9  O   UNL     1      31.443 -12.674 -24.587  0.00  0.00    -0.153 OA
BRANCH   7  12
ATOM     10  O   UNL     1      34.691 -16.901 -23.271  0.00  0.00    -0.468 OA
ATOM     11  O   UNL     1      34.736 -16.419 -20.430  0.00  0.00    -0.468 OA
ATOM     12  C   UNL     1      33.374 -13.511 -23.071  0.00  0.00    +0.125 C 
ATOM     13  C   UNL     1      33.793 -14.741 -23.578  0.00  0.00    +0.060 C 
ATOM     14  C   UNL     1      33.432 -13.263 -21.699  0.00  0.00    +0.023 C 
ATOM     15  C   UNL     1      34.273 -15.722 -22.711  0.00  0.00    +0.174 C 
ATOM     16  C   UNL     1      34.306 -15.485 -21.335  0.00  0.00    +0.172 C 
ATOM     17  C   UNL     1      33.900 -14.250 -20.830  0.00  0.00    +0.041 C 
ATOM     18  C   UNL     1      35.471 -17.678 -22.359  0.00  0.00    +0.253 C 
ATOM     19  C   UNL     1      34.797 -17.729 -21.002  0.00  0.00    +0.253 C 
ENDBRANCH   7  12
ENDBRANCH   1   7
BRANCH   2  20
ATOM     20  S   UNL     1      31.723  -7.242 -20.635  0.00  0.00    +0.063 S 
ATOM     21  O   UNL     1      33.040  -6.892 -20.148  0.00  0.00    -0.153 OA
ATOM     22  O   UNL     1      30.636  -7.508 -19.718  0.00  0.00    -0.153 OA
BRANCH  20  23
ATOM     23  C   UNL     1      31.202  -5.974 -21.746  0.00  0.00    +0.122 C 
ATOM     24  C   UNL     1      30.801  -6.317 -23.026  0.00  0.00    +0.023 C 
ATOM     25  C   UNL     1      31.203  -4.656 -21.319  0.00  0.00    +0.023 C 
ATOM     26  C   UNL     1      30.388  -5.314 -23.904  0.00  0.00    +0.038 C 
ATOM     27  C   UNL     1      30.791  -3.654 -22.196  0.00  0.00    +0.038 C 
ATOM     28  C   UNL     1      30.384  -3.983 -23.489  0.00  0.00    +0.139 C 
BRANCH  28  29
ATOM     29  O   UNL     1      29.981  -3.004 -24.346  0.00  0.00    -0.471 OA
ATOM     30  C   UNL     1      30.908  -2.601 -25.353  0.00  0.00    +0.252 C 
ENDBRANCH  28  29
ENDBRANCH  20  23
ENDBRANCH   2  20
TORSDOF 5
ENDMDL
MODEL 8
REMARK VINA RESULT:     -10.0      6.844     10.115
REMARK  Name = 650361
REMARK  5 active torsions:
REMARK  status: ('A' for Active; 'I' for Inactive)
REMARK    1  A    between atoms: N_1  and  S_7
REMARK    2  A    between atoms: N_2  and  S_20
REMARK    3  A    between atoms: S_7  and  C_12
REMARK    4  A    between atoms: S_20  and  C_23
REMARK    5  A    between atoms: C_28  and  O_29
REMARK                            x       y       z     vdW  Elec       q    Type
REMARK                         _______ _______ _______ _____ _____    ______ ____
ROOT
ATOM      1  N   UNL     1      33.912 -22.419 -15.361  0.00  0.00    -0.153 NA
ATOM      2  N   UNL     1      31.619 -23.736 -14.277  0.00  0.00    -0.153 NA
ATOM      3  C   UNL     1      34.013 -23.191 -14.088  0.00  0.00    +0.115 C 
ATOM      4  C   UNL     1      32.864 -22.982 -16.263  0.00  0.00    +0.115 C 
ATOM      5  C   UNL     1      32.666 -23.171 -13.375  0.00  0.00    +0.115 C 
ATOM      6  C   UNL     1      31.518 -22.963 -15.550  0.00  0.00    +0.115 C 
ENDROOT
BRANCH   1   7
ATOM      7  S   UNL     1      35.405 -22.046 -16.115  0.00  0.00    +0.063 S 
ATOM      8  O   UNL     1      35.910 -20.803 -15.570  0.00  0.00    -0.153 OA
ATOM      9  O   UNL     1      35.271 -22.236 -17.543  0.00  0.00    -0.153 OA
BRANCH   7  12
ATOM     10  O   UNL     1      39.857 -23.895 -14.490  0.00  0.00    -0.468 OA
ATOM     11  O   UNL     1      38.705 -26.503 -14.071  0.00  0.00    -0.468 OA
ATOM     12  C   UNL     1      36.396 -23.348 -15.488  0.00  0.00    +0.125 C 
ATOM     13  C   UNL     1      37.751 -23.133 -15.235  0.00  0.00    +0.060 C 
ATOM     14  C   UNL     1      35.830 -24.600 -15.248  0.00  0.00    +0.023 C 
ATOM     15  C   UNL     1      38.538 -24.173 -14.739  0.00  0.00    +0.174 C 
ATOM     16  C   UNL     1      37.977 -25.434 -14.525  0.00  0.00    +0.172 C 
ATOM     17  C   UNL     1      36.620 -25.645 -14.765  0.00  0.00    +0.041 C 
ATOM     18  C   UNL     1      40.469 -24.898 -13.675  0.00  0.00    +0.253 C 
ATOM     19  C   UNL     1      40.113 -26.280 -14.187  0.00  0.00    +0.253 C 
ENDBRANCH   7  12
ENDBRANCH   1   7
BRANCH   2  20
ATOM     20  S   UNL     1      30.125 -24.107 -13.524  0.00  0.00    +0.063 S 
ATOM     21  O   UNL     1      29.977 -23.286 -12.341  0.00  0.00    -0.153 OA
ATOM     22  O   UNL     1      29.978 -25.545 -13.458  0.00  0.00    -0.153 OA
BRANCH  20  23
ATOM     23  C   UNL     1      29.006 -23.500 -14.746  0.00  0.00    +0.122 C 
ATOM     24  C   UNL     1      28.572 -22.186 -14.676  0.00  0.00    +0.023 C 
ATOM     25  C   UNL     1      28.579 -24.347 -15.756  0.00  0.00    +0.023 C 
ATOM     26  C   UNL     1      27.687 -21.707 -15.643  0.00  0.00    +0.038 C 
ATOM     27  C   UNL     1      27.695 -23.868 -16.721  0.00  0.00    +0.038 C 
ATOM     28  C   UNL     1      27.248 -22.548 -16.665  0.00  0.00    +0.139 C 
BRANCH  28  29
ATOM     29  O   UNL     1      26.385 -22.080 -17.608  0.00  0.00    -0.471 OA
ATOM     30  C   UNL     1      25.635 -20.912 -17.279  0.00  0.00    +0.252 C 
ENDBRANCH  28  29
ENDBRANCH  20  23
ENDBRANCH   2  20
TORSDOF 5
ENDMDL
MODEL 9
REMARK VINA RESULT:     -10.0      2.635      4.019
REMARK  Name = 650361
REMARK  5 active torsions:
REMARK  status: ('A' for Active; 'I' for Inactive)
REMARK    1  A    between atoms: N_1  and  S_7
REMARK    2  A    between atoms: N_2  and  S_20
REMARK    3  A    between atoms: S_7  and  C_12
REMARK    4  A    between atoms: S_20  and  C_23
REMARK    5  A    between atoms: C_28  and  O_29
REMARK                            x       y       z     vdW  Elec       q    Type
REMARK                         _______ _______ _______ _____ _____    ______ ____
ROOT
ATOM      1  N   UNL     1      34.530 -16.974 -23.261  0.00  0.00    -0.153 NA
ATOM      2  N   UNL     1      35.051 -18.917 -21.230  0.00  0.00    -0.153 NA
ATOM      3  C   UNL     1      33.797 -18.274 -23.249  0.00  0.00    +0.115 C 
ATOM      4  C   UNL     1      34.909 -16.546 -21.881  0.00  0.00    +0.115 C 
ATOM      5  C   UNL     1      34.673 -19.344 -22.609  0.00  0.00    +0.115 C 
ATOM      6  C   UNL     1      35.784 -17.616 -21.241  0.00  0.00    +0.115 C 
ENDROOT
BRANCH   1   7
ATOM      7  S   UNL     1      33.842 -15.752 -24.244  0.00  0.00    +0.063 S 
ATOM      8  O   UNL     1      32.669 -16.283 -24.906  0.00  0.00    -0.153 OA
ATOM      9  O   UNL     1      34.896 -15.107 -24.998  0.00  0.00    -0.153 OA
BRANCH   7  12
ATOM     10  O   UNL     1      31.421 -11.521 -22.790  0.00  0.00    -0.468 OA
ATOM     11  O   UNL     1      32.111 -11.987 -20.031  0.00  0.00    -0.468 OA
ATOM     12  C   UNL     1      33.301 -14.634 -23.008  0.00  0.00    +0.125 C 
ATOM     13  C   UNL     1      32.575 -13.497 -23.366  0.00  0.00    +0.060 C 
ATOM     14  C   UNL     1      33.601 -14.879 -21.669  0.00  0.00    +0.023 C 
ATOM     15  C   UNL     1      32.148 -12.608 -22.379  0.00  0.00    +0.174 C 
ATOM     16  C   UNL     1      32.473 -12.839 -21.041  0.00  0.00    +0.172 C 
ATOM     17  C   UNL     1      33.186 -13.983 -20.683  0.00  0.00    +0.041 C 
ATOM     18  C   UNL     1      30.751 -10.884 -21.698  0.00  0.00    +0.253 C 
ATOM     19  C   UNL     1      31.701 -10.710 -20.530  0.00  0.00    +0.253 C 
ENDBRANCH   7  12
ENDBRANCH   1   7
BRANCH   2  20
ATOM     20  S   UNL     1      35.740 -20.139 -20.246  0.00  0.00    +0.063 S 
ATOM     21  O   UNL     1      36.586 -19.519 -19.249  0.00  0.00    -0.153 OA
ATOM     22  O   UNL     1      36.241 -21.198 -21.096  0.00  0.00    -0.153 OA
BRANCH  20  23
ATOM     23  C   UNL     1      34.291 -20.732 -19.432  0.00  0.00    +0.122 C 
ATOM     24  C   UNL     1      33.056 -20.214 -19.783  0.00  0.00    +0.023 C 
ATOM     25  C   UNL     1      34.413 -21.707 -18.455  0.00  0.00    +0.023 C 
ATOM     26  C   UNL     1      31.910 -20.683 -19.139  0.00  0.00    +0.038 C 
ATOM     27  C   UNL     1      33.268 -22.176 -17.812  0.00  0.00    +0.038 C 
ATOM     28  C   UNL     1      32.016 -21.664 -18.154  0.00  0.00    +0.139 C 
BRANCH  28  29
ATOM     29  O   UNL     1      30.899 -22.123 -17.526  0.00  0.00    -0.471 OA
ATOM     30  C   UNL     1      31.048 -22.569 -16.179  0.00  0.00    +0.252 C 
ENDBRANCH  28  29
ENDBRANCH  20  23
ENDBRANCH   2  20
TORSDOF 5
ENDMDL
