MODEL 1
REMARK VINA RESULT:     -12.1      0.000      0.000
REMARK  Name = 9842127
REMARK  4 active torsions:
REMARK  status: ('A' for Active; 'I' for Inactive)
REMARK    1  A    between atoms: C_5  and  O_19
REMARK    2  A    between atoms: C_5  and  C_21
REMARK    3  A    between atoms: C_18  and  O_23
REMARK    4  A    between atoms: O_23  and  C_24
REMARK                            x       y       z     vdW  Elec       q    Type
REMARK                         _______ _______ _______ _____ _____    ______ ____
ROOT
ATOM      1  C   UNL     1      35.949 -24.720 -13.793  0.00  0.00    +0.033 C 
ATOM      2  C   UNL     1      36.730 -23.473 -14.259  0.00  0.00    +0.004 C 
ATOM      3  C   UNL     1      36.380 -23.046 -15.687  0.00  0.00    +0.005 C 
ATOM      4  C   UNL     1      34.856 -22.749 -15.783  0.00  0.00    +0.004 C 
ATOM      5  C   UNL     1      36.603 -24.958 -12.397  0.00  0.00    +0.142 C 
ATOM      6  C   UNL     1      34.449 -24.372 -13.811  0.00  0.00    +0.003 C 
ATOM      7  C   UNL     1      38.182 -23.818 -13.939  0.00  0.00    +0.004 C 
ATOM      8  C   UNL     1      33.989 -23.890 -15.199  0.00  0.00    +0.000 C 
ATOM      9  C   UNL     1      38.107 -24.688 -12.667  0.00  0.00    +0.039 C 
ATOM     10  C   UNL     1      34.489 -22.429 -17.262  0.00  0.00    +0.023 C 
ATOM     11  C   UNL     1      37.192 -21.815 -16.121  0.00  0.00    +0.026 C 
ATOM     12  C   UNL     1      36.176 -25.971 -14.691  0.00  0.00    +0.003 C 
ATOM     13  C   UNL     1      35.454 -21.429 -17.891  0.00  0.00    -0.024 C 
ATOM     14  C   UNL     1      33.039 -21.924 -17.400  0.00  0.00    +0.012 C 
ATOM     15  C   UNL     1      36.662 -21.165 -17.363  0.00  0.00    -0.030 C 
ATOM     16  C   UNL     1      32.681 -21.619 -18.860  0.00  0.00    +0.064 C 
ATOM     17  C   UNL     1      35.013 -20.755 -19.100  0.00  0.00    +0.028 C 
ATOM     18  C   UNL     1      33.759 -20.850 -19.566  0.00  0.00    +0.116 C 
ENDROOT
BRANCH   5  19
ATOM     19  O   UNL     1      36.437 -26.294 -11.943  0.00  0.00    -0.375 OA
ATOM     20  H   UNL     1      35.531 -26.417 -11.620  0.00  0.00    +0.211 HD
ENDBRANCH   5  19
BRANCH   5  21
ATOM     21  C   UNL     1      36.112 -24.047 -11.345  0.00  0.00    -0.053 C 
ATOM     22  C   UNL     1      35.714 -23.306 -10.489  0.00  0.00    -0.012 C 
ENDBRANCH   5  21
BRANCH  18  23
ATOM     23  O   UNL     1      33.396 -20.205 -20.732  0.00  0.00    -0.483 OA
BRANCH  23  24
ATOM     24  C   UNL     1      34.452 -19.397 -21.208  0.00  0.00    +0.165 C 
ATOM     25  C   UNL     1      34.273 -17.952 -20.775  0.00  0.00    +0.044 C 
ATOM     26  C   UNL     1      34.445 -19.294 -22.725  0.00  0.00    +0.044 C 
ATOM     27  C   UNL     1      35.139 -17.166 -21.751  0.00  0.00    +0.004 C 
ATOM     28  C   UNL     1      35.237 -18.024 -23.015  0.00  0.00    +0.004 C 
ENDBRANCH  23  24
ENDBRANCH  18  23
TORSDOF 4
ENDMDL
MODEL 2
REMARK VINA RESULT:     -11.2      1.274      2.747
REMARK  Name = 9842127
REMARK  4 active torsions:
REMARK  status: ('A' for Active; 'I' for Inactive)
REMARK    1  A    between atoms: C_5  and  O_19
REMARK    2  A    between atoms: C_5  and  C_21
REMARK    3  A    between atoms: C_18  and  O_23
REMARK    4  A    between atoms: O_23  and  C_24
REMARK                            x       y       z     vdW  Elec       q    Type
REMARK                         _______ _______ _______ _____ _____    ______ ____
ROOT
ATOM      1  C   UNL     1      36.647 -23.055 -14.205  0.00  0.00    +0.033 C 
ATOM      2  C   UNL     1      35.326 -23.574 -14.812  0.00  0.00    +0.004 C 
ATOM      3  C   UNL     1      34.711 -22.606 -15.826  0.00  0.00    +0.005 C 
ATOM      4  C   UNL     1      35.723 -22.345 -16.978  0.00  0.00    +0.004 C 
ATOM      5  C   UNL     1      36.937 -24.175 -13.160  0.00  0.00    +0.142 C 
ATOM      6  C   UNL     1      37.660 -22.890 -15.353  0.00  0.00    +0.003 C 
ATOM      7  C   UNL     1      34.499 -23.968 -13.590  0.00  0.00    +0.004 C 
ATOM      8  C   UNL     1      37.130 -21.960 -16.458  0.00  0.00    +0.000 C 
ATOM      9  C   UNL     1      35.535 -24.463 -12.560  0.00  0.00    +0.039 C 
ATOM     10  C   UNL     1      35.138 -21.272 -17.943  0.00  0.00    +0.023 C 
ATOM     11  C   UNL     1      33.388 -23.148 -16.392  0.00  0.00    +0.026 C 
ATOM     12  C   UNL     1      36.504 -21.688 -13.474  0.00  0.00    +0.003 C 
ATOM     13  C   UNL     1      33.689 -21.565 -18.317  0.00  0.00    -0.024 C 
ATOM     14  C   UNL     1      35.992 -21.114 -19.216  0.00  0.00    +0.012 C 
ATOM     15  C   UNL     1      32.920 -22.412 -17.610  0.00  0.00    -0.030 C 
ATOM     16  C   UNL     1      35.415 -20.050 -20.157  0.00  0.00    +0.064 C 
ATOM     17  C   UNL     1      33.159 -20.889 -19.489  0.00  0.00    +0.028 C 
ATOM     18  C   UNL     1      33.929 -20.177 -20.324  0.00  0.00    +0.116 C 
ENDROOT
BRANCH   5  19
ATOM     19  O   UNL     1      37.812 -23.739 -12.128  0.00  0.00    -0.375 OA
ATOM     20  H   UNL     1      37.505 -24.085 -11.275  0.00  0.00    +0.211 HD
ENDBRANCH   5  19
BRANCH   5  21
ATOM     21  C   UNL     1      37.492 -25.410 -13.747  0.00  0.00    -0.053 C 
ATOM     22  C   UNL     1      37.943 -26.414 -14.226  0.00  0.00    -0.012 C 
ENDBRANCH   5  21
BRANCH  18  23
ATOM     23  O   UNL     1      33.372 -19.536 -21.413  0.00  0.00    -0.483 OA
BRANCH  23  24
ATOM     24  C   UNL     1      34.277 -18.600 -21.960  0.00  0.00    +0.165 C 
ATOM     25  C   UNL     1      34.255 -17.297 -21.178  0.00  0.00    +0.044 C 
ATOM     26  C   UNL     1      33.860 -18.157 -23.354  0.00  0.00    +0.044 C 
ATOM     27  C   UNL     1      34.841 -16.277 -22.145  0.00  0.00    +0.004 C 
ATOM     28  C   UNL     1      34.572 -16.824 -23.549  0.00  0.00    +0.004 C 
ENDBRANCH  23  24
ENDBRANCH  18  23
TORSDOF 4
ENDMDL
MODEL 3
REMARK VINA RESULT:     -11.2      1.769      3.655
REMARK  Name = 9842127
REMARK  4 active torsions:
REMARK  status: ('A' for Active; 'I' for Inactive)
REMARK    1  A    between atoms: C_5  and  O_19
REMARK    2  A    between atoms: C_5  and  C_21
REMARK    3  A    between atoms: C_18  and  O_23
REMARK    4  A    between atoms: O_23  and  C_24
REMARK                            x       y       z     vdW  Elec       q    Type
REMARK                         _______ _______ _______ _____ _____    ______ ____
ROOT
ATOM      1  C   UNL     1      35.302 -22.734 -15.236  0.00  0.00    +0.033 C 
ATOM      2  C   UNL     1      34.185 -23.040 -16.255  0.00  0.00    +0.004 C 
ATOM      3  C   UNL     1      33.980 -21.917 -17.276  0.00  0.00    +0.005 C 
ATOM      4  C   UNL     1      35.307 -21.664 -18.047  0.00  0.00    +0.004 C 
ATOM      5  C   UNL     1      35.176 -23.973 -14.299  0.00  0.00    +0.142 C 
ATOM      6  C   UNL     1      36.621 -22.577 -16.014  0.00  0.00    +0.003 C 
ATOM      7  C   UNL     1      33.003 -23.451 -15.381  0.00  0.00    +0.004 C 
ATOM      8  C   UNL     1      36.520 -21.491 -17.101  0.00  0.00    +0.000 C 
ATOM      9  C   UNL     1      33.641 -24.157 -14.167  0.00  0.00    +0.039 C 
ATOM     10  C   UNL     1      35.124 -20.445 -18.998  0.00  0.00    +0.023 C 
ATOM     11  C   UNL     1      32.847 -22.249 -18.260  0.00  0.00    +0.026 C 
ATOM     12  C   UNL     1      35.058 -21.435 -14.413  0.00  0.00    +0.003 C 
ATOM     13  C   UNL     1      33.834 -20.535 -19.806  0.00  0.00    -0.024 C 
ATOM     14  C   UNL     1      36.329 -20.265 -19.943  0.00  0.00    +0.012 C 
ATOM     15  C   UNL     1      32.824 -21.353 -19.460  0.00  0.00    -0.030 C 
ATOM     16  C   UNL     1      36.146 -19.057 -20.870  0.00  0.00    +0.064 C 
ATOM     17  C   UNL     1      33.733 -19.695 -20.987  0.00  0.00    +0.028 C 
ATOM     18  C   UNL     1      34.771 -18.999 -21.471  0.00  0.00    +0.116 C 
ENDROOT
BRANCH   5  19
ATOM     19  O   UNL     1      35.736 -23.739 -13.013  0.00  0.00    -0.375 OA
ATOM     20  H   UNL     1      35.853 -24.584 -12.552  0.00  0.00    +0.211 HD
ENDBRANCH   5  19
BRANCH   5  21
ATOM     21  C   UNL     1      35.780 -25.202 -14.850  0.00  0.00    -0.053 C 
ATOM     22  C   UNL     1      36.273 -26.201 -15.298  0.00  0.00    -0.012 C 
ENDBRANCH   5  21
BRANCH  18  23
ATOM     23  O   UNL     1      34.618 -18.199 -22.586  0.00  0.00    -0.483 OA
BRANCH  23  24
ATOM     24  C   UNL     1      34.862 -16.844 -22.268  0.00  0.00    +0.165 C 
ATOM     25  C   UNL     1      34.133 -16.442 -20.997  0.00  0.00    +0.044 C 
ATOM     26  C   UNL     1      34.266 -15.905 -23.304  0.00  0.00    +0.044 C 
ATOM     27  C   UNL     1      34.062 -14.923 -21.078  0.00  0.00    +0.004 C 
ATOM     28  C   UNL     1      34.132 -14.577 -22.568  0.00  0.00    +0.004 C 
ENDBRANCH  23  24
ENDBRANCH  18  23
TORSDOF 4
ENDMDL
MODEL 4
REMARK VINA RESULT:      -9.6      6.435     13.254
REMARK  Name = 9842127
REMARK  4 active torsions:
REMARK  status: ('A' for Active; 'I' for Inactive)
REMARK    1  A    between atoms: C_5  and  O_19
REMARK    2  A    between atoms: C_5  and  C_21
REMARK    3  A    between atoms: C_18  and  O_23
REMARK    4  A    between atoms: O_23  and  C_24
REMARK                            x       y       z     vdW  Elec       q    Type
REMARK                         _______ _______ _______ _____ _____    ______ ____
ROOT
ATOM      1  C   UNL     1      31.496  -9.776 -22.326  0.00  0.00    +0.033 C 
ATOM      2  C   UNL     1      32.254 -10.380 -21.125  0.00  0.00    +0.004 C 
ATOM      3  C   UNL     1      32.430 -11.898 -21.230  0.00  0.00    +0.005 C 
ATOM      4  C   UNL     1      33.201 -12.244 -22.535  0.00  0.00    +0.004 C 
ATOM      5  C   UNL     1      31.380  -8.290 -21.868  0.00  0.00    +0.142 C 
ATOM      6  C   UNL     1      32.323 -10.054 -23.595  0.00  0.00    +0.003 C 
ATOM      7  C   UNL     1      31.516  -9.817 -19.914  0.00  0.00    +0.004 C 
ATOM      8  C   UNL     1      32.596 -11.557 -23.784  0.00  0.00    +0.000 C 
ATOM      9  C   UNL     1      31.047  -8.416 -20.358  0.00  0.00    +0.039 C 
ATOM     10  C   UNL     1      33.275 -13.791 -22.693  0.00  0.00    +0.023 C 
ATOM     11  C   UNL     1      33.170 -12.464 -20.007  0.00  0.00    +0.026 C 
ATOM     12  C   UNL     1      30.071 -10.369 -22.528  0.00  0.00    +0.003 C 
ATOM     13  C   UNL     1      33.707 -14.481 -21.403  0.00  0.00    -0.024 C 
ATOM     14  C   UNL     1      34.200 -14.210 -23.853  0.00  0.00    +0.012 C 
ATOM     15  C   UNL     1      33.655 -13.868 -20.207  0.00  0.00    -0.030 C 
ATOM     16  C   UNL     1      34.260 -15.734 -24.008  0.00  0.00    +0.064 C 
ATOM     17  C   UNL     1      34.190 -15.847 -21.513  0.00  0.00    +0.028 C 
ATOM     18  C   UNL     1      34.425 -16.438 -22.692  0.00  0.00    +0.116 C 
ENDROOT
BRANCH   5  19
ATOM     19  O   UNL     1      30.326  -7.601 -22.528  0.00  0.00    -0.375 OA
ATOM     20  H   UNL     1      30.679  -7.135 -23.302  0.00  0.00    +0.211 HD
ENDBRANCH   5  19
BRANCH   5  21
ATOM     21  C   UNL     1      32.622  -7.513 -22.042  0.00  0.00    -0.053 C 
ATOM     22  C   UNL     1      33.632  -6.880 -22.184  0.00  0.00    -0.012 C 
ENDBRANCH   5  21
BRANCH  18  23
ATOM     23  O   UNL     1      34.865 -17.747 -22.743  0.00  0.00    -0.483 OA
BRANCH  23  24
ATOM     24  C   UNL     1      34.876 -18.321 -21.453  0.00  0.00    +0.165 C 
ATOM     25  C   UNL     1      36.275 -18.775 -21.069  0.00  0.00    +0.044 C 
ATOM     26  C   UNL     1      34.082 -19.617 -21.405  0.00  0.00    +0.044 C 
ATOM     27  C   UNL     1      36.040 -19.790 -19.958  0.00  0.00    +0.004 C 
ATOM     28  C   UNL     1      34.632 -20.345 -20.183  0.00  0.00    +0.004 C 
ENDBRANCH  23  24
ENDBRANCH  18  23
TORSDOF 4
ENDMDL
