MODEL 1
REMARK VINA RESULT:     -12.0      0.000      0.000
REMARK  Name = 4615
REMARK  7 active torsions:
REMARK  status: ('A' for Active; 'I' for Inactive)
REMARK    1  A    between atoms: N_1  and  C_9
REMARK    2  A    between atoms: N_2  and  C_22
REMARK    3  A    between atoms: C_9  and  C_10
REMARK    4  A    between atoms: C_9  and  C_16
REMARK    5  A    between atoms: C_22  and  C_23
REMARK    6  A    between atoms: C_23  and  C_24
REMARK    7  A    between atoms: C_24  and  N_26
REMARK                            x       y       z     vdW  Elec       q    Type
REMARK                         _______ _______ _______ _____ _____    ______ ____
ROOT
ATOM      1  N   UNL     1      32.405  -8.419 -23.176  0.00  0.00    +0.390 N 
ATOM      2  N   UNL     1      32.395 -11.209 -22.418  0.00  0.00    +0.384 N 
ATOM      3  C   UNL     1      33.529  -9.303 -23.508  0.00  0.00    -0.100 C 
ATOM      4  C   UNL     1      31.743  -8.873 -21.947  0.00  0.00    -0.100 C 
ATOM      5  C   UNL     1      33.059 -10.755 -23.646  0.00  0.00    -0.101 C 
ATOM      6  C   UNL     1      31.271 -10.324 -22.086  0.00  0.00    -0.101 C 
ATOM      7  H   UNL     1      31.729  -8.458 -23.939  0.00  0.00    -0.079 HD
ATOM      8  H   UNL     1      33.070 -11.171 -21.654  0.00  0.00    -0.080 HD
ENDROOT
BRANCH   1   9
ATOM      9  C   UNL     1      32.855  -7.035 -23.043  0.00  0.00    -0.012 C 
BRANCH   9  10
ATOM     10  C   UNL     1      33.109  -6.376 -24.391  0.00  0.00    -0.038 C 
ATOM     11  C   UNL     1      34.291  -5.691 -24.586  0.00  0.00    -0.006 C 
ATOM     12  C   UNL     1      32.150  -6.482 -25.378  0.00  0.00    -0.006 C 
ATOM     13  C   UNL     1      34.524  -5.087 -25.822  0.00  0.00    -0.000 C 
ATOM     14  C   UNL     1      32.383  -5.878 -26.613  0.00  0.00    -0.000 C 
ATOM     15  C   UNL     1      33.570  -5.181 -26.835  0.00  0.00    -0.000 C 
ENDBRANCH   9  10
BRANCH   9  16
ATOM     16  C   UNL     1      31.924  -6.204 -22.172  0.00  0.00    -0.038 C 
ATOM     17  C   UNL     1      32.312  -5.901 -20.883  0.00  0.00    -0.006 C 
ATOM     18  C   UNL     1      30.721  -5.779 -22.697  0.00  0.00    -0.006 C 
ATOM     19  C   UNL     1      31.459  -5.139 -20.083  0.00  0.00    -0.000 C 
ATOM     20  C   UNL     1      29.868  -5.017 -21.897  0.00  0.00    -0.000 C 
ATOM     21  C   UNL     1      30.237  -4.697 -20.591  0.00  0.00    -0.000 C 
ENDBRANCH   9  16
ENDBRANCH   1   9
BRANCH   2  22
ATOM     22  C   UNL     1      31.944 -12.592 -22.552  0.00  0.00    -0.076 C 
BRANCH  22  23
ATOM     23  C   UNL     1      32.934 -13.581 -21.932  0.00  0.00    +0.002 C 
BRANCH  23  24
ATOM     24  C   UNL     1      34.094 -13.971 -22.846  0.00  0.00    +0.108 C 
BRANCH  24  26
ATOM     25  O   UNL     1      33.104 -14.910 -25.537  0.00  0.00    -0.247 OA
ATOM     26  N   UNL     1      33.968 -15.308 -23.356  0.00  0.00    -0.280 N 
ATOM     27  N   UNL     1      33.539 -17.082 -24.711  0.00  0.00    -0.305 N 
ATOM     28  C   UNL     1      34.299 -16.485 -22.663  0.00  0.00    +0.079 A 
ATOM     29  C   UNL     1      33.486 -15.661 -24.651  0.00  0.00    +0.328 A 
ATOM     30  C   UNL     1      34.033 -17.567 -23.499  0.00  0.00    +0.076 A 
ATOM     31  C   UNL     1      34.802 -16.663 -21.391  0.00  0.00    +0.019 C 
ATOM     32  C   UNL     1      34.253 -18.870 -23.113  0.00  0.00    +0.019 C 
ATOM     33  C   UNL     1      35.034 -17.978 -20.975  0.00  0.00    +0.002 C 
ATOM     34  C   UNL     1      34.762 -19.070 -21.827  0.00  0.00    +0.002 C 
ATOM     35  H   UNL     1      33.270 -17.633 -25.481  0.00  0.00    +0.170 HD
ENDBRANCH  24  26
ENDBRANCH  23  24
ENDBRANCH  22  23
ENDBRANCH   2  22
TORSDOF 7
ENDMDL
MODEL 2
REMARK VINA RESULT:     -11.7      0.674      3.287
REMARK  Name = 4615
REMARK  7 active torsions:
REMARK  status: ('A' for Active; 'I' for Inactive)
REMARK    1  A    between atoms: N_1  and  C_9
REMARK    2  A    between atoms: N_2  and  C_22
REMARK    3  A    between atoms: C_9  and  C_10
REMARK    4  A    between atoms: C_9  and  C_16
REMARK    5  A    between atoms: C_22  and  C_23
REMARK    6  A    between atoms: C_23  and  C_24
REMARK    7  A    between atoms: C_24  and  N_26
REMARK                            x       y       z     vdW  Elec       q    Type
REMARK                         _______ _______ _______ _____ _____    ______ ____
ROOT
ATOM      1  N   UNL     1      31.874  -8.455 -22.784  0.00  0.00    +0.390 N 
ATOM      2  N   UNL     1      31.881 -11.322 -22.411  0.00  0.00    +0.384 N 
ATOM      3  C   UNL     1      30.906  -9.110 -21.897  0.00  0.00    -0.100 C 
ATOM      4  C   UNL     1      32.274  -9.364 -23.866  0.00  0.00    -0.100 C 
ATOM      5  C   UNL     1      31.479 -10.414 -21.330  0.00  0.00    -0.101 C 
ATOM      6  C   UNL     1      32.849 -10.666 -23.299  0.00  0.00    -0.101 C 
ATOM      7  H   UNL     1      32.704  -8.221 -22.238  0.00  0.00    -0.079 HD
ATOM      8  H   UNL     1      31.052 -11.558 -22.958  0.00  0.00    -0.080 HD
ENDROOT
BRANCH   1   9
ATOM      9  C   UNL     1      31.326  -7.214 -23.325  0.00  0.00    -0.012 C 
BRANCH   9  10
ATOM     10  C   UNL     1      31.051  -6.181 -22.241  0.00  0.00    -0.038 C 
ATOM     11  C   UNL     1      31.838  -6.178 -21.107  0.00  0.00    -0.006 C 
ATOM     12  C   UNL     1      30.023  -5.279 -22.423  0.00  0.00    -0.006 C 
ATOM     13  C   UNL     1      31.586  -5.232 -20.114  0.00  0.00    -0.000 C 
ATOM     14  C   UNL     1      29.771  -4.333 -21.430  0.00  0.00    -0.000 C 
ATOM     15  C   UNL     1      30.553  -4.309 -20.276  0.00  0.00    -0.000 C 
ENDBRANCH   9  10
BRANCH   9  16
ATOM     16  C   UNL     1      32.178  -6.643 -24.449  0.00  0.00    -0.038 C 
ATOM     17  C   UNL     1      33.526  -6.446 -24.229  0.00  0.00    -0.006 C 
ATOM     18  C   UNL     1      31.578  -6.338 -25.653  0.00  0.00    -0.006 C 
ATOM     19  C   UNL     1      34.308  -5.923 -25.258  0.00  0.00    -0.000 C 
ATOM     20  C   UNL     1      32.361  -5.814 -26.683  0.00  0.00    -0.000 C 
ATOM     21  C   UNL     1      33.725  -5.607 -26.486  0.00  0.00    -0.000 C 
ENDBRANCH   9  16
ENDBRANCH   1   9
BRANCH   2  22
ATOM     22  C   UNL     1      32.431 -12.563 -21.870  0.00  0.00    -0.076 C 
BRANCH  22  23
ATOM     23  C   UNL     1      32.681 -13.604 -22.964  0.00  0.00    +0.002 C 
BRANCH  23  24
ATOM     24  C   UNL     1      34.050 -14.278 -22.895  0.00  0.00    +0.108 C 
BRANCH  24  26
ATOM     25  O   UNL     1      33.207 -15.418 -25.558  0.00  0.00    -0.247 OA
ATOM     26  N   UNL     1      34.014 -15.646 -23.332  0.00  0.00    -0.280 N 
ATOM     27  N   UNL     1      33.729 -17.513 -24.596  0.00  0.00    -0.305 N 
ATOM     28  C   UNL     1      34.383 -16.763 -22.562  0.00  0.00    +0.079 A 
ATOM     29  C   UNL     1      33.598 -16.096 -24.620  0.00  0.00    +0.328 A 
ATOM     30  C   UNL     1      34.205 -17.902 -23.343  0.00  0.00    +0.076 A 
ATOM     31  C   UNL     1      34.849 -16.842 -21.266  0.00  0.00    +0.019 C 
ATOM     32  C   UNL     1      34.480 -19.168 -22.877  0.00  0.00    +0.019 C 
ATOM     33  C   UNL     1      35.136 -18.117 -20.769  0.00  0.00    +0.002 C 
ATOM     34  C   UNL     1      34.954 -19.267 -21.566  0.00  0.00    +0.002 C 
ATOM     35  H   UNL     1      33.517 -18.121 -25.342  0.00  0.00    +0.170 HD
ENDBRANCH  24  26
ENDBRANCH  23  24
ENDBRANCH  22  23
ENDBRANCH   2  22
TORSDOF 7
ENDMDL
MODEL 3
REMARK VINA RESULT:     -11.6      6.205     14.147
REMARK  Name = 4615
REMARK  7 active torsions:
REMARK  status: ('A' for Active; 'I' for Inactive)
REMARK    1  A    between atoms: N_1  and  C_9
REMARK    2  A    between atoms: N_2  and  C_22
REMARK    3  A    between atoms: C_9  and  C_10
REMARK    4  A    between atoms: C_9  and  C_16
REMARK    5  A    between atoms: C_22  and  C_23
REMARK    6  A    between atoms: C_23  and  C_24
REMARK    7  A    between atoms: C_24  and  N_26
REMARK                            x       y       z     vdW  Elec       q    Type
REMARK                         _______ _______ _______ _____ _____    ______ ____
ROOT
ATOM      1  N   UNL     1      34.127 -22.092 -17.105  0.00  0.00    +0.390 N 
ATOM      2  N   UNL     1      35.371 -21.008 -19.480  0.00  0.00    +0.384 N 
ATOM      3  C   UNL     1      35.587 -22.050 -17.249  0.00  0.00    -0.100 C 
ATOM      4  C   UNL     1      33.486 -22.205 -18.421  0.00  0.00    -0.100 C 
ATOM      5  C   UNL     1      36.012 -20.896 -18.164  0.00  0.00    -0.101 C 
ATOM      6  C   UNL     1      33.910 -21.050 -19.335  0.00  0.00    -0.101 C 
ATOM      7  H   UNL     1      33.821 -21.220 -16.673  0.00  0.00    -0.079 HD
ATOM      8  H   UNL     1      35.676 -21.879 -19.914  0.00  0.00    -0.080 HD
ENDROOT
BRANCH   1   9
ATOM      9  C   UNL     1      33.722 -23.193 -16.234  0.00  0.00    -0.012 C 
BRANCH   9  10
ATOM     10  C   UNL     1      34.769 -23.510 -15.177  0.00  0.00    -0.038 C 
ATOM     11  C   UNL     1      35.163 -24.821 -14.999  0.00  0.00    -0.006 C 
ATOM     12  C   UNL     1      35.294 -22.478 -14.425  0.00  0.00    -0.006 C 
ATOM     13  C   UNL     1      36.122 -25.112 -14.029  0.00  0.00    -0.000 C 
ATOM     14  C   UNL     1      36.253 -22.769 -13.455  0.00  0.00    -0.000 C 
ATOM     15  C   UNL     1      36.667 -24.085 -13.258  0.00  0.00    -0.000 C 
ENDBRANCH   9  10
BRANCH   9  16
ATOM     16  C   UNL     1      32.347 -22.974 -15.622  0.00  0.00    -0.038 C 
ATOM     17  C   UNL     1      32.227 -22.935 -14.248  0.00  0.00    -0.006 C 
ATOM     18  C   UNL     1      31.260 -22.823 -16.460  0.00  0.00    -0.006 C 
ATOM     19  C   UNL     1      30.965 -22.735 -13.687  0.00  0.00    -0.000 C 
ATOM     20  C   UNL     1      29.998 -22.622 -15.898  0.00  0.00    -0.000 C 
ATOM     21  C   UNL     1      29.852 -22.578 -14.512  0.00  0.00    -0.000 C 
ENDBRANCH   9  16
ENDBRANCH   1   9
BRANCH   2  22
ATOM     22  C   UNL     1      35.774 -19.905 -20.349  0.00  0.00    -0.076 C 
BRANCH  22  23
ATOM     23  C   UNL     1      34.584 -19.032 -20.755  0.00  0.00    +0.002 C 
BRANCH  23  24
ATOM     24  C   UNL     1      34.936 -17.571 -21.028  0.00  0.00    +0.108 C 
BRANCH  24  26
ATOM     25  O   UNL     1      34.398 -19.106 -23.569  0.00  0.00    -0.247 OA
ATOM     26  N   UNL     1      34.420 -17.104 -22.284  0.00  0.00    -0.280 N 
ATOM     27  N   UNL     1      33.683 -17.026 -24.434  0.00  0.00    -0.305 N 
ATOM     28  C   UNL     1      34.050 -15.780 -22.578  0.00  0.00    +0.079 A 
ATOM     29  C   UNL     1      34.196 -17.908 -23.441  0.00  0.00    +0.328 A 
ATOM     30  C   UNL     1      33.601 -15.740 -23.897  0.00  0.00    +0.076 A 
ATOM     31  C   UNL     1      34.080 -14.647 -21.793  0.00  0.00    +0.019 C 
ATOM     32  C   UNL     1      33.163 -14.580 -24.493  0.00  0.00    +0.019 C 
ATOM     33  C   UNL     1      33.641 -13.454 -22.376  0.00  0.00    +0.002 C 
ATOM     34  C   UNL     1      33.187 -13.421 -23.712  0.00  0.00    +0.002 C 
ATOM     35  H   UNL     1      33.429 -17.281 -25.350  0.00  0.00    +0.170 HD
ENDBRANCH  24  26
ENDBRANCH  23  24
ENDBRANCH  22  23
ENDBRANCH   2  22
TORSDOF 7
ENDMDL
MODEL 4
REMARK VINA RESULT:     -11.5      6.980     15.034
REMARK  Name = 4615
REMARK  7 active torsions:
REMARK  status: ('A' for Active; 'I' for Inactive)
REMARK    1  A    between atoms: N_1  and  C_9
REMARK    2  A    between atoms: N_2  and  C_22
REMARK    3  A    between atoms: C_9  and  C_10
REMARK    4  A    between atoms: C_9  and  C_16
REMARK    5  A    between atoms: C_22  and  C_23
REMARK    6  A    between atoms: C_23  and  C_24
REMARK    7  A    between atoms: C_24  and  N_26
REMARK                            x       y       z     vdW  Elec       q    Type
REMARK                         _______ _______ _______ _____ _____    ______ ____
ROOT
ATOM      1  N   UNL     1      34.521 -22.762 -16.209  0.00  0.00    +0.390 N 
ATOM      2  N   UNL     1      34.448 -21.201 -18.641  0.00  0.00    +0.384 N 
ATOM      3  C   UNL     1      33.253 -22.460 -16.882  0.00  0.00    -0.100 C 
ATOM      4  C   UNL     1      35.502 -21.698 -16.462  0.00  0.00    -0.100 C 
ATOM      5  C   UNL     1      33.467 -22.262 -18.387  0.00  0.00    -0.101 C 
ATOM      6  C   UNL     1      35.717 -21.503 -17.966  0.00  0.00    -0.101 C 
ATOM      7  H   UNL     1      34.888 -23.634 -16.590  0.00  0.00    -0.079 HD
ATOM      8  H   UNL     1      34.083 -20.327 -18.261  0.00  0.00    -0.080 HD
ENDROOT
BRANCH   1   9
ATOM      9  C   UNL     1      34.316 -22.948 -14.774  0.00  0.00    -0.012 C 
BRANCH   9  10
ATOM     10  C   UNL     1      32.858 -23.205 -14.426  0.00  0.00    -0.038 C 
ATOM     11  C   UNL     1      32.493 -24.452 -13.957  0.00  0.00    -0.006 C 
ATOM     12  C   UNL     1      31.942 -22.186 -14.589  0.00  0.00    -0.006 C 
ATOM     13  C   UNL     1      31.156 -24.688 -13.638  0.00  0.00    -0.000 C 
ATOM     14  C   UNL     1      30.605 -22.422 -14.270  0.00  0.00    -0.000 C 
ATOM     15  C   UNL     1      30.212 -23.673 -13.795  0.00  0.00    -0.000 C 
ENDBRANCH   9  10
BRANCH   9  16
ATOM     16  C   UNL     1      35.235 -24.011 -14.189  0.00  0.00    -0.038 C 
ATOM     17  C   UNL     1      35.669 -23.873 -12.887  0.00  0.00    -0.006 C 
ATOM     18  C   UNL     1      35.608 -25.078 -14.979  0.00  0.00    -0.006 C 
ATOM     19  C   UNL     1      36.512 -24.847 -12.350  0.00  0.00    -0.000 C 
ATOM     20  C   UNL     1      36.451 -26.053 -14.443  0.00  0.00    -0.000 C 
ATOM     21  C   UNL     1      36.902 -25.937 -13.129  0.00  0.00    -0.000 C 
ENDBRANCH   9  16
ENDBRANCH   1   9
BRANCH   2  22
ATOM     22  C   UNL     1      34.655 -21.016 -20.076  0.00  0.00    -0.076 C 
BRANCH  22  23
ATOM     23  C   UNL     1      34.000 -19.731 -20.588  0.00  0.00    +0.002 C 
BRANCH  23  24
ATOM     24  C   UNL     1      34.987 -18.638 -20.993  0.00  0.00    +0.108 C 
BRANCH  24  26
ATOM     25  O   UNL     1      34.450 -19.611 -23.798  0.00  0.00    -0.247 OA
ATOM     26  N   UNL     1      34.551 -17.902 -22.147  0.00  0.00    -0.280 N 
ATOM     27  N   UNL     1      33.905 -17.357 -24.258  0.00  0.00    -0.305 N 
ATOM     28  C   UNL     1      34.279 -16.523 -22.186  0.00  0.00    +0.079 A 
ATOM     29  C   UNL     1      34.321 -18.449 -23.444  0.00  0.00    +0.328 A 
ATOM     30  C   UNL     1      33.885 -16.198 -23.482  0.00  0.00    +0.076 A 
ATOM     31  C   UNL     1      34.352 -15.568 -21.193  0.00  0.00    +0.019 C 
ATOM     32  C   UNL     1      33.547 -14.915 -23.852  0.00  0.00    +0.019 C 
ATOM     33  C   UNL     1      34.014 -14.257 -21.543  0.00  0.00    +0.002 C 
ATOM     34  C   UNL     1      33.615 -13.934 -22.858  0.00  0.00    +0.002 C 
ATOM     35  H   UNL     1      33.671 -17.412 -25.212  0.00  0.00    +0.170 HD
ENDBRANCH  24  26
ENDBRANCH  23  24
ENDBRANCH  22  23
ENDBRANCH   2  22
TORSDOF 7
ENDMDL
MODEL 5
REMARK VINA RESULT:     -11.5      0.707      3.365
REMARK  Name = 4615
REMARK  7 active torsions:
REMARK  status: ('A' for Active; 'I' for Inactive)
REMARK    1  A    between atoms: N_1  and  C_9
REMARK    2  A    between atoms: N_2  and  C_22
REMARK    3  A    between atoms: C_9  and  C_10
REMARK    4  A    between atoms: C_9  and  C_16
REMARK    5  A    between atoms: C_22  and  C_23
REMARK    6  A    between atoms: C_23  and  C_24
REMARK    7  A    between atoms: C_24  and  N_26
REMARK                            x       y       z     vdW  Elec       q    Type
REMARK                         _______ _______ _______ _____ _____    ______ ____
ROOT
ATOM      1  N   UNL     1      31.235  -8.635 -23.311  0.00  0.00    +0.390 N 
ATOM      2  N   UNL     1      32.011 -11.087 -21.990  0.00  0.00    +0.384 N 
ATOM      3  C   UNL     1      32.637  -9.064 -23.265  0.00  0.00    -0.100 C 
ATOM      4  C   UNL     1      30.509  -9.130 -22.135  0.00  0.00    -0.100 C 
ATOM      5  C   UNL     1      32.738 -10.590 -23.165  0.00  0.00    -0.101 C 
ATOM      6  C   UNL     1      30.608 -10.656 -22.037  0.00  0.00    -0.101 C 
ATOM      7  H   UNL     1      30.804  -9.033 -24.146  0.00  0.00    -0.079 HD
ATOM      8  H   UNL     1      32.441 -10.691 -21.155  0.00  0.00    -0.080 HD
ENDROOT
BRANCH   1   9
ATOM      9  C   UNL     1      31.140  -7.180 -23.405  0.00  0.00    -0.012 C 
BRANCH   9  10
ATOM     10  C   UNL     1      31.374  -6.496 -22.066  0.00  0.00    -0.038 C 
ATOM     11  C   UNL     1      30.588  -5.414 -21.723  0.00  0.00    -0.006 C 
ATOM     12  C   UNL     1      32.365  -6.977 -21.234  0.00  0.00    -0.006 C 
ATOM     13  C   UNL     1      30.802  -4.787 -20.495  0.00  0.00    -0.000 C 
ATOM     14  C   UNL     1      32.578  -6.350 -20.006  0.00  0.00    -0.000 C 
ATOM     15  C   UNL     1      31.797  -5.256 -19.637  0.00  0.00    -0.000 C 
ENDBRANCH   9  10
BRANCH   9  16
ATOM     16  C   UNL     1      32.034  -6.609 -24.496  0.00  0.00    -0.038 C 
ATOM     17  C   UNL     1      31.533  -6.494 -25.777  0.00  0.00    -0.006 C 
ATOM     18  C   UNL     1      33.320  -6.225 -24.173  0.00  0.00    -0.006 C 
ATOM     19  C   UNL     1      32.353  -5.971 -26.777  0.00  0.00    -0.000 C 
ATOM     20  C   UNL     1      34.140  -5.702 -25.174  0.00  0.00    -0.000 C 
ATOM     21  C   UNL     1      33.656  -5.575 -26.476  0.00  0.00    -0.000 C 
ENDBRANCH   9  16
ENDBRANCH   1   9
BRANCH   2  22
ATOM     22  C   UNL     1      32.104 -12.542 -21.898  0.00  0.00    -0.076 C 
BRANCH  22  23
ATOM     23  C   UNL     1      32.677 -13.161 -23.175  0.00  0.00    +0.002 C 
BRANCH  23  24
ATOM     24  C   UNL     1      33.994 -13.909 -22.979  0.00  0.00    +0.108 C 
BRANCH  24  26
ATOM     25  O   UNL     1      33.144 -14.974 -25.671  0.00  0.00    -0.247 OA
ATOM     26  N   UNL     1      33.933 -15.265 -23.446  0.00  0.00    -0.280 N 
ATOM     27  N   UNL     1      33.617 -17.099 -24.752  0.00  0.00    -0.305 N 
ATOM     28  C   UNL     1      34.275 -16.406 -22.699  0.00  0.00    +0.079 A 
ATOM     29  C   UNL     1      33.516 -15.680 -24.745  0.00  0.00    +0.328 A 
ATOM     30  C   UNL     1      34.079 -17.525 -23.506  0.00  0.00    +0.076 A 
ATOM     31  C   UNL     1      34.732 -16.523 -21.403  0.00  0.00    +0.019 C 
ATOM     32  C   UNL     1      34.326 -18.806 -23.065  0.00  0.00    +0.019 C 
ATOM     33  C   UNL     1      34.991 -17.814 -20.932  0.00  0.00    +0.002 C 
ATOM     34  C   UNL     1      34.790 -18.943 -21.754  0.00  0.00    +0.002 C 
ATOM     35  H   UNL     1      33.398 -17.686 -25.512  0.00  0.00    +0.170 HD
ENDBRANCH  24  26
ENDBRANCH  23  24
ENDBRANCH  22  23
ENDBRANCH   2  22
TORSDOF 7
ENDMDL
MODEL 6
REMARK VINA RESULT:     -11.0      7.656     14.997
REMARK  Name = 4615
REMARK  7 active torsions:
REMARK  status: ('A' for Active; 'I' for Inactive)
REMARK    1  A    between atoms: N_1  and  C_9
REMARK    2  A    between atoms: N_2  and  C_22
REMARK    3  A    between atoms: C_9  and  C_10
REMARK    4  A    between atoms: C_9  and  C_16
REMARK    5  A    between atoms: C_22  and  C_23
REMARK    6  A    between atoms: C_23  and  C_24
REMARK    7  A    between atoms: C_24  and  N_26
REMARK                            x       y       z     vdW  Elec       q    Type
REMARK                         _______ _______ _______ _____ _____    ______ ____
ROOT
ATOM      1  N   UNL     1      34.317 -22.671 -15.847  0.00  0.00    +0.390 N 
ATOM      2  N   UNL     1      35.400 -21.714 -18.351  0.00  0.00    +0.384 N 
ATOM      3  C   UNL     1      35.764 -22.534 -16.048  0.00  0.00    -0.100 C 
ATOM      4  C   UNL     1      33.646 -22.948 -17.123  0.00  0.00    -0.100 C 
ATOM      5  C   UNL     1      36.072 -21.439 -17.075  0.00  0.00    -0.101 C 
ATOM      6  C   UNL     1      33.952 -21.851 -18.148  0.00  0.00    -0.101 C 
ATOM      7  H   UNL     1      33.959 -21.788 -15.480  0.00  0.00    -0.079 HD
ATOM      8  H   UNL     1      35.758 -22.596 -18.719  0.00  0.00    -0.080 HD
ENDROOT
BRANCH   1   9
ATOM      9  C   UNL     1      34.025 -23.717 -14.869  0.00  0.00    -0.012 C 
BRANCH   9  10
ATOM     10  C   UNL     1      35.093 -23.815 -13.789  0.00  0.00    -0.038 C 
ATOM     11  C   UNL     1      35.965 -24.885 -13.809  0.00  0.00    -0.006 C 
ATOM     12  C   UNL     1      35.158 -22.833 -12.822  0.00  0.00    -0.006 C 
ATOM     13  C   UNL     1      36.944 -24.976 -12.819  0.00  0.00    -0.000 C 
ATOM     14  C   UNL     1      36.136 -22.924 -11.832  0.00  0.00    -0.000 C 
ATOM     15  C   UNL     1      37.029 -23.994 -11.831  0.00  0.00    -0.000 C 
ENDBRANCH   9  10
BRANCH   9  16
ATOM     16  C   UNL     1      32.630 -23.584 -14.276  0.00  0.00    -0.038 C 
ATOM     17  C   UNL     1      32.100 -24.647 -13.574  0.00  0.00    -0.006 C 
ATOM     18  C   UNL     1      31.936 -22.406 -14.460  0.00  0.00    -0.006 C 
ATOM     19  C   UNL     1      30.821 -24.526 -13.031  0.00  0.00    -0.000 C 
ATOM     20  C   UNL     1      30.656 -22.285 -13.916  0.00  0.00    -0.000 C 
ATOM     21  C   UNL     1      30.100 -23.345 -13.202  0.00  0.00    -0.000 C 
ENDBRANCH   9  16
ENDBRANCH   1   9
BRANCH   2  22
ATOM     22  C   UNL     1      35.690 -20.667 -19.328  0.00  0.00    -0.076 C 
BRANCH  22  23
ATOM     23  C   UNL     1      34.445 -20.263 -20.121  0.00  0.00    +0.002 C 
BRANCH  23  24
ATOM     24  C   UNL     1      34.674 -20.109 -21.623  0.00  0.00    +0.108 C 
BRANCH  24  26
ATOM     25  O   UNL     1      36.518 -18.010 -20.481  0.00  0.00    -0.247 OA
ATOM     26  N   UNL     1      34.852 -18.739 -22.016  0.00  0.00    -0.280 N 
ATOM     27  N   UNL     1      35.588 -16.590 -22.126  0.00  0.00    -0.305 N 
ATOM     28  C   UNL     1      34.168 -18.089 -23.058  0.00  0.00    +0.079 A 
ATOM     29  C   UNL     1      35.754 -17.812 -21.415  0.00  0.00    +0.328 A 
ATOM     30  C   UNL     1      34.623 -16.773 -23.118  0.00  0.00    +0.076 A 
ATOM     31  C   UNL     1      33.205 -18.559 -23.926  0.00  0.00    +0.019 C 
ATOM     32  C   UNL     1      34.146 -15.868 -24.039  0.00  0.00    +0.019 C 
ATOM     33  C   UNL     1      32.704 -17.659 -24.871  0.00  0.00    +0.002 C 
ATOM     34  C   UNL     1      33.170 -16.328 -24.927  0.00  0.00    +0.002 C 
ATOM     35  H   UNL     1      36.073 -15.753 -21.947  0.00  0.00    +0.170 HD
ENDBRANCH  24  26
ENDBRANCH  23  24
ENDBRANCH  22  23
ENDBRANCH   2  22
TORSDOF 7
ENDMDL
MODEL 7
REMARK VINA RESULT:     -10.9      7.291     15.208
REMARK  Name = 4615
REMARK  7 active torsions:
REMARK  status: ('A' for Active; 'I' for Inactive)
REMARK    1  A    between atoms: N_1  and  C_9
REMARK    2  A    between atoms: N_2  and  C_22
REMARK    3  A    between atoms: C_9  and  C_10
REMARK    4  A    between atoms: C_9  and  C_16
REMARK    5  A    between atoms: C_22  and  C_23
REMARK    6  A    between atoms: C_23  and  C_24
REMARK    7  A    between atoms: C_24  and  N_26
REMARK                            x       y       z     vdW  Elec       q    Type
REMARK                         _______ _______ _______ _____ _____    ______ ____
ROOT
ATOM      1  N   UNL     1      34.675 -22.796 -15.871  0.00  0.00    +0.390 N 
ATOM      2  N   UNL     1      34.839 -21.283 -18.329  0.00  0.00    +0.384 N 
ATOM      3  C   UNL     1      33.474 -22.484 -16.655  0.00  0.00    -0.100 C 
ATOM      4  C   UNL     1      35.694 -21.756 -16.060  0.00  0.00    -0.100 C 
ATOM      5  C   UNL     1      33.818 -22.321 -18.140  0.00  0.00    -0.101 C 
ATOM      6  C   UNL     1      36.040 -21.595 -17.544  0.00  0.00    -0.101 C 
ATOM      7  H   UNL     1      35.054 -23.683 -16.204  0.00  0.00    -0.079 HD
ATOM      8  H   UNL     1      34.460 -20.395 -17.998  0.00  0.00    -0.080 HD
ENDROOT
BRANCH   1   9
ATOM      9  C   UNL     1      34.345 -22.949 -14.456  0.00  0.00    -0.012 C 
BRANCH   9  10
ATOM     10  C   UNL     1      32.867 -23.229 -14.232  0.00  0.00    -0.038 C 
ATOM     11  C   UNL     1      31.959 -22.205 -14.411  0.00  0.00    -0.006 C 
ATOM     12  C   UNL     1      32.476 -24.498 -13.855  0.00  0.00    -0.006 C 
ATOM     13  C   UNL     1      30.603 -22.461 -14.205  0.00  0.00    -0.000 C 
ATOM     14  C   UNL     1      31.121 -24.755 -13.650  0.00  0.00    -0.000 C 
ATOM     15  C   UNL     1      30.185 -23.736 -13.825  0.00  0.00    -0.000 C 
ENDBRANCH   9  10
BRANCH   9  16
ATOM     16  C   UNL     1      35.228 -23.976 -13.763  0.00  0.00    -0.038 C 
ATOM     17  C   UNL     1      35.499 -23.824 -12.418  0.00  0.00    -0.006 C 
ATOM     18  C   UNL     1      35.734 -25.028 -14.499  0.00  0.00    -0.006 C 
ATOM     19  C   UNL     1      36.309 -24.765 -11.782  0.00  0.00    -0.000 C 
ATOM     20  C   UNL     1      36.544 -25.969 -13.863  0.00  0.00    -0.000 C 
ATOM     21  C   UNL     1      36.831 -25.838 -12.505  0.00  0.00    -0.000 C 
ENDBRANCH   9  16
ENDBRANCH   1   9
BRANCH   2  22
ATOM     22  C   UNL     1      35.169 -21.131 -19.745  0.00  0.00    -0.076 C 
BRANCH  22  23
ATOM     23  C   UNL     1      34.174 -20.223 -20.471  0.00  0.00    +0.002 C 
BRANCH  23  24
ATOM     24  C   UNL     1      34.565 -19.878 -21.907  0.00  0.00    +0.108 C 
BRANCH  24  26
ATOM     25  O   UNL     1      36.159 -17.865 -20.322  0.00  0.00    -0.247 OA
ATOM     26  N   UNL     1      34.713 -18.465 -22.114  0.00  0.00    -0.280 N 
ATOM     27  N   UNL     1      35.343 -16.292 -21.886  0.00  0.00    -0.305 N 
ATOM     28  C   UNL     1      34.114 -17.719 -23.144  0.00  0.00    +0.079 A 
ATOM     29  C   UNL     1      35.494 -17.584 -21.308  0.00  0.00    +0.328 A 
ATOM     30  C   UNL     1      34.504 -16.389 -22.997  0.00  0.00    +0.076 A 
ATOM     31  C   UNL     1      33.278 -18.117 -24.167  0.00  0.00    +0.019 C 
ATOM     32  C   UNL     1      34.085 -15.398 -23.855  0.00  0.00    +0.019 C 
ATOM     33  C   UNL     1      32.838 -17.127 -25.052  0.00  0.00    +0.002 C 
ATOM     34  C   UNL     1      33.237 -15.783 -24.897  0.00  0.00    +0.002 C 
ATOM     35  H   UNL     1      35.761 -15.464 -21.556  0.00  0.00    +0.170 HD
ENDBRANCH  24  26
ENDBRANCH  23  24
ENDBRANCH  22  23
ENDBRANCH   2  22
TORSDOF 7
ENDMDL
MODEL 8
REMARK VINA RESULT:     -10.9      1.514      1.966
REMARK  Name = 4615
REMARK  7 active torsions:
REMARK  status: ('A' for Active; 'I' for Inactive)
REMARK    1  A    between atoms: N_1  and  C_9
REMARK    2  A    between atoms: N_2  and  C_22
REMARK    3  A    between atoms: C_9  and  C_10
REMARK    4  A    between atoms: C_9  and  C_16
REMARK    5  A    between atoms: C_22  and  C_23
REMARK    6  A    between atoms: C_23  and  C_24
REMARK    7  A    between atoms: C_24  and  N_26
REMARK                            x       y       z     vdW  Elec       q    Type
REMARK                         _______ _______ _______ _____ _____    ______ ____
ROOT
ATOM      1  N   UNL     1      31.631  -7.112 -22.459  0.00  0.00    +0.390 N 
ATOM      2  N   UNL     1      31.620  -9.891 -21.660  0.00  0.00    +0.384 N 
ATOM      3  C   UNL     1      31.980  -8.178 -23.405  0.00  0.00    -0.100 C 
ATOM      4  C   UNL     1      31.970  -7.512 -21.088  0.00  0.00    -0.100 C 
ATOM      5  C   UNL     1      31.282  -9.490 -23.032  0.00  0.00    -0.101 C 
ATOM      6  C   UNL     1      31.270  -8.823 -20.714  0.00  0.00    -0.101 C 
ATOM      7  H   UNL     1      30.623  -6.956 -22.509  0.00  0.00    -0.079 HD
ATOM      8  H   UNL     1      32.626 -10.048 -21.609  0.00  0.00    -0.080 HD
ENDROOT
BRANCH   1   9
ATOM      9  C   UNL     1      32.298  -5.862 -22.816  0.00  0.00    -0.012 C 
BRANCH   9  10
ATOM     10  C   UNL     1      32.761  -5.845 -24.265  0.00  0.00    -0.038 C 
ATOM     11  C   UNL     1      34.116  -5.822 -24.533  0.00  0.00    -0.006 C 
ATOM     12  C   UNL     1      31.815  -5.851 -25.269  0.00  0.00    -0.006 C 
ATOM     13  C   UNL     1      34.541  -5.806 -25.861  0.00  0.00    -0.000 C 
ATOM     14  C   UNL     1      32.240  -5.835 -26.597  0.00  0.00    -0.000 C 
ATOM     15  C   UNL     1      33.602  -5.813 -26.893  0.00  0.00    -0.000 C 
ENDBRANCH   9  10
BRANCH   9  16
ATOM     16  C   UNL     1      31.460  -4.639 -22.474  0.00  0.00    -0.038 C 
ATOM     17  C   UNL     1      31.843  -3.409 -22.970  0.00  0.00    -0.006 C 
ATOM     18  C   UNL     1      30.346  -4.795 -21.676  0.00  0.00    -0.006 C 
ATOM     19  C   UNL     1      31.075  -2.287 -22.656  0.00  0.00    -0.000 C 
ATOM     20  C   UNL     1      29.578  -3.672 -21.362  0.00  0.00    -0.000 C 
ATOM     21  C   UNL     1      29.943  -2.419 -21.853  0.00  0.00    -0.000 C 
ENDBRANCH   9  16
ENDBRANCH   1   9
BRANCH   2  22
ATOM     22  C   UNL     1      30.950 -11.139 -21.304  0.00  0.00    -0.076 C 
BRANCH  22  23
ATOM     23  C   UNL     1      31.910 -12.331 -21.328  0.00  0.00    +0.002 C 
BRANCH  23  24
ATOM     24  C   UNL     1      33.073 -12.186 -22.307  0.00  0.00    +0.108 C 
BRANCH  24  26
ATOM     25  O   UNL     1      32.407 -12.481 -25.235  0.00  0.00    -0.247 OA
ATOM     26  N   UNL     1      33.216 -13.329 -23.166  0.00  0.00    -0.280 N 
ATOM     27  N   UNL     1      33.184 -14.699 -24.980  0.00  0.00    -0.305 N 
ATOM     28  C   UNL     1      33.719 -14.585 -22.782  0.00  0.00    +0.079 A 
ATOM     29  C   UNL     1      32.873 -13.378 -24.549  0.00  0.00    +0.328 A 
ATOM     30  C   UNL     1      33.696 -15.418 -23.899  0.00  0.00    +0.076 A 
ATOM     31  C   UNL     1      34.181 -15.029 -21.561  0.00  0.00    +0.019 C 
ATOM     32  C   UNL     1      34.127 -16.725 -23.855  0.00  0.00    +0.019 C 
ATOM     33  C   UNL     1      34.624 -16.353 -21.490  0.00  0.00    +0.002 C 
ATOM     34  C   UNL     1      34.598 -17.192 -22.625  0.00  0.00    +0.002 C 
ATOM     35  H   UNL     1      33.059 -15.048 -25.892  0.00  0.00    +0.170 HD
ENDBRANCH  24  26
ENDBRANCH  23  24
ENDBRANCH  22  23
ENDBRANCH   2  22
TORSDOF 7
ENDMDL
MODEL 9
REMARK VINA RESULT:     -10.6      1.266      2.102
REMARK  Name = 4615
REMARK  7 active torsions:
REMARK  status: ('A' for Active; 'I' for Inactive)
REMARK    1  A    between atoms: N_1  and  C_9
REMARK    2  A    between atoms: N_2  and  C_22
REMARK    3  A    between atoms: C_9  and  C_10
REMARK    4  A    between atoms: C_9  and  C_16
REMARK    5  A    between atoms: C_22  and  C_23
REMARK    6  A    between atoms: C_23  and  C_24
REMARK    7  A    between atoms: C_24  and  N_26
REMARK                            x       y       z     vdW  Elec       q    Type
REMARK                         _______ _______ _______ _____ _____    ______ ____
ROOT
ATOM      1  N   UNL     1      32.223  -8.452 -23.060  0.00  0.00    +0.390 N 
ATOM      2  N   UNL     1      32.246 -11.214 -22.207  0.00  0.00    +0.384 N 
ATOM      3  C   UNL     1      33.290  -9.369 -23.478  0.00  0.00    -0.100 C 
ATOM      4  C   UNL     1      31.688  -8.850 -21.753  0.00  0.00    -0.100 C 
ATOM      5  C   UNL     1      32.783 -10.815 -23.514  0.00  0.00    -0.101 C 
ATOM      6  C   UNL     1      31.179 -10.295 -21.790  0.00  0.00    -0.101 C 
ATOM      7  H   UNL     1      31.469  -8.502 -23.745  0.00  0.00    -0.079 HD
ATOM      8  H   UNL     1      32.999 -11.165 -21.521  0.00  0.00    -0.080 HD
ENDROOT
BRANCH   1   9
ATOM      9  C   UNL     1      32.708  -7.074 -23.024  0.00  0.00    -0.012 C 
BRANCH   9  10
ATOM     10  C   UNL     1      32.969  -6.515 -24.415  0.00  0.00    -0.038 C 
ATOM     11  C   UNL     1      31.929  -6.467 -25.322  0.00  0.00    -0.006 C 
ATOM     12  C   UNL     1      34.239  -6.074 -24.731  0.00  0.00    -0.006 C 
ATOM     13  C   UNL     1      32.168  -5.956 -26.597  0.00  0.00    -0.000 C 
ATOM     14  C   UNL     1      34.478  -5.562 -26.006  0.00  0.00    -0.000 C 
ATOM     15  C   UNL     1      33.443  -5.503 -26.939  0.00  0.00    -0.000 C 
ENDBRANCH   9  10
BRANCH   9  16
ATOM     16  C   UNL     1      31.805  -6.162 -22.208  0.00  0.00    -0.038 C 
ATOM     17  C   UNL     1      30.534  -5.892 -22.672  0.00  0.00    -0.006 C 
ATOM     18  C   UNL     1      32.284  -5.630 -21.028  0.00  0.00    -0.006 C 
ATOM     19  C   UNL     1      29.705  -5.055 -21.924  0.00  0.00    -0.000 C 
ATOM     20  C   UNL     1      31.455  -4.793 -20.280  0.00  0.00    -0.000 C 
ATOM     21  C   UNL     1      30.166  -4.506 -20.728  0.00  0.00    -0.000 C 
ENDBRANCH   9  16
ENDBRANCH   1   9
BRANCH   2  22
ATOM     22  C   UNL     1      31.759 -12.591 -22.244  0.00  0.00    -0.076 C 
BRANCH  22  23
ATOM     23  C   UNL     1      32.365 -13.382 -23.407  0.00  0.00    +0.002 C 
BRANCH  23  24
ATOM     24  C   UNL     1      33.841 -13.732 -23.232  0.00  0.00    +0.108 C 
BRANCH  24  26
ATOM     25  O   UNL     1      34.253 -14.029 -20.258  0.00  0.00    -0.247 OA
ATOM     26  N   UNL     1      34.037 -14.922 -22.452  0.00  0.00    -0.280 N 
ATOM     27  N   UNL     1      34.377 -16.345 -20.712  0.00  0.00    -0.305 N 
ATOM     28  C   UNL     1      34.075 -16.235 -22.954  0.00  0.00    +0.079 A 
ATOM     29  C   UNL     1      34.225 -14.968 -21.039  0.00  0.00    +0.328 A 
ATOM     30  C   UNL     1      34.284 -17.100 -21.882  0.00  0.00    +0.076 A 
ATOM     31  C   UNL     1      33.943 -16.703 -24.244  0.00  0.00    +0.019 C 
ATOM     32  C   UNL     1      34.371 -18.465 -22.041  0.00  0.00    +0.019 C 
ATOM     33  C   UNL     1      34.027 -18.086 -24.432  0.00  0.00    +0.002 C 
ATOM     34  C   UNL     1      34.239 -18.958 -23.342  0.00  0.00    +0.002 C 
ATOM     35  H   UNL     1      34.524 -16.706 -19.808  0.00  0.00    +0.170 HD
ENDBRANCH  24  26
ENDBRANCH  23  24
ENDBRANCH  22  23
ENDBRANCH   2  22
TORSDOF 7
ENDMDL
