MODEL 1
REMARK VINA RESULT:     -13.9      0.000      0.000
REMARK  Name = 448889
REMARK  5 active torsions:
REMARK  status: ('A' for Active; 'I' for Inactive)
REMARK    1  A    between atoms: C_1  and  N_2
REMARK    2  A    between atoms: C_1  and  C_16
REMARK    3  A    between atoms: C_6  and  C_10
REMARK    4  A    between atoms: C_16  and  C_17
REMARK    5  A    between atoms: C_17  and  C_21
REMARK                            x       y       z     vdW  Elec       q    Type
REMARK                         _______ _______ _______ _____ _____    ______ ____
ROOT
ATOM      1  C   UNL     1      35.376 -17.378 -22.401  0.00  0.00    -0.076 C 
ENDROOT
BRANCH   1   2
ATOM      2  N   UNL     1      34.916 -15.992 -22.367  0.00  0.00    +0.390 N 
ATOM      3  C   UNL     1      34.187 -15.707 -21.127  0.00  0.00    -0.072 C 
ATOM      4  C   UNL     1      33.864 -14.207 -21.045  0.00  0.00    +0.003 C 
ATOM      5  C   UNL     1      34.082 -15.691 -23.541  0.00  0.00    -0.051 C 
ATOM      6  C   UNL     1      33.264 -13.661 -22.322  0.00  0.00    -0.031 C 
ATOM      7  C   UNL     1      33.374 -14.365 -23.465  0.00  0.00    -0.053 C 
ATOM      8  H   UNL     1      35.738 -15.389 -22.394  0.00  0.00    -0.079 HD
BRANCH   6  10
ATOM      9  F   UNL     1      30.646  -8.698 -22.132  0.00  0.00    -0.204 F 
ATOM     10  C   UNL     1      32.573 -12.351 -22.271  0.00  0.00    -0.004 C 
ATOM     11  C   UNL     1      31.612 -12.103 -21.289  0.00  0.00    +0.002 C 
ATOM     12  C   UNL     1      32.881 -11.360 -23.205  0.00  0.00    +0.002 C 
ATOM     13  C   UNL     1      30.961 -10.870 -21.240  0.00  0.00    +0.030 C 
ATOM     14  C   UNL     1      32.231 -10.127 -23.157  0.00  0.00    +0.030 C 
ATOM     15  C   UNL     1      31.271  -9.882 -22.176  0.00  0.00    +0.140 C 
ENDBRANCH   6  10
ENDBRANCH   1   2
BRANCH   1  16
ATOM     16  C   UNL     1      35.623 -17.888 -20.979  0.00  0.00    -0.014 C 
BRANCH  16  17
ATOM     17  C   UNL     1      36.110 -19.328 -20.952  0.00  0.00    +0.074 C 
BRANCH  17  21
ATOM     18  O   UNL     1      32.020 -21.349 -19.829  0.00  0.00    -0.209 OA
ATOM     19  N   UNL     1      35.852 -20.634 -18.891  0.00  0.00    -0.290 N 
ATOM     20  N   UNL     1      34.012 -20.360 -20.382  0.00  0.00    -0.322 NA
ATOM     21  C   UNL     1      35.250 -20.158 -20.032  0.00  0.00    +0.173 C 
ATOM     22  C   UNL     1      35.104 -21.409 -18.002  0.00  0.00    +0.058 C 
ATOM     23  C   UNL     1      33.761 -21.678 -18.301  0.00  0.00    +0.108 C 
ATOM     24  C   UNL     1      35.659 -21.923 -16.826  0.00  0.00    -0.008 C 
ATOM     25  C   UNL     1      33.195 -21.119 -19.563  0.00  0.00    +0.207 C 
ATOM     26  C   UNL     1      32.979 -22.451 -17.439  0.00  0.00    +0.014 C 
ATOM     27  C   UNL     1      34.880 -22.694 -15.963  0.00  0.00    -0.003 C 
ATOM     28  C   UNL     1      33.544 -22.956 -16.268  0.00  0.00    +0.001 C 
ATOM     29  C   UNL     1      37.085 -21.666 -16.460  0.00  0.00    +0.032 C 
ATOM     30  H   UNL     1      36.796 -20.431 -18.703  0.00  0.00    +0.154 HD
ENDBRANCH  17  21
ENDBRANCH  16  17
ENDBRANCH   1  16
TORSDOF 5
ENDMDL
MODEL 2
REMARK VINA RESULT:     -13.8      3.874      9.887
REMARK  Name = 448889
REMARK  5 active torsions:
REMARK  status: ('A' for Active; 'I' for Inactive)
REMARK    1  A    between atoms: C_1  and  N_2
REMARK    2  A    between atoms: C_1  and  C_16
REMARK    3  A    between atoms: C_6  and  C_10
REMARK    4  A    between atoms: C_16  and  C_17
REMARK    5  A    between atoms: C_17  and  C_21
REMARK                            x       y       z     vdW  Elec       q    Type
REMARK                         _______ _______ _______ _____ _____    ______ ____
ROOT
ATOM      1  C   UNL     1      34.488 -15.344 -24.535  0.00  0.00    -0.076 C 
ENDROOT
BRANCH   1   2
ATOM      2  N   UNL     1      34.694 -16.474 -23.633  0.00  0.00    +0.390 N 
ATOM      3  C   UNL     1      33.723 -17.542 -23.894  0.00  0.00    -0.072 C 
ATOM      4  C   UNL     1      34.069 -18.778 -23.049  0.00  0.00    +0.003 C 
ATOM      5  C   UNL     1      34.625 -16.040 -22.229  0.00  0.00    -0.051 C 
ATOM      6  C   UNL     1      34.336 -18.447 -21.598  0.00  0.00    -0.031 C 
ATOM      7  C   UNL     1      34.588 -17.173 -21.239  0.00  0.00    -0.053 C 
ATOM      8  H   UNL     1      35.627 -16.848 -23.808  0.00  0.00    -0.079 HD
BRANCH   6  10
ATOM      9  F   UNL     1      34.264 -22.628 -17.851  0.00  0.00    -0.204 F 
ATOM     10  C   UNL     1      34.316 -19.551 -20.609  0.00  0.00    -0.004 C 
ATOM     11  C   UNL     1      33.100 -20.075 -20.167  0.00  0.00    +0.002 C 
ATOM     12  C   UNL     1      35.515 -20.071 -20.117  0.00  0.00    +0.002 C 
ATOM     13  C   UNL     1      33.081 -21.114 -19.236  0.00  0.00    +0.030 C 
ATOM     14  C   UNL     1      35.497 -21.110 -19.186  0.00  0.00    +0.030 C 
ATOM     15  C   UNL     1      34.281 -21.631 -18.745  0.00  0.00    +0.140 C 
ENDBRANCH   6  10
ENDBRANCH   1   2
BRANCH   1  16
ATOM     16  C   UNL     1      33.070 -14.789 -24.373  0.00  0.00    -0.014 C 
BRANCH  16  17
ATOM     17  C   UNL     1      33.009 -13.281 -24.556  0.00  0.00    +0.074 C 
BRANCH  17  21
ATOM     18  O   UNL     1      31.853 -13.423 -20.004  0.00  0.00    -0.209 OA
ATOM     19  N   UNL     1      32.318 -11.260 -23.348  0.00  0.00    -0.290 N 
ATOM     20  N   UNL     1      32.418 -13.361 -22.225  0.00  0.00    -0.322 NA
ATOM     21  C   UNL     1      32.554 -12.613 -23.282  0.00  0.00    +0.173 C 
ATOM     22  C   UNL     1      31.895 -10.588 -22.199  0.00  0.00    +0.058 C 
ATOM     23  C   UNL     1      31.723 -11.316 -21.013  0.00  0.00    +0.108 C 
ATOM     24  C   UNL     1      31.641  -9.214 -22.202  0.00  0.00    -0.008 C 
ATOM     25  C   UNL     1      32.003 -12.780 -21.038  0.00  0.00    +0.207 C 
ATOM     26  C   UNL     1      31.303 -10.681 -19.842  0.00  0.00    +0.014 C 
ATOM     27  C   UNL     1      31.220  -8.577 -21.033  0.00  0.00    -0.003 C 
ATOM     28  C   UNL     1      31.050  -9.309 -19.857  0.00  0.00    +0.001 C 
ATOM     29  C   UNL     1      31.808  -8.392 -23.438  0.00  0.00    +0.032 C 
ATOM     30  H   UNL     1      32.446 -10.772 -24.193  0.00  0.00    +0.154 HD
ENDBRANCH  17  21
ENDBRANCH  16  17
ENDBRANCH   1  16
TORSDOF 5
ENDMDL
MODEL 3
REMARK VINA RESULT:     -13.4      3.022      5.055
REMARK  Name = 448889
REMARK  5 active torsions:
REMARK  status: ('A' for Active; 'I' for Inactive)
REMARK    1  A    between atoms: C_1  and  N_2
REMARK    2  A    between atoms: C_1  and  C_16
REMARK    3  A    between atoms: C_6  and  C_10
REMARK    4  A    between atoms: C_16  and  C_17
REMARK    5  A    between atoms: C_17  and  C_21
REMARK                            x       y       z     vdW  Elec       q    Type
REMARK                         _______ _______ _______ _____ _____    ______ ____
ROOT
ATOM      1  C   UNL     1      35.959 -21.131 -19.453  0.00  0.00    -0.076 C 
ENDROOT
BRANCH   1   2
ATOM      2  N   UNL     1      35.496 -19.835 -19.943  0.00  0.00    +0.390 N 
ATOM      3  C   UNL     1      34.315 -19.985 -20.799  0.00  0.00    -0.072 C 
ATOM      4  C   UNL     1      33.753 -18.601 -21.159  0.00  0.00    +0.003 C 
ATOM      5  C   UNL     1      36.572 -19.134 -20.661  0.00  0.00    -0.051 C 
ATOM      6  C   UNL     1      34.817 -17.638 -21.638  0.00  0.00    -0.031 C 
ATOM      7  C   UNL     1      36.115 -17.905 -21.399  0.00  0.00    -0.053 C 
ATOM      8  H   UNL     1      35.229 -19.273 -19.135  0.00  0.00    -0.079 HD
BRANCH   6  10
ATOM      9  F   UNL     1      33.186 -13.010 -24.367  0.00  0.00    -0.204 F 
ATOM     10  C   UNL     1      34.387 -16.416 -22.358  0.00  0.00    -0.004 C 
ATOM     11  C   UNL     1      34.208 -15.219 -21.662  0.00  0.00    +0.002 C 
ATOM     12  C   UNL     1      34.160 -16.458 -23.735  0.00  0.00    +0.002 C 
ATOM     13  C   UNL     1      33.803 -14.068 -22.340  0.00  0.00    +0.030 C 
ATOM     14  C   UNL     1      33.755 -15.308 -24.413  0.00  0.00    +0.030 C 
ATOM     15  C   UNL     1      33.576 -14.113 -23.716  0.00  0.00    +0.140 C 
ENDBRANCH   6  10
ENDBRANCH   1   2
BRANCH   1  16
ATOM     16  C   UNL     1      35.499 -21.347 -18.009  0.00  0.00    -0.014 C 
BRANCH  16  17
ATOM     17  C   UNL     1      36.633 -21.197 -17.007  0.00  0.00    +0.074 C 
BRANCH  17  21
ATOM     18  O   UNL     1      34.018 -23.157 -13.632  0.00  0.00    -0.209 OA
ATOM     19  N   UNL     1      37.546 -22.923 -15.521  0.00  0.00    -0.290 N 
ATOM     20  N   UNL     1      35.288 -22.197 -15.280  0.00  0.00    -0.322 NA
ATOM     21  C   UNL     1      36.453 -22.160 -15.860  0.00  0.00    +0.173 C 
ATOM     22  C   UNL     1      37.438 -23.832 -14.467  0.00  0.00    +0.058 C 
ATOM     23  C   UNL     1      36.218 -23.939 -13.786  0.00  0.00    +0.108 C 
ATOM     24  C   UNL     1      38.512 -24.637 -14.076  0.00  0.00    -0.008 C 
ATOM     25  C   UNL     1      35.088 -23.070 -14.225  0.00  0.00    +0.207 C 
ATOM     26  C   UNL     1      36.068 -24.838 -12.726  0.00  0.00    +0.014 C 
ATOM     27  C   UNL     1      38.366 -25.535 -13.017  0.00  0.00    -0.003 C 
ATOM     28  C   UNL     1      37.148 -25.634 -12.345  0.00  0.00    +0.001 C 
ATOM     29  C   UNL     1      39.834 -24.563 -14.768  0.00  0.00    +0.032 C 
ATOM     30  H   UNL     1      38.392 -22.829 -16.015  0.00  0.00    +0.154 HD
ENDBRANCH  17  21
ENDBRANCH  16  17
ENDBRANCH   1  16
TORSDOF 5
ENDMDL
MODEL 4
REMARK VINA RESULT:     -13.1      4.046      9.891
REMARK  Name = 448889
REMARK  5 active torsions:
REMARK  status: ('A' for Active; 'I' for Inactive)
REMARK    1  A    between atoms: C_1  and  N_2
REMARK    2  A    between atoms: C_1  and  C_16
REMARK    3  A    between atoms: C_6  and  C_10
REMARK    4  A    between atoms: C_16  and  C_17
REMARK    5  A    between atoms: C_17  and  C_21
REMARK                            x       y       z     vdW  Elec       q    Type
REMARK                         _______ _______ _______ _____ _____    ______ ____
ROOT
ATOM      1  C   UNL     1      35.142 -19.327 -21.481  0.00  0.00    -0.076 C 
ENDROOT
BRANCH   1   2
ATOM      2  N   UNL     1      34.639 -19.854 -20.215  0.00  0.00    +0.390 N 
ATOM      3  C   UNL     1      35.424 -21.012 -19.776  0.00  0.00    -0.072 C 
ATOM      4  C   UNL     1      34.981 -21.438 -18.368  0.00  0.00    +0.003 C 
ATOM      5  C   UNL     1      33.214 -20.204 -20.326  0.00  0.00    -0.051 C 
ATOM      6  C   UNL     1      33.479 -21.548 -18.228  0.00  0.00    -0.031 C 
ATOM      7  C   UNL     1      32.679 -20.971 -19.147  0.00  0.00    -0.053 C 
ATOM      8  H   UNL     1      34.737 -19.123 -19.511  0.00  0.00    -0.079 HD
BRANCH   6  10
ATOM      9  F   UNL     1      31.410 -24.359 -13.830  0.00  0.00    -0.204 F 
ATOM     10  C   UNL     1      32.932 -22.290 -17.068  0.00  0.00    -0.004 C 
ATOM     11  C   UNL     1      31.552 -22.436 -16.916  0.00  0.00    +0.002 C 
ATOM     12  C   UNL     1      33.797 -22.846 -16.123  0.00  0.00    +0.002 C 
ATOM     13  C   UNL     1      31.037 -23.135 -15.823  0.00  0.00    +0.030 C 
ATOM     14  C   UNL     1      33.282 -23.545 -15.030  0.00  0.00    +0.030 C 
ATOM     15  C   UNL     1      31.903 -23.689 -14.880  0.00  0.00    +0.140 C 
ENDBRANCH   6  10
ENDBRANCH   1   2
BRANCH   1  16
ATOM     16  C   UNL     1      33.981 -18.831 -22.347  0.00  0.00    -0.014 C 
BRANCH  16  17
ATOM     17  C   UNL     1      34.447 -18.246 -23.670  0.00  0.00    +0.074 C 
BRANCH  17  21
ATOM     18  O   UNL     1      33.141 -14.498 -26.183  0.00  0.00    -0.209 OA
ATOM     19  N   UNL     1      33.992 -16.085 -22.601  0.00  0.00    -0.290 N 
ATOM     20  N   UNL     1      33.779 -16.330 -24.963  0.00  0.00    -0.322 NA
ATOM     21  C   UNL     1      34.044 -16.796 -23.777  0.00  0.00    +0.173 C 
ATOM     22  C   UNL     1      33.624 -14.738 -22.639  0.00  0.00    +0.058 C 
ATOM     23  C   UNL     1      33.319 -14.154 -23.875  0.00  0.00    +0.108 C 
ATOM     24  C   UNL     1      33.550 -13.963 -21.478  0.00  0.00    -0.008 C 
ATOM     25  C   UNL     1      33.404 -15.004 -25.097  0.00  0.00    +0.207 C 
ATOM     26  C   UNL     1      32.945 -12.809 -23.956  0.00  0.00    +0.014 C 
ATOM     27  C   UNL     1      33.178 -12.620 -21.556  0.00  0.00    -0.003 C 
ATOM     28  C   UNL     1      32.877 -12.045 -22.791  0.00  0.00    +0.001 C 
ATOM     29  C   UNL     1      33.864 -14.537 -20.135  0.00  0.00    +0.032 C 
ATOM     30  H   UNL     1      34.210 -16.519 -21.745  0.00  0.00    +0.154 HD
ENDBRANCH  17  21
ENDBRANCH  16  17
ENDBRANCH   1  16
TORSDOF 5
ENDMDL
MODEL 5
REMARK VINA RESULT:     -13.0      2.628      4.502
REMARK  Name = 448889
REMARK  5 active torsions:
REMARK  status: ('A' for Active; 'I' for Inactive)
REMARK    1  A    between atoms: C_1  and  N_2
REMARK    2  A    between atoms: C_1  and  C_16
REMARK    3  A    between atoms: C_6  and  C_10
REMARK    4  A    between atoms: C_16  and  C_17
REMARK    5  A    between atoms: C_17  and  C_21
REMARK                            x       y       z     vdW  Elec       q    Type
REMARK                         _______ _______ _______ _____ _____    ______ ____
ROOT
ATOM      1  C   UNL     1      35.894 -21.003 -19.499  0.00  0.00    -0.076 C 
ENDROOT
BRANCH   1   2
ATOM      2  N   UNL     1      35.381 -19.760 -20.071  0.00  0.00    +0.390 N 
ATOM      3  C   UNL     1      34.380 -20.030 -21.108  0.00  0.00    -0.072 C 
ATOM      4  C   UNL     1      33.741 -18.711 -21.570  0.00  0.00    +0.003 C 
ATOM      5  C   UNL     1      36.479 -18.943 -20.609  0.00  0.00    -0.051 C 
ATOM      6  C   UNL     1      34.759 -17.636 -21.877  0.00  0.00    -0.031 C 
ATOM      7  C   UNL     1      36.022 -17.764 -21.426  0.00  0.00    -0.053 C 
ATOM      8  H   UNL     1      34.927 -19.236 -19.324  0.00  0.00    -0.079 HD
BRANCH   6  10
ATOM      9  F   UNL     1      33.111 -13.189 -24.883  0.00  0.00    -0.204 F 
ATOM     10  C   UNL     1      34.325 -16.462 -22.670  0.00  0.00    -0.004 C 
ATOM     11  C   UNL     1      34.267 -15.199 -22.079  0.00  0.00    +0.002 C 
ATOM     12  C   UNL     1      33.972 -16.616 -24.013  0.00  0.00    +0.002 C 
ATOM     13  C   UNL     1      33.858 -14.093 -22.825  0.00  0.00    +0.030 C 
ATOM     14  C   UNL     1      33.563 -15.510 -24.760  0.00  0.00    +0.030 C 
ATOM     15  C   UNL     1      33.505 -14.250 -24.166  0.00  0.00    +0.140 C 
ENDBRANCH   6  10
ENDBRANCH   1   2
BRANCH   1  16
ATOM     16  C   UNL     1      35.014 -21.449 -18.328  0.00  0.00    -0.014 C 
BRANCH  16  17
ATOM     17  C   UNL     1      33.756 -22.170 -18.786  0.00  0.00    +0.074 C 
BRANCH  17  21
ATOM     18  O   UNL     1      29.508 -21.975 -16.791  0.00  0.00    -0.209 OA
ATOM     19  N   UNL     1      33.385 -22.949 -16.489  0.00  0.00    -0.290 N 
ATOM     20  N   UNL     1      31.578 -22.067 -17.770  0.00  0.00    -0.322 NA
ATOM     21  C   UNL     1      32.827 -22.401 -17.621  0.00  0.00    +0.173 C 
ATOM     22  C   UNL     1      32.573 -23.185 -15.378  0.00  0.00    +0.058 C 
ATOM     23  C   UNL     1      31.212 -22.857 -15.452  0.00  0.00    +0.108 C 
ATOM     24  C   UNL     1      33.080 -23.741 -14.201  0.00  0.00    -0.008 C 
ATOM     25  C   UNL     1      30.697 -22.267 -16.721  0.00  0.00    +0.207 C 
ATOM     26  C   UNL     1      30.365 -23.080 -14.363  0.00  0.00    +0.014 C 
ATOM     27  C   UNL     1      32.236 -23.964 -13.111  0.00  0.00    -0.003 C 
ATOM     28  C   UNL     1      30.883 -23.633 -13.192  0.00  0.00    +0.001 C 
ATOM     29  C   UNL     1      34.522 -24.110 -14.070  0.00  0.00    +0.032 C 
ATOM     30  H   UNL     1      34.343 -23.170 -16.463  0.00  0.00    +0.154 HD
ENDBRANCH  17  21
ENDBRANCH  16  17
ENDBRANCH   1  16
TORSDOF 5
ENDMDL
MODEL 6
REMARK VINA RESULT:     -12.9      4.029     10.245
REMARK  Name = 448889
REMARK  5 active torsions:
REMARK  status: ('A' for Active; 'I' for Inactive)
REMARK    1  A    between atoms: C_1  and  N_2
REMARK    2  A    between atoms: C_1  and  C_16
REMARK    3  A    between atoms: C_6  and  C_10
REMARK    4  A    between atoms: C_16  and  C_17
REMARK    5  A    between atoms: C_17  and  C_21
REMARK                            x       y       z     vdW  Elec       q    Type
REMARK                         _______ _______ _______ _____ _____    ______ ____
ROOT
ATOM      1  C   UNL     1      35.708 -20.539 -20.352  0.00  0.00    -0.076 C 
ENDROOT
BRANCH   1   2
ATOM      2  N   UNL     1      34.998 -21.381 -19.392  0.00  0.00    +0.390 N 
ATOM      3  C   UNL     1      33.606 -20.948 -19.237  0.00  0.00    -0.072 C 
ATOM      4  C   UNL     1      32.844 -21.948 -18.355  0.00  0.00    +0.003 C 
ATOM      5  C   UNL     1      35.688 -21.385 -18.093  0.00  0.00    -0.051 C 
ATOM      6  C   UNL     1      33.586 -22.302 -17.086  0.00  0.00    -0.031 C 
ATOM      7  C   UNL     1      34.902 -22.031 -16.984  0.00  0.00    -0.053 C 
ATOM      8  H   UNL     1      34.993 -22.334 -19.756  0.00  0.00    -0.079 HD
BRANCH   6  10
ATOM      9  F   UNL     1      30.724 -24.754 -12.923  0.00  0.00    -0.204 F 
ATOM     10  C   UNL     1      32.831 -22.949 -15.986  0.00  0.00    -0.004 C 
ATOM     11  C   UNL     1      33.512 -23.510 -14.904  0.00  0.00    +0.002 C 
ATOM     12  C   UNL     1      31.436 -22.999 -16.030  0.00  0.00    +0.002 C 
ATOM     13  C   UNL     1      32.801 -24.119 -13.869  0.00  0.00    +0.030 C 
ATOM     14  C   UNL     1      30.726 -23.608 -14.995  0.00  0.00    +0.030 C 
ATOM     15  C   UNL     1      31.407 -24.168 -13.916  0.00  0.00    +0.140 C 
ENDBRANCH   6  10
ENDBRANCH   1   2
BRANCH   1  16
ATOM     16  C   UNL     1      34.784 -19.435 -20.872  0.00  0.00    -0.014 C 
BRANCH  16  17
ATOM     17  C   UNL     1      35.435 -18.061 -20.827  0.00  0.00    +0.074 C 
BRANCH  17  21
ATOM     18  O   UNL     1      33.788 -17.243 -25.151  0.00  0.00    -0.209 OA
ATOM     19  N   UNL     1      34.545 -15.864 -21.463  0.00  0.00    -0.290 N 
ATOM     20  N   UNL     1      34.593 -17.648 -23.044  0.00  0.00    -0.322 NA
ATOM     21  C   UNL     1      34.818 -17.152 -21.861  0.00  0.00    +0.173 C 
ATOM     22  C   UNL     1      33.974 -14.978 -22.378  0.00  0.00    +0.058 C 
ATOM     23  C   UNL     1      33.696 -15.429 -23.676  0.00  0.00    +0.108 C 
ATOM     24  C   UNL     1      33.672 -13.657 -22.033  0.00  0.00    -0.008 C 
ATOM     25  C   UNL     1      34.027 -16.843 -24.016  0.00  0.00    +0.207 C 
ATOM     26  C   UNL     1      33.123 -14.574 -24.621  0.00  0.00    +0.014 C 
ATOM     27  C   UNL     1      33.100 -12.801 -22.976  0.00  0.00    -0.003 C 
ATOM     28  C   UNL     1      32.827 -13.258 -24.265  0.00  0.00    +0.001 C 
ATOM     29  C   UNL     1      33.947 -13.126 -20.664  0.00  0.00    +0.032 C 
ATOM     30  H   UNL     1      34.750 -15.572 -20.546  0.00  0.00    +0.154 HD
ENDBRANCH  17  21
ENDBRANCH  16  17
ENDBRANCH   1  16
TORSDOF 5
ENDMDL
MODEL 7
REMARK VINA RESULT:     -12.9      2.827      5.076
REMARK  Name = 448889
REMARK  5 active torsions:
REMARK  status: ('A' for Active; 'I' for Inactive)
REMARK    1  A    between atoms: C_1  and  N_2
REMARK    2  A    between atoms: C_1  and  C_16
REMARK    3  A    between atoms: C_6  and  C_10
REMARK    4  A    between atoms: C_16  and  C_17
REMARK    5  A    between atoms: C_17  and  C_21
REMARK                            x       y       z     vdW  Elec       q    Type
REMARK                         _______ _______ _______ _____ _____    ______ ____
ROOT
ATOM      1  C   UNL     1      35.810 -21.169 -19.544  0.00  0.00    -0.076 C 
ENDROOT
BRANCH   1   2
ATOM      2  N   UNL     1      35.354 -19.861 -20.008  0.00  0.00    +0.390 N 
ATOM      3  C   UNL     1      34.273 -19.995 -20.990  0.00  0.00    -0.072 C 
ATOM      4  C   UNL     1      33.703 -18.610 -21.331  0.00  0.00    +0.003 C 
ATOM      5  C   UNL     1      36.473 -19.088 -20.570  0.00  0.00    -0.051 C 
ATOM      6  C   UNL     1      34.776 -17.591 -21.644  0.00  0.00    -0.031 C 
ATOM      7  C   UNL     1      36.052 -17.832 -21.285  0.00  0.00    -0.053 C 
ATOM      8  H   UNL     1      34.986 -19.354 -19.203  0.00  0.00    -0.079 HD
BRANCH   6  10
ATOM      9  F   UNL     1      33.276 -12.858 -24.267  0.00  0.00    -0.204 F 
ATOM     10  C   UNL     1      34.379 -16.342 -22.337  0.00  0.00    -0.004 C 
ATOM     11  C   UNL     1      34.208 -16.333 -23.723  0.00  0.00    +0.002 C 
ATOM     12  C   UNL     1      34.175 -15.170 -21.605  0.00  0.00    +0.002 C 
ATOM     13  C   UNL     1      33.835 -15.157 -24.375  0.00  0.00    +0.030 C 
ATOM     14  C   UNL     1      33.801 -13.995 -22.257  0.00  0.00    +0.030 C 
ATOM     15  C   UNL     1      33.632 -13.988 -23.642  0.00  0.00    +0.140 C 
ENDBRANCH   6  10
ENDBRANCH   1   2
BRANCH   1  16
ATOM     16  C   UNL     1      35.188 -21.493 -18.183  0.00  0.00    -0.014 C 
BRANCH  16  17
ATOM     17  C   UNL     1      33.761 -22.004 -18.301  0.00  0.00    +0.074 C 
BRANCH  17  21
ATOM     18  O   UNL     1      34.652 -24.153 -14.219  0.00  0.00    -0.209 OA
ATOM     19  N   UNL     1      31.957 -22.597 -16.747  0.00  0.00    -0.290 N 
ATOM     20  N   UNL     1      34.224 -23.105 -16.212  0.00  0.00    -0.322 NA
ATOM     21  C   UNL     1      33.309 -22.613 -16.997  0.00  0.00    +0.173 C 
ATOM     22  C   UNL     1      31.480 -23.146 -15.555  0.00  0.00    +0.058 C 
ATOM     23  C   UNL     1      32.397 -23.697 -14.649  0.00  0.00    +0.108 C 
ATOM     24  C   UNL     1      30.118 -23.158 -15.243  0.00  0.00    -0.008 C 
ATOM     25  C   UNL     1      33.845 -23.669 -15.007  0.00  0.00    +0.207 C 
ATOM     26  C   UNL     1      31.961 -24.256 -13.444  0.00  0.00    +0.014 C 
ATOM     27  C   UNL     1      29.680 -23.716 -14.040  0.00  0.00    -0.003 C 
ATOM     28  C   UNL     1      30.599 -24.263 -13.145  0.00  0.00    +0.001 C 
ATOM     29  C   UNL     1      29.099 -22.584 -16.173  0.00  0.00    +0.032 C 
ATOM     30  H   UNL     1      31.334 -22.204 -17.399  0.00  0.00    +0.154 HD
ENDBRANCH  17  21
ENDBRANCH  16  17
ENDBRANCH   1  16
TORSDOF 5
ENDMDL
MODEL 8
REMARK VINA RESULT:     -12.7      3.445      5.539
REMARK  Name = 448889
REMARK  5 active torsions:
REMARK  status: ('A' for Active; 'I' for Inactive)
REMARK    1  A    between atoms: C_1  and  N_2
REMARK    2  A    between atoms: C_1  and  C_16
REMARK    3  A    between atoms: C_6  and  C_10
REMARK    4  A    between atoms: C_16  and  C_17
REMARK    5  A    between atoms: C_17  and  C_21
REMARK                            x       y       z     vdW  Elec       q    Type
REMARK                         _______ _______ _______ _____ _____    ______ ____
ROOT
ATOM      1  C   UNL     1      35.882 -21.335 -18.468  0.00  0.00    -0.076 C 
ENDROOT
BRANCH   1   2
ATOM      2  N   UNL     1      35.421 -20.207 -19.274  0.00  0.00    +0.390 N 
ATOM      3  C   UNL     1      34.371 -20.621 -20.210  0.00  0.00    -0.072 C 
ATOM      4  C   UNL     1      33.791 -19.389 -20.922  0.00  0.00    +0.003 C 
ATOM      5  C   UNL     1      36.544 -19.587 -19.995  0.00  0.00    -0.051 C 
ATOM      6  C   UNL     1      34.857 -18.466 -21.468  0.00  0.00    -0.031 C 
ATOM      7  C   UNL     1      36.125 -18.576 -21.027  0.00  0.00    -0.053 C 
ATOM      8  H   UNL     1      35.022 -19.513 -18.642  0.00  0.00    -0.079 HD
BRANCH   6  10
ATOM      9  F   UNL     1      33.358 -14.639 -25.294  0.00  0.00    -0.204 F 
ATOM     10  C   UNL     1      34.462 -17.455 -22.477  0.00  0.00    -0.004 C 
ATOM     11  C   UNL     1      34.646 -16.095 -22.218  0.00  0.00    +0.002 C 
ATOM     12  C   UNL     1      33.904 -17.860 -23.692  0.00  0.00    +0.002 C 
ATOM     13  C   UNL     1      34.275 -15.144 -23.169  0.00  0.00    +0.030 C 
ATOM     14  C   UNL     1      33.533 -16.909 -24.643  0.00  0.00    +0.030 C 
ATOM     15  C   UNL     1      33.717 -15.552 -24.381  0.00  0.00    +0.140 C 
ENDBRANCH   6  10
ENDBRANCH   1   2
BRANCH   1  16
ATOM     16  C   UNL     1      36.503 -20.832 -17.162  0.00  0.00    -0.014 C 
BRANCH  16  17
ATOM     17  C   UNL     1      36.953 -21.966 -16.255  0.00  0.00    +0.074 C 
BRANCH  17  21
ATOM     18  O   UNL     1      35.146 -23.976 -12.413  0.00  0.00    -0.209 OA
ATOM     19  N   UNL     1      34.550 -22.425 -16.062  0.00  0.00    -0.290 N 
ATOM     20  N   UNL     1      36.034 -22.996 -14.285  0.00  0.00    -0.322 NA
ATOM     21  C   UNL     1      35.786 -22.503 -15.463  0.00  0.00    +0.173 C 
ATOM     22  C   UNL     1      33.433 -22.907 -15.375  0.00  0.00    +0.058 C 
ATOM     23  C   UNL     1      33.608 -23.454 -14.097  0.00  0.00    +0.108 C 
ATOM     24  C   UNL     1      32.151 -22.854 -15.928  0.00  0.00    -0.008 C 
ATOM     25  C   UNL     1      34.986 -23.496 -13.530  0.00  0.00    +0.207 C 
ATOM     26  C   UNL     1      32.515 -23.945 -13.376  0.00  0.00    +0.014 C 
ATOM     27  C   UNL     1      31.058 -23.344 -15.211  0.00  0.00    -0.003 C 
ATOM     28  C   UNL     1      31.241 -23.889 -13.940  0.00  0.00    +0.001 C 
ATOM     29  C   UNL     1      31.910 -22.281 -17.287  0.00  0.00    +0.032 C 
ATOM     30  H   UNL     1      34.455 -22.036 -16.960  0.00  0.00    +0.154 HD
ENDBRANCH  17  21
ENDBRANCH  16  17
ENDBRANCH   1  16
TORSDOF 5
ENDMDL
MODEL 9
REMARK VINA RESULT:     -12.7      4.631     10.892
REMARK  Name = 448889
REMARK  5 active torsions:
REMARK  status: ('A' for Active; 'I' for Inactive)
REMARK    1  A    between atoms: C_1  and  N_2
REMARK    2  A    between atoms: C_1  and  C_16
REMARK    3  A    between atoms: C_6  and  C_10
REMARK    4  A    between atoms: C_16  and  C_17
REMARK    5  A    between atoms: C_17  and  C_21
REMARK                            x       y       z     vdW  Elec       q    Type
REMARK                         _______ _______ _______ _____ _____    ______ ____
ROOT
ATOM      1  C   UNL     1      32.956 -13.136 -24.520  0.00  0.00    -0.076 C 
ENDROOT
BRANCH   1   2
ATOM      2  N   UNL     1      33.165 -14.339 -23.718  0.00  0.00    +0.390 N 
ATOM      3  C   UNL     1      34.075 -14.077 -22.599  0.00  0.00    -0.072 C 
ATOM      4  C   UNL     1      34.143 -15.308 -21.683  0.00  0.00    +0.003 C 
ATOM      5  C   UNL     1      33.672 -15.439 -24.553  0.00  0.00    -0.051 C 
ATOM      6  C   UNL     1      34.359 -16.598 -22.441  0.00  0.00    -0.031 C 
ATOM      7  C   UNL     1      34.138 -16.637 -23.769  0.00  0.00    -0.053 C 
ATOM      8  H   UNL     1      32.263 -14.618 -23.332  0.00  0.00    -0.079 HD
BRANCH   6  10
ATOM      9  F   UNL     1      36.060 -21.119 -19.578  0.00  0.00    -0.204 F 
ATOM     10  C   UNL     1      34.808 -17.792 -21.686  0.00  0.00    -0.004 C 
ATOM     11  C   UNL     1      33.888 -18.779 -21.323  0.00  0.00    +0.002 C 
ATOM     12  C   UNL     1      36.152 -17.934 -21.334  0.00  0.00    +0.002 C 
ATOM     13  C   UNL     1      34.311 -19.902 -20.612  0.00  0.00    +0.030 C 
ATOM     14  C   UNL     1      36.574 -19.057 -20.623  0.00  0.00    +0.030 C 
ATOM     15  C   UNL     1      35.654 -20.041 -20.261  0.00  0.00    +0.140 C 
ENDBRANCH   6  10
ENDBRANCH   1   2
BRANCH   1  16
ATOM     16  C   UNL     1      32.905 -11.900 -23.617  0.00  0.00    -0.014 C 
BRANCH  16  17
ATOM     17  C   UNL     1      31.615 -11.817 -22.816  0.00  0.00    +0.074 C 
BRANCH  17  21
ATOM     18  O   UNL     1      30.847  -9.560 -18.768  0.00  0.00    -0.209 OA
ATOM     19  N   UNL     1      31.971  -9.397 -22.613  0.00  0.00    -0.290 N 
ATOM     20  N   UNL     1      31.219 -10.667 -20.740  0.00  0.00    -0.322 NA
ATOM     21  C   UNL     1      31.593 -10.560 -21.982  0.00  0.00    +0.173 C 
ATOM     22  C   UNL     1      31.970  -8.203 -21.890  0.00  0.00    +0.058 C 
ATOM     23  C   UNL     1      31.583  -8.226 -20.543  0.00  0.00    +0.108 C 
ATOM     24  C   UNL     1      32.346  -6.989 -22.474  0.00  0.00    -0.008 C 
ATOM     25  C   UNL     1      31.189  -9.534 -19.946  0.00  0.00    +0.207 C 
ATOM     26  C   UNL     1      31.570  -7.052 -19.785  0.00  0.00    +0.014 C 
ATOM     27  C   UNL     1      32.333  -5.815 -21.718  0.00  0.00    -0.003 C 
ATOM     28  C   UNL     1      31.946  -5.847 -20.379  0.00  0.00    +0.001 C 
ATOM     29  C   UNL     1      32.767  -6.909 -23.905  0.00  0.00    +0.032 C 
ATOM     30  H   UNL     1      32.239  -9.408 -23.560  0.00  0.00    +0.154 HD
ENDBRANCH  17  21
ENDBRANCH  16  17
ENDBRANCH   1  16
TORSDOF 5
ENDMDL
