MODEL 1
REMARK VINA RESULT:     -11.4      0.000      0.000
REMARK  Name = 25113172
REMARK  6 active torsions:
REMARK  status: ('A' for Active; 'I' for Inactive)
REMARK    1  A    between atoms: N_1  and  C_9
REMARK    2  A    between atoms: C_4  and  C_21
REMARK    3  A    between atoms: C_19  and  C_25
REMARK    4  A    between atoms: N_24  and  CA_27
REMARK    5  A    between atoms: CA_27  and  C_29
REMARK    6  A    between atoms: C_29  and  O_30
REMARK                            x       y       z     vdW  Elec       q    Type
REMARK                         _______ _______ _______ _____ _____    ______ ____
ROOT
ATOM      1  N   UNL     1      31.539 -22.030 -17.712  0.00  0.00    -0.247 N 
ATOM      2  N   UNL     1      32.492 -22.788 -15.706  0.00  0.00    -0.334 NA
ATOM      3  N   UNL     1      30.129 -23.022 -16.120  0.00  0.00    -0.170 NA
ATOM      4  C   UNL     1      32.301 -23.378 -14.507  0.00  0.00    +0.181 C 
ATOM      5  C   UNL     1      31.379 -22.642 -16.450  0.00  0.00    +0.149 C 
ATOM      6  C   UNL     1      31.074 -23.811 -14.050  0.00  0.00    +0.058 C 
ATOM      7  C   UNL     1      30.012 -23.604 -14.909  0.00  0.00    +0.114 C 
ATOM      8  H   UNL     1      30.701 -21.947 -18.221  0.00  0.00    +0.165 HD
ENDROOT
BRANCH   1   9
ATOM      9  C   UNL     1      32.663 -21.516 -18.385  0.00  0.00    +0.057 C 
ATOM     10  C   UNL     1      33.607 -20.236 -20.204  0.00  0.00    -0.021 C 
ATOM     11  C   UNL     1      35.059 -21.269 -18.571  0.00  0.00    -0.021 C 
ATOM     12  C   UNL     1      33.946 -21.778 -17.904  0.00  0.00    +0.011 C 
ATOM     13  C   UNL     1      32.493 -20.746 -19.535  0.00  0.00    +0.011 C 
ATOM     14  C   UNL     1      34.890 -20.497 -19.722  0.00  0.00    -0.008 C 
ATOM     15  C   UNL     1      33.426 -19.413 -21.434  0.00  0.00    +0.031 C 
ATOM     16  C   UNL     1      36.431 -21.547 -18.056  0.00  0.00    +0.031 C 
ENDBRANCH   1   9
BRANCH   4  21
ATOM     17  S   UNL     1      35.023 -23.358 -14.480  0.00  0.00    -0.065 S 
ATOM     18  N   UNL     1      33.517 -23.797 -12.425  0.00  0.00    -0.400 NA
ATOM     19  C   UNL     1      35.788 -23.663 -12.976  0.00  0.00    +0.178 C 
ATOM     20  C   UNL     1      34.831 -23.872 -12.004  0.00  0.00    +0.107 C 
ATOM     21  C   UNL     1      33.497 -23.531 -13.712  0.00  0.00    +0.187 C 
ATOM     22  C   UNL     1      35.087 -24.165 -10.579  0.00  0.00    +0.063 C 
BRANCH  19  25
ATOM     23  O   UNL     1      37.829 -22.889 -12.121  0.00  0.00    -0.274 OA
ATOM     24  N   UNL     1      37.919 -24.601 -13.683  0.00  0.00    -0.302 N 
ATOM     25  C   ACE A   0      37.270 -23.670 -12.887  0.00  0.00    +0.239 C 
ATOM     26  H   UNL     1      37.380 -25.184 -14.266  0.00  0.00    +0.149 HD
BRANCH  24  27
ATOM     27  CA  UNL     1      39.357 -24.746 -13.689  0.00  0.00    +0.101 C 
ATOM     28  CB  UNL     1      39.735 -26.169 -13.299  0.00  0.00    +0.024 C 
BRANCH  27  29
ATOM     29  C   UNL     1      39.930 -24.379 -15.057  0.00  0.00    +0.157 C 
BRANCH  29  30
ATOM     30  O   UNL     1      39.848 -25.506 -15.921  0.00  0.00    -0.380 OA
ATOM     31  H   UNL     1      40.681 -25.601 -16.409  0.00  0.00    +0.211 HD
ENDBRANCH  29  30
ENDBRANCH  27  29
ENDBRANCH  24  27
ENDBRANCH  19  25
ENDBRANCH   4  21
TORSDOF 6
ENDMDL
MODEL 2
REMARK VINA RESULT:     -10.4      3.899      8.324
REMARK  Name = 25113172
REMARK  6 active torsions:
REMARK  status: ('A' for Active; 'I' for Inactive)
REMARK    1  A    between atoms: N_1  and  C_9
REMARK    2  A    between atoms: C_4  and  C_21
REMARK    3  A    between atoms: C_19  and  C_25
REMARK    4  A    between atoms: N_24  and  CA_27
REMARK    5  A    between atoms: CA_27  and  C_29
REMARK    6  A    between atoms: C_29  and  O_30
REMARK                            x       y       z     vdW  Elec       q    Type
REMARK                         _______ _______ _______ _____ _____    ______ ____
ROOT
ATOM      1  N   UNL     1      37.267 -22.409 -16.141  0.00  0.00    -0.247 N 
ATOM      2  N   UNL     1      34.929 -22.597 -16.205  0.00  0.00    -0.334 NA
ATOM      3  N   UNL     1      36.135 -21.532 -18.000  0.00  0.00    -0.170 NA
ATOM      4  C   UNL     1      33.786 -22.349 -16.877  0.00  0.00    +0.181 C 
ATOM      5  C   UNL     1      36.051 -22.166 -16.815  0.00  0.00    +0.149 C 
ATOM      6  C   UNL     1      33.735 -21.707 -18.098  0.00  0.00    +0.058 C 
ATOM      7  C   UNL     1      34.954 -21.317 -18.616  0.00  0.00    +0.114 C 
ATOM      8  H   UNL     1      38.059 -22.080 -16.624  0.00  0.00    +0.165 HD
ENDROOT
BRANCH   1   9
ATOM      9  C   UNL     1      37.570 -23.030 -14.916  0.00  0.00    +0.057 C 
ATOM     10  C   UNL     1      38.854 -24.635 -13.646  0.00  0.00    -0.021 C 
ATOM     11  C   UNL     1      37.187 -23.277 -12.543  0.00  0.00    -0.021 C 
ATOM     12  C   UNL     1      36.887 -22.661 -13.757  0.00  0.00    +0.011 C 
ATOM     13  C   UNL     1      38.553 -24.017 -14.860  0.00  0.00    +0.011 C 
ATOM     14  C   UNL     1      38.171 -24.265 -12.488  0.00  0.00    -0.008 C 
ATOM     15  C   UNL     1      39.905 -25.692 -13.586  0.00  0.00    +0.031 C 
ATOM     16  C   UNL     1      36.458 -22.880 -11.304  0.00  0.00    +0.031 C 
ENDBRANCH   1   9
BRANCH   4  21
ATOM     17  S   UNL     1      31.066 -22.442 -16.927  0.00  0.00    -0.065 S 
ATOM     18  N   UNL     1      32.558 -23.506 -15.104  0.00  0.00    -0.400 NA
ATOM     19  C   UNL     1      30.293 -23.273 -15.643  0.00  0.00    +0.178 C 
ATOM     20  C   UNL     1      31.243 -23.771 -14.775  0.00  0.00    +0.107 C 
ATOM     21  C   UNL     1      32.586 -22.812 -16.220  0.00  0.00    +0.187 C 
ATOM     22  C   UNL     1      30.979 -24.546 -13.545  0.00  0.00    +0.063 C 
BRANCH  19  25
ATOM     23  O   UNL     1      28.280 -24.246 -14.935  0.00  0.00    -0.274 OA
ATOM     24  N   UNL     1      28.128 -22.399 -16.329  0.00  0.00    -0.302 N 
ATOM     25  C   ACE A   0      28.811 -23.362 -15.603  0.00  0.00    +0.239 C 
ATOM     26  H   UNL     1      28.646 -21.732 -16.836  0.00  0.00    +0.149 HD
BRANCH  24  27
ATOM     27  CA  UNL     1      26.685 -22.339 -16.371  0.00  0.00    +0.101 C 
ATOM     28  CB  UNL     1      26.161 -21.619 -15.135  0.00  0.00    +0.024 C 
BRANCH  27  29
ATOM     29  C   UNL     1      26.210 -21.653 -17.651  0.00  0.00    +0.157 C 
BRANCH  29  30
ATOM     30  O   UNL     1      25.924 -20.287 -17.376  0.00  0.00    -0.380 OA
ATOM     31  H   UNL     1      25.165 -20.002 -17.909  0.00  0.00    +0.211 HD
ENDBRANCH  29  30
ENDBRANCH  27  29
ENDBRANCH  24  27
ENDBRANCH  19  25
ENDBRANCH   4  21
TORSDOF 6
ENDMDL
MODEL 3
REMARK VINA RESULT:     -10.2      2.857      7.280
REMARK  Name = 25113172
REMARK  6 active torsions:
REMARK  status: ('A' for Active; 'I' for Inactive)
REMARK    1  A    between atoms: N_1  and  C_9
REMARK    2  A    between atoms: C_4  and  C_21
REMARK    3  A    between atoms: C_19  and  C_25
REMARK    4  A    between atoms: N_24  and  CA_27
REMARK    5  A    between atoms: CA_27  and  C_29
REMARK    6  A    between atoms: C_29  and  O_30
REMARK                            x       y       z     vdW  Elec       q    Type
REMARK                         _______ _______ _______ _____ _____    ______ ____
ROOT
ATOM      1  N   UNL     1      33.504 -24.399 -13.115  0.00  0.00    -0.247 N 
ATOM      2  N   UNL     1      32.928 -23.343 -15.129  0.00  0.00    -0.334 NA
ATOM      3  N   UNL     1      31.238 -24.321 -13.717  0.00  0.00    -0.170 NA
ATOM      4  C   UNL     1      31.949 -22.978 -15.983  0.00  0.00    +0.181 C 
ATOM      5  C   UNL     1      32.508 -24.002 -14.032  0.00  0.00    +0.149 C 
ATOM      6  C   UNL     1      30.611 -23.244 -15.777  0.00  0.00    +0.058 C 
ATOM      7  C   UNL     1      30.311 -23.926 -14.614  0.00  0.00    +0.114 C 
ATOM      8  H   UNL     1      33.152 -24.875 -12.329  0.00  0.00    +0.165 HD
ENDROOT
BRANCH   1   9
ATOM      9  C   UNL     1      34.903 -24.247 -13.103  0.00  0.00    +0.057 C 
ATOM     10  C   UNL     1      37.094 -24.990 -13.799  0.00  0.00    -0.021 C 
ATOM     11  C   UNL     1      36.872 -23.054 -12.370  0.00  0.00    -0.021 C 
ATOM     12  C   UNL     1      35.486 -23.205 -12.382  0.00  0.00    +0.011 C 
ATOM     13  C   UNL     1      35.707 -25.139 -13.811  0.00  0.00    +0.011 C 
ATOM     14  C   UNL     1      37.676 -23.947 -13.079  0.00  0.00    -0.008 C 
ATOM     15  C   UNL     1      37.954 -25.945 -14.556  0.00  0.00    +0.031 C 
ATOM     16  C   UNL     1      37.496 -21.938 -11.601  0.00  0.00    +0.031 C 
ENDBRANCH   1   9
BRANCH   4  21
ATOM     17  S   UNL     1      34.091 -22.190 -17.466  0.00  0.00    -0.065 S 
ATOM     18  N   UNL     1      31.621 -21.674 -18.028  0.00  0.00    -0.400 NA
ATOM     19  C   UNL     1      33.763 -21.279 -18.882  0.00  0.00    +0.178 C 
ATOM     20  C   UNL     1      32.401 -21.106 -19.016  0.00  0.00    +0.107 C 
ATOM     21  C   UNL     1      32.404 -22.271 -17.158  0.00  0.00    +0.187 C 
ATOM     22  C   UNL     1      31.719 -20.378 -20.106  0.00  0.00    +0.063 C 
BRANCH  19  25
ATOM     23  O   UNL     1      36.002 -21.298 -19.582  0.00  0.00    -0.274 OA
ATOM     24  N   UNL     1      34.561 -19.856 -20.687  0.00  0.00    -0.302 N 
ATOM     25  C   ACE A   0      34.883 -20.813 -19.738  0.00  0.00    +0.239 C 
ATOM     26  H   UNL     1      33.633 -19.528 -20.734  0.00  0.00    +0.149 HD
BRANCH  24  27
ATOM     27  CA  UNL     1      35.535 -19.321 -21.611  0.00  0.00    +0.101 C 
ATOM     28  CB  UNL     1      34.829 -18.725 -22.821  0.00  0.00    +0.024 C 
BRANCH  27  29
ATOM     29  C   UNL     1      36.419 -18.283 -20.921  0.00  0.00    +0.157 C 
BRANCH  29  30
ATOM     30  O   UNL     1      37.481 -17.915 -21.792  0.00  0.00    -0.380 OA
ATOM     31  H   UNL     1      38.188 -18.578 -21.739  0.00  0.00    +0.211 HD
ENDBRANCH  29  30
ENDBRANCH  27  29
ENDBRANCH  24  27
ENDBRANCH  19  25
ENDBRANCH   4  21
TORSDOF 6
ENDMDL
MODEL 4
REMARK VINA RESULT:     -10.2     10.942     14.738
REMARK  Name = 25113172
REMARK  6 active torsions:
REMARK  status: ('A' for Active; 'I' for Inactive)
REMARK    1  A    between atoms: N_1  and  C_9
REMARK    2  A    between atoms: C_4  and  C_21
REMARK    3  A    between atoms: C_19  and  C_25
REMARK    4  A    between atoms: N_24  and  CA_27
REMARK    5  A    between atoms: CA_27  and  C_29
REMARK    6  A    between atoms: C_29  and  O_30
REMARK                            x       y       z     vdW  Elec       q    Type
REMARK                         _______ _______ _______ _____ _____    ______ ____
ROOT
ATOM      1  N   UNL     1      31.400  -7.620 -21.709  0.00  0.00    -0.247 N 
ATOM      2  N   UNL     1      31.905  -9.878 -22.096  0.00  0.00    -0.334 NA
ATOM      3  N   UNL     1      31.161  -9.130 -19.929  0.00  0.00    -0.170 NA
ATOM      4  C   UNL     1      31.983 -11.129 -21.595  0.00  0.00    +0.181 C 
ATOM      5  C   UNL     1      31.494  -8.941 -21.220  0.00  0.00    +0.149 C 
ATOM      6  C   UNL     1      31.671 -11.455 -20.291  0.00  0.00    +0.058 C 
ATOM      7  C   UNL     1      31.262 -10.404 -19.495  0.00  0.00    +0.114 C 
ATOM      8  H   UNL     1      31.094  -6.970 -21.036  0.00  0.00    +0.165 HD
ENDROOT
BRANCH   1   9
ATOM      9  C   UNL     1      31.655  -7.051 -22.970  0.00  0.00    +0.057 C 
ATOM     10  C   UNL     1      31.212  -6.937 -25.342  0.00  0.00    -0.021 C 
ATOM     11  C   UNL     1      32.859  -5.474 -24.349  0.00  0.00    -0.021 C 
ATOM     12  C   UNL     1      32.606  -6.038 -23.100  0.00  0.00    +0.011 C 
ATOM     13  C   UNL     1      30.959  -7.500 -24.091  0.00  0.00    +0.011 C 
ATOM     14  C   UNL     1      32.162  -5.924 -25.471  0.00  0.00    -0.008 C 
ATOM     15  C   UNL     1      30.467  -7.418 -26.542  0.00  0.00    +0.031 C 
ATOM     16  C   UNL     1      33.873  -4.389 -24.488  0.00  0.00    +0.031 C 
ENDBRANCH   1   9
BRANCH   4  21
ATOM     17  S   UNL     1      33.183 -13.548 -21.935  0.00  0.00    -0.065 S 
ATOM     18  N   UNL     1      32.290 -12.049 -23.842  0.00  0.00    -0.400 NA
ATOM     19  C   UNL     1      33.356 -14.111 -23.545  0.00  0.00    +0.178 C 
ATOM     20  C   UNL     1      32.825 -13.185 -24.419  0.00  0.00    +0.107 C 
ATOM     21  C   UNL     1      32.424 -12.131 -22.537  0.00  0.00    +0.187 C 
ATOM     22  C   UNL     1      32.780 -13.301 -25.891  0.00  0.00    +0.063 C 
BRANCH  19  25
ATOM     23  O   UNL     1      34.277 -15.737 -24.962  0.00  0.00    -0.274 OA
ATOM     24  N   UNL     1      34.272 -16.196 -22.689  0.00  0.00    -0.302 N 
ATOM     25  C   ACE A   0      34.003 -15.421 -23.806  0.00  0.00    +0.239 C 
ATOM     26  H   UNL     1      34.012 -15.856 -21.802  0.00  0.00    +0.149 HD
BRANCH  24  27
ATOM     27  CA  UNL     1      34.920 -17.485 -22.778  0.00  0.00    +0.101 C 
ATOM     28  CB  UNL     1      35.749 -17.735 -21.524  0.00  0.00    +0.024 C 
BRANCH  27  29
ATOM     29  C   UNL     1      33.891 -18.593 -22.988  0.00  0.00    +0.157 C 
BRANCH  29  30
ATOM     30  O   UNL     1      33.528 -18.645 -24.362  0.00  0.00    -0.380 OA
ATOM     31  H   UNL     1      34.250 -18.285 -24.901  0.00  0.00    +0.211 HD
ENDBRANCH  29  30
ENDBRANCH  27  29
ENDBRANCH  24  27
ENDBRANCH  19  25
ENDBRANCH   4  21
TORSDOF 6
ENDMDL
MODEL 5
REMARK VINA RESULT:     -10.1      3.391      7.653
REMARK  Name = 25113172
REMARK  6 active torsions:
REMARK  status: ('A' for Active; 'I' for Inactive)
REMARK    1  A    between atoms: N_1  and  C_9
REMARK    2  A    between atoms: C_4  and  C_21
REMARK    3  A    between atoms: C_19  and  C_25
REMARK    4  A    between atoms: N_24  and  CA_27
REMARK    5  A    between atoms: CA_27  and  C_29
REMARK    6  A    between atoms: C_29  and  O_30
REMARK                            x       y       z     vdW  Elec       q    Type
REMARK                         _______ _______ _______ _____ _____    ______ ____
ROOT
ATOM      1  N   UNL     1      32.720 -24.292 -13.513  0.00  0.00    -0.247 N 
ATOM      2  N   UNL     1      32.755 -23.152 -15.563  0.00  0.00    -0.334 NA
ATOM      3  N   UNL     1      30.683 -23.949 -14.625  0.00  0.00    -0.170 NA
ATOM      4  C   UNL     1      32.051 -22.668 -16.608  0.00  0.00    +0.181 C 
ATOM      5  C   UNL     1      32.018 -23.773 -14.622  0.00  0.00    +0.149 C 
ATOM      6  C   UNL     1      30.682 -22.783 -16.732  0.00  0.00    +0.058 C 
ATOM      7  C   UNL     1      30.043 -23.440 -15.699  0.00  0.00    +0.114 C 
ATOM      8  H   UNL     1      32.142 -24.734 -12.850  0.00  0.00    +0.165 HD
ENDROOT
BRANCH   1   9
ATOM      9  C   UNL     1      34.084 -24.299 -13.168  0.00  0.00    +0.057 C 
ATOM     10  C   UNL     1      35.847 -23.784 -11.598  0.00  0.00    -0.021 C 
ATOM     11  C   UNL     1      36.378 -24.832 -13.709  0.00  0.00    -0.021 C 
ATOM     12  C   UNL     1      35.026 -24.826 -14.052  0.00  0.00    +0.011 C 
ATOM     13  C   UNL     1      34.495 -23.779 -11.941  0.00  0.00    +0.011 C 
ATOM     14  C   UNL     1      36.788 -24.312 -12.481  0.00  0.00    -0.008 C 
ATOM     15  C   UNL     1      36.286 -23.227 -10.286  0.00  0.00    +0.031 C 
ATOM     16  C   UNL     1      37.384 -25.397 -14.654  0.00  0.00    +0.031 C 
ENDBRANCH   1   9
BRANCH   4  21
ATOM     17  S   UNL     1      32.054 -20.973 -18.737  0.00  0.00    -0.065 S 
ATOM     18  N   UNL     1      34.147 -22.123 -17.748  0.00  0.00    -0.400 NA
ATOM     19  C   UNL     1      33.569 -20.651 -19.473  0.00  0.00    +0.178 C 
ATOM     20  C   UNL     1      34.561 -21.346 -18.813  0.00  0.00    +0.107 C 
ATOM     21  C   UNL     1      32.845 -22.003 -17.615  0.00  0.00    +0.187 C 
ATOM     22  C   UNL     1      36.000 -21.333 -19.143  0.00  0.00    +0.063 C 
BRANCH  19  25
ATOM     23  O   UNL     1      32.800 -19.823 -21.528  0.00  0.00    -0.274 OA
ATOM     24  N   UNL     1      34.685 -18.820 -20.623  0.00  0.00    -0.302 N 
ATOM     25  C   ACE A   0      33.646 -19.737 -20.641  0.00  0.00    +0.239 C 
ATOM     26  H   UNL     1      35.314 -18.831 -19.866  0.00  0.00    +0.149 HD
BRANCH  24  27
ATOM     27  CA  UNL     1      34.879 -17.848 -21.676  0.00  0.00    +0.101 C 
ATOM     28  CB  UNL     1      34.529 -16.457 -21.167  0.00  0.00    +0.024 C 
BRANCH  27  29
ATOM     29  C   UNL     1      36.313 -17.900 -22.199  0.00  0.00    +0.157 C 
BRANCH  29  30
ATOM     30  O   UNL     1      37.192 -18.244 -21.135  0.00  0.00    -0.380 OA
ATOM     31  H   UNL     1      36.892 -17.816 -20.317  0.00  0.00    +0.211 HD
ENDBRANCH  29  30
ENDBRANCH  27  29
ENDBRANCH  24  27
ENDBRANCH  19  25
ENDBRANCH   4  21
TORSDOF 6
ENDMDL
MODEL 6
REMARK VINA RESULT:      -9.5      4.003      8.700
REMARK  Name = 25113172
REMARK  6 active torsions:
REMARK  status: ('A' for Active; 'I' for Inactive)
REMARK    1  A    between atoms: N_1  and  C_9
REMARK    2  A    between atoms: C_4  and  C_21
REMARK    3  A    between atoms: C_19  and  C_25
REMARK    4  A    between atoms: N_24  and  CA_27
REMARK    5  A    between atoms: CA_27  and  C_29
REMARK    6  A    between atoms: C_29  and  O_30
REMARK                            x       y       z     vdW  Elec       q    Type
REMARK                         _______ _______ _______ _____ _____    ______ ____
ROOT
ATOM      1  N   UNL     1      34.119 -23.298 -14.578  0.00  0.00    -0.247 N 
ATOM      2  N   UNL     1      34.496 -22.147 -16.588  0.00  0.00    -0.334 NA
ATOM      3  N   UNL     1      36.338 -22.872 -15.213  0.00  0.00    -0.170 NA
ATOM      4  C   UNL     1      35.394 -21.630 -17.452  0.00  0.00    +0.181 C 
ATOM      5  C   UNL     1      35.029 -22.744 -15.504  0.00  0.00    +0.149 C 
ATOM      6  C   UNL     1      36.760 -21.693 -17.269  0.00  0.00    +0.058 C 
ATOM      7  C   UNL     1      37.179 -22.332 -16.119  0.00  0.00    +0.114 C 
ATOM      8  H   UNL     1      34.553 -23.725 -13.804  0.00  0.00    +0.165 HD
ENDROOT
BRANCH   1   9
ATOM      9  C   UNL     1      32.714 -23.360 -14.544  0.00  0.00    +0.057 C 
ATOM     10  C   UNL     1      30.677 -24.027 -13.429  0.00  0.00    -0.021 C 
ATOM     11  C   UNL     1      30.572 -22.884 -15.556  0.00  0.00    -0.021 C 
ATOM     12  C   UNL     1      31.965 -22.821 -15.589  0.00  0.00    +0.011 C 
ATOM     13  C   UNL     1      32.070 -23.963 -13.464  0.00  0.00    +0.011 C 
ATOM     14  C   UNL     1      29.928 -23.487 -14.474  0.00  0.00    -0.008 C 
ATOM     15  C   UNL     1      29.988 -24.672 -12.274  0.00  0.00    +0.031 C 
ATOM     16  C   UNL     1      29.771 -22.305 -16.673  0.00  0.00    +0.031 C 
ENDBRANCH   1   9
BRANCH   4  21
ATOM     17  S   UNL     1      35.860 -20.169 -19.700  0.00  0.00    -0.065 S 
ATOM     18  N   UNL     1      33.538 -20.986 -18.911  0.00  0.00    -0.400 NA
ATOM     19  C   UNL     1      34.499 -19.763 -20.660  0.00  0.00    +0.178 C 
ATOM     20  C   UNL     1      33.357 -20.282 -20.086  0.00  0.00    +0.107 C 
ATOM     21  C   UNL     1      34.818 -20.991 -18.612  0.00  0.00    +0.187 C 
ATOM     22  C   UNL     1      31.982 -20.150 -20.610  0.00  0.00    +0.063 C 
BRANCH  19  25
ATOM     23  O   UNL     1      34.907 -19.543 -22.959  0.00  0.00    -0.274 OA
ATOM     24  N   UNL     1      34.546 -17.592 -21.759  0.00  0.00    -0.302 N 
ATOM     25  C   ACE A   0      34.678 -18.965 -21.900  0.00  0.00    +0.239 C 
ATOM     26  H   UNL     1      34.363 -17.223 -20.865  0.00  0.00    +0.149 HD
BRANCH  24  27
ATOM     27  CA  UNL     1      34.669 -16.684 -22.876  0.00  0.00    +0.101 C 
ATOM     28  CB  UNL     1      33.740 -17.119 -24.002  0.00  0.00    +0.024 C 
BRANCH  27  29
ATOM     29  C   UNL     1      34.373 -15.250 -22.441  0.00  0.00    +0.157 C 
BRANCH  29  30
ATOM     30  O   UNL     1      34.319 -15.190 -21.020  0.00  0.00    -0.380 OA
ATOM     31  H   UNL     1      34.571 -16.052 -20.651  0.00  0.00    +0.211 HD
ENDBRANCH  29  30
ENDBRANCH  27  29
ENDBRANCH  24  27
ENDBRANCH  19  25
ENDBRANCH   4  21
TORSDOF 6
ENDMDL
MODEL 7
REMARK VINA RESULT:      -9.5      3.998      8.566
REMARK  Name = 25113172
REMARK  6 active torsions:
REMARK  status: ('A' for Active; 'I' for Inactive)
REMARK    1  A    between atoms: N_1  and  C_9
REMARK    2  A    between atoms: C_4  and  C_21
REMARK    3  A    between atoms: C_19  and  C_25
REMARK    4  A    between atoms: N_24  and  CA_27
REMARK    5  A    between atoms: CA_27  and  C_29
REMARK    6  A    between atoms: C_29  and  O_30
REMARK                            x       y       z     vdW  Elec       q    Type
REMARK                         _______ _______ _______ _____ _____    ______ ____
ROOT
ATOM      1  N   UNL     1      34.116 -23.336 -14.578  0.00  0.00    -0.247 N 
ATOM      2  N   UNL     1      34.494 -22.177 -16.583  0.00  0.00    -0.334 NA
ATOM      3  N   UNL     1      36.334 -22.883 -15.195  0.00  0.00    -0.170 NA
ATOM      4  C   UNL     1      35.392 -21.648 -17.439  0.00  0.00    +0.181 C 
ATOM      5  C   UNL     1      35.026 -22.770 -15.497  0.00  0.00    +0.149 C 
ATOM      6  C   UNL     1      36.758 -21.695 -17.246  0.00  0.00    +0.058 C 
ATOM      7  C   UNL     1      37.176 -22.332 -16.095  0.00  0.00    +0.114 C 
ATOM      8  H   UNL     1      34.549 -23.760 -13.802  0.00  0.00    +0.165 HD
ENDROOT
BRANCH   1   9
ATOM      9  C   UNL     1      32.712 -23.415 -14.554  0.00  0.00    +0.057 C 
ATOM     10  C   UNL     1      30.573 -22.935 -15.571  0.00  0.00    -0.021 C 
ATOM     11  C   UNL     1      30.673 -24.125 -13.470  0.00  0.00    -0.021 C 
ATOM     12  C   UNL     1      32.065 -24.048 -13.493  0.00  0.00    +0.011 C 
ATOM     13  C   UNL     1      31.966 -22.859 -15.593  0.00  0.00    +0.011 C 
ATOM     14  C   UNL     1      29.927 -23.569 -14.510  0.00  0.00    -0.008 C 
ATOM     15  C   UNL     1      29.774 -22.340 -16.681  0.00  0.00    +0.031 C 
ATOM     16  C   UNL     1      29.981 -24.804 -12.336  0.00  0.00    +0.031 C 
ENDBRANCH   1   9
BRANCH   4  21
ATOM     17  S   UNL     1      35.857 -20.162 -19.672  0.00  0.00    -0.065 S 
ATOM     18  N   UNL     1      33.542 -21.031 -18.917  0.00  0.00    -0.400 NA
ATOM     19  C   UNL     1      34.499 -19.778 -20.646  0.00  0.00    +0.178 C 
ATOM     20  C   UNL     1      33.360 -20.323 -20.090  0.00  0.00    +0.107 C 
ATOM     21  C   UNL     1      34.818 -21.013 -18.602  0.00  0.00    +0.187 C 
ATOM     22  C   UNL     1      31.990 -20.216 -20.630  0.00  0.00    +0.063 C 
BRANCH  19  25
ATOM     23  O   UNL     1      34.902 -19.537 -22.944  0.00  0.00    -0.274 OA
ATOM     24  N   UNL     1      34.549 -17.597 -21.724  0.00  0.00    -0.302 N 
ATOM     25  C   ACE A   0      34.676 -18.968 -21.878  0.00  0.00    +0.239 C 
ATOM     26  H   UNL     1      34.368 -17.235 -20.826  0.00  0.00    +0.149 HD
BRANCH  24  27
ATOM     27  CA  UNL     1      34.671 -16.678 -22.833  0.00  0.00    +0.101 C 
ATOM     28  CB  UNL     1      33.788 -17.137 -23.986  0.00  0.00    +0.024 C 
BRANCH  27  29
ATOM     29  C   UNL     1      34.314 -15.258 -22.398  0.00  0.00    +0.157 C 
BRANCH  29  30
ATOM     30  O   UNL     1      34.356 -15.175 -20.978  0.00  0.00    -0.380 OA
ATOM     31  H   UNL     1      34.963 -15.849 -20.632  0.00  0.00    +0.211 HD
ENDBRANCH  29  30
ENDBRANCH  27  29
ENDBRANCH  24  27
ENDBRANCH  19  25
ENDBRANCH   4  21
TORSDOF 6
ENDMDL
MODEL 8
REMARK VINA RESULT:      -9.1      3.108      7.033
REMARK  Name = 25113172
REMARK  6 active torsions:
REMARK  status: ('A' for Active; 'I' for Inactive)
REMARK    1  A    between atoms: N_1  and  C_9
REMARK    2  A    between atoms: C_4  and  C_21
REMARK    3  A    between atoms: C_19  and  C_25
REMARK    4  A    between atoms: N_24  and  CA_27
REMARK    5  A    between atoms: CA_27  and  C_29
REMARK    6  A    between atoms: C_29  and  O_30
REMARK                            x       y       z     vdW  Elec       q    Type
REMARK                         _______ _______ _______ _____ _____    ______ ____
ROOT
ATOM      1  N   UNL     1      32.435 -24.267 -12.774  0.00  0.00    -0.247 N 
ATOM      2  N   UNL     1      34.075 -23.174 -14.048  0.00  0.00    -0.334 NA
ATOM      3  N   UNL     1      34.591 -24.067 -11.869  0.00  0.00    -0.170 NA
ATOM      4  C   UNL     1      35.355 -22.755 -14.137  0.00  0.00    +0.181 C 
ATOM      5  C   UNL     1      33.766 -23.813 -12.903  0.00  0.00    +0.149 C 
ATOM      6  C   UNL     1      36.298 -22.951 -13.149  0.00  0.00    +0.058 C 
ATOM      7  C   UNL     1      35.854 -23.620 -12.026  0.00  0.00    +0.114 C 
ATOM      8  H   UNL     1      32.255 -24.729 -11.924  0.00  0.00    +0.165 HD
ENDROOT
BRANCH   1   9
ATOM      9  C   UNL     1      31.317 -24.190 -13.623  0.00  0.00    +0.057 C 
ATOM     10  C   UNL     1      30.171 -23.161 -15.486  0.00  0.00    -0.021 C 
ATOM     11  C   UNL     1      29.133 -24.985 -14.287  0.00  0.00    -0.021 C 
ATOM     12  C   UNL     1      30.243 -25.061 -13.446  0.00  0.00    +0.011 C 
ATOM     13  C   UNL     1      31.281 -23.239 -14.644  0.00  0.00    +0.011 C 
ATOM     14  C   UNL     1      29.098 -24.034 -15.308  0.00  0.00    -0.008 C 
ATOM     15  C   UNL     1      30.133 -22.144 -16.577  0.00  0.00    +0.031 C 
ATOM     16  C   UNL     1      27.986 -25.918 -14.098  0.00  0.00    +0.031 C 
ENDBRANCH   1   9
BRANCH   4  21
ATOM     17  S   UNL     1      34.780 -22.440 -16.778  0.00  0.00    -0.065 S 
ATOM     18  N   UNL     1      36.632 -21.170 -15.496  0.00  0.00    -0.400 NA
ATOM     19  C   UNL     1      35.728 -21.308 -17.651  0.00  0.00    +0.178 C 
ATOM     20  C   UNL     1      36.656 -20.734 -16.807  0.00  0.00    +0.107 C 
ATOM     21  C   UNL     1      35.683 -22.070 -15.366  0.00  0.00    +0.187 C 
ATOM     22  C   UNL     1      37.656 -19.712 -17.179  0.00  0.00    +0.063 C 
BRANCH  19  25
ATOM     23  O   UNL     1      35.171 -22.042 -19.807  0.00  0.00    -0.274 OA
ATOM     24  N   UNL     1      35.578 -19.776 -19.535  0.00  0.00    -0.302 N 
ATOM     25  C   ACE A   0      35.472 -21.086 -19.097  0.00  0.00    +0.239 C 
ATOM     26  H   UNL     1      35.828 -19.077 -18.886  0.00  0.00    +0.149 HD
BRANCH  24  27
ATOM     27  CA  UNL     1      35.336 -19.396 -20.908  0.00  0.00    +0.101 C 
ATOM     28  CB  UNL     1      33.839 -19.403 -21.191  0.00  0.00    +0.024 C 
BRANCH  27  29
ATOM     29  C   UNL     1      35.946 -18.027 -21.205  0.00  0.00    +0.157 C 
BRANCH  29  30
ATOM     30  O   UNL     1      37.336 -18.177 -21.465  0.00  0.00    -0.380 OA
ATOM     31  H   UNL     1      37.721 -18.794 -20.822  0.00  0.00    +0.211 HD
ENDBRANCH  29  30
ENDBRANCH  27  29
ENDBRANCH  24  27
ENDBRANCH  19  25
ENDBRANCH   4  21
TORSDOF 6
ENDMDL
MODEL 9
REMARK VINA RESULT:      -8.8     13.031     17.351
REMARK  Name = 25113172
REMARK  6 active torsions:
REMARK  status: ('A' for Active; 'I' for Inactive)
REMARK    1  A    between atoms: N_1  and  C_9
REMARK    2  A    between atoms: C_4  and  C_21
REMARK    3  A    between atoms: C_19  and  C_25
REMARK    4  A    between atoms: N_24  and  CA_27
REMARK    5  A    between atoms: CA_27  and  C_29
REMARK    6  A    between atoms: C_29  and  O_30
REMARK                            x       y       z     vdW  Elec       q    Type
REMARK                         _______ _______ _______ _____ _____    ______ ____
ROOT
ATOM      1  N   UNL     1      32.153 -12.227 -20.551  0.00  0.00    -0.247 N 
ATOM      2  N   UNL     1      31.985 -10.094 -21.514  0.00  0.00    -0.334 NA
ATOM      3  N   UNL     1      31.366 -10.466 -19.215  0.00  0.00    -0.170 NA
ATOM      4  C   UNL     1      31.655  -8.795 -21.354  0.00  0.00    +0.181 C 
ATOM      5  C   UNL     1      31.817 -10.862 -20.421  0.00  0.00    +0.149 C 
ATOM      6  C   UNL     1      31.181  -8.264 -20.172  0.00  0.00    +0.058 C 
ATOM      7  C   UNL     1      31.055  -9.156 -19.126  0.00  0.00    +0.114 C 
ATOM      8  H   UNL     1      32.017 -12.748 -19.728  0.00  0.00    +0.165 HD
ENDROOT
BRANCH   1   9
ATOM      9  C   UNL     1      32.646 -12.987 -21.627  0.00  0.00    +0.057 C 
ATOM     10  C   UNL     1      33.892 -14.889 -22.447  0.00  0.00    -0.021 C 
ATOM     11  C   UNL     1      32.871 -13.350 -24.005  0.00  0.00    -0.021 C 
ATOM     12  C   UNL     1      32.382 -12.596 -22.939  0.00  0.00    +0.011 C 
ATOM     13  C   UNL     1      33.401 -14.134 -21.380  0.00  0.00    +0.011 C 
ATOM     14  C   UNL     1      33.626 -14.497 -23.759  0.00  0.00    -0.008 C 
ATOM     15  C   UNL     1      34.700 -16.115 -22.183  0.00  0.00    +0.031 C 
ATOM     16  C   UNL     1      32.587 -12.932 -25.408  0.00  0.00    +0.031 C 
ENDBRANCH   1   9
BRANCH   4  21
ATOM     17  S   UNL     1      33.222  -6.966 -22.621  0.00  0.00    -0.065 S 
ATOM     18  N   UNL     1      31.015  -7.936 -23.554  0.00  0.00    -0.400 NA
ATOM     19  C   UNL     1      32.693  -6.420 -24.158  0.00  0.00    +0.178 C 
ATOM     20  C   UNL     1      31.508  -7.045 -24.488  0.00  0.00    +0.107 C 
ATOM     21  C   UNL     1      31.837  -7.975 -22.529  0.00  0.00    +0.187 C 
ATOM     22  C   UNL     1      30.734  -6.844 -25.730  0.00  0.00    +0.063 C 
BRANCH  19  25
ATOM     23  O   UNL     1      34.001  -4.479 -24.299  0.00  0.00    -0.274 OA
ATOM     24  N   UNL     1      33.631  -5.649 -26.266  0.00  0.00    -0.302 N 
ATOM     25  C   ACE A   0      33.496  -5.421 -24.906  0.00  0.00    +0.239 C 
ATOM     26  H   UNL     1      33.185  -6.434 -26.662  0.00  0.00    +0.149 HD
BRANCH  24  27
ATOM     27  CA  UNL     1      34.402  -4.780 -27.126  0.00  0.00    +0.101 C 
ATOM     28  CB  UNL     1      35.837  -5.282 -27.218  0.00  0.00    +0.024 C 
BRANCH  27  29
ATOM     29  C   UNL     1      33.762  -4.683 -28.509  0.00  0.00    +0.157 C 
BRANCH  29  30
ATOM     30  O   UNL     1      33.013  -5.865 -28.766  0.00  0.00    -0.380 OA
ATOM     31  H   UNL     1      32.885  -6.353 -27.937  0.00  0.00    +0.211 HD
ENDBRANCH  29  30
ENDBRANCH  27  29
ENDBRANCH  24  27
ENDBRANCH  19  25
ENDBRANCH   4  21
TORSDOF 6
ENDMDL
