MODEL 1
REMARK VINA RESULT:     -11.5      0.000      0.000
REMARK  Name = 11547499
REMARK  10 active torsions:
REMARK  status: ('A' for Active; 'I' for Inactive)
REMARK    1  A    between atoms: C_2  and  C_25
REMARK    2  A    between atoms: C_5  and  N_10
REMARK    3  A    between atoms: N_11  and  C_16
REMARK    4  A    between atoms: C_16  and  C_17
REMARK    5  A    between atoms: C_17  and  O_18
REMARK    6  A    between atoms: C_17  and  C_20
REMARK    7  A    between atoms: C_20  and  O_21
REMARK    8  A    between atoms: N_24  and  C_27
REMARK    9  A    between atoms: C_27  and  C_28
REMARK   10  A    between atoms: C_28  and  O_35
REMARK                            x       y       z     vdW  Elec       q    Type
REMARK                         _______ _______ _______ _____ _____    ______ ____
ROOT
ATOM      1 CL   UNL     1      35.809 -21.411 -18.915  0.00  0.00    -0.082 Cl
ATOM      2  C   UNL     1      33.976 -19.914 -20.272  0.00  0.00    +0.065 C 
ATOM      3  C   UNL     1      33.616 -18.882 -21.139  0.00  0.00    +0.022 C 
ATOM      4  C   UNL     1      35.320 -20.143 -19.982  0.00  0.00    +0.062 C 
ATOM      5  C   UNL     1      34.600 -18.080 -21.717  0.00  0.00    +0.078 C 
ATOM      6  C   UNL     1      36.306 -19.342 -20.559  0.00  0.00    +0.013 C 
ATOM      7  C   UNL     1      35.946 -18.311 -21.426  0.00  0.00    +0.018 C 
ENDROOT
BRANCH   5  10
ATOM      8  O   UNL     1      34.351 -15.230 -21.105  0.00  0.00    -0.250 OA
ATOM      9  O   UNL     1      33.310 -14.465 -25.562  0.00  0.00    -0.268 OA
ATOM     10  N   UNL     1      34.228 -17.012 -22.613  0.00  0.00    -0.142 N 
ATOM     11  N   UNL     1      33.893 -14.756 -23.303  0.00  0.00    -0.205 N 
ATOM     12  N   UNL     1      33.897 -17.454 -23.862  0.00  0.00    -0.164 NA
ATOM     13  C   UNL     1      34.183 -15.651 -22.253  0.00  0.00    +0.336 C 
ATOM     14  C   UNL     1      33.587 -15.152 -24.589  0.00  0.00    +0.277 C 
ATOM     15  C   UNL     1      33.594 -16.615 -24.784  0.00  0.00    +0.176 C 
BRANCH  11  16
ATOM     16  C   UNL     1      33.881 -13.331 -22.995  0.00  0.00    +0.135 C 
BRANCH  16  17
ATOM     17  C   UNL     1      32.490 -12.812 -22.635  0.00  0.00    +0.160 C 
BRANCH  17  18
ATOM     18  O   UNL     1      32.232 -13.059 -21.252  0.00  0.00    -0.380 OA
ATOM     19  H   UNL     1      32.189 -14.016 -21.097  0.00  0.00    +0.211 HD
ENDBRANCH  17  18
BRANCH  17  20
ATOM     20  C   UNL     1      32.321 -11.319 -22.899  0.00  0.00    +0.173 C 
BRANCH  20  21
ATOM     21  O   UNL     1      31.594 -10.741 -21.818  0.00  0.00    -0.348 OA
ATOM     22  C   UNL     1      30.911  -9.564 -22.224  0.00  0.00    +0.174 C 
ENDBRANCH  20  21
ENDBRANCH  17  20
ENDBRANCH  16  17
ENDBRANCH  11  16
ENDBRANCH   5  10
BRANCH   2  25
ATOM     23  O   UNL     1      31.948 -21.084 -20.388  0.00  0.00    -0.270 OA
ATOM     24  N   UNL     1      33.043 -21.098 -18.342  0.00  0.00    -0.299 N 
ATOM     25  C   UNL     1      32.892 -20.742 -19.682  0.00  0.00    +0.247 C 
ATOM     26  H   UNL     1      33.836 -20.775 -17.856  0.00  0.00    +0.150 HD
BRANCH  24  27
ATOM     27  C   UNL     1      32.100 -21.910 -17.643  0.00  0.00    +0.117 C 
BRANCH  27  28
ATOM     28  C   UNL     1      32.810 -23.048 -16.895  0.00  0.00    +0.106 C 
ATOM     29  C   UNL     1      34.141 -22.525 -16.329  0.00  0.00    +0.029 C 
ATOM     30  C   UNL     1      31.869 -23.702 -15.868  0.00  0.00    +0.029 C 
ATOM     31  C   UNL     1      34.787 -23.416 -15.268  0.00  0.00    +0.002 C 
ATOM     32  C   UNL     1      31.803 -23.016 -14.505  0.00  0.00    +0.002 C 
ATOM     33  C   UNL     1      34.299 -23.096 -13.855  0.00  0.00    +0.000 C 
ATOM     34  C   UNL     1      32.872 -23.531 -13.542  0.00  0.00    +0.000 C 
BRANCH  28  35
ATOM     35  O   UNL     1      33.131 -24.051 -17.871  0.00  0.00    -0.385 OA
ATOM     36  H   UNL     1      32.317 -24.492 -18.162  0.00  0.00    +0.210 HD
ENDBRANCH  28  35
ENDBRANCH  27  28
ENDBRANCH  24  27
ENDBRANCH   2  25
TORSDOF 10
ENDMDL
MODEL 2
REMARK VINA RESULT:     -11.0      1.704      2.449
REMARK  Name = 11547499
REMARK  10 active torsions:
REMARK  status: ('A' for Active; 'I' for Inactive)
REMARK    1  A    between atoms: C_2  and  C_25
REMARK    2  A    between atoms: C_5  and  N_10
REMARK    3  A    between atoms: N_11  and  C_16
REMARK    4  A    between atoms: C_16  and  C_17
REMARK    5  A    between atoms: C_17  and  O_18
REMARK    6  A    between atoms: C_17  and  C_20
REMARK    7  A    between atoms: C_20  and  O_21
REMARK    8  A    between atoms: N_24  and  C_27
REMARK    9  A    between atoms: C_27  and  C_28
REMARK   10  A    between atoms: C_28  and  O_35
REMARK                            x       y       z     vdW  Elec       q    Type
REMARK                         _______ _______ _______ _____ _____    ______ ____
ROOT
ATOM      1 CL   UNL     1      36.226 -22.027 -17.154  0.00  0.00    -0.082 Cl
ATOM      2  C   UNL     1      34.541 -21.276 -19.164  0.00  0.00    +0.065 C 
ATOM      3  C   UNL     1      34.167 -20.449 -20.224  0.00  0.00    +0.022 C 
ATOM      4  C   UNL     1      35.725 -21.027 -18.470  0.00  0.00    +0.062 C 
ATOM      5  C   UNL     1      34.976 -19.374 -20.589  0.00  0.00    +0.078 C 
ATOM      6  C   UNL     1      36.534 -19.951 -18.835  0.00  0.00    +0.013 C 
ATOM      7  C   UNL     1      36.160 -19.124 -19.894  0.00  0.00    +0.018 C 
ENDROOT
BRANCH   5  10
ATOM      8  O   UNL     1      34.957 -16.449 -20.660  0.00  0.00    -0.250 OA
ATOM      9  O   UNL     1      33.556 -16.662 -25.078  0.00  0.00    -0.268 OA
ATOM     10  N   UNL     1      34.587 -18.517 -21.684  0.00  0.00    -0.142 N 
ATOM     11  N   UNL     1      34.326 -16.465 -22.866  0.00  0.00    -0.205 N 
ATOM     12  N   UNL     1      34.116 -19.210 -22.762  0.00  0.00    -0.164 NA
ATOM     13  C   UNL     1      34.658 -17.111 -21.658  0.00  0.00    +0.336 C 
ATOM     14  C   UNL     1      33.879 -17.124 -23.993  0.00  0.00    +0.277 C 
ATOM     15  C   UNL     1      33.780 -18.587 -23.833  0.00  0.00    +0.176 C 
BRANCH  11  16
ATOM     16  C   UNL     1      34.430 -15.011 -22.908  0.00  0.00    +0.135 C 
BRANCH  16  17
ATOM     17  C   UNL     1      33.302 -14.313 -22.150  0.00  0.00    +0.160 C 
BRANCH  17  18
ATOM     18  O   UNL     1      33.831 -13.678 -20.985  0.00  0.00    -0.380 OA
ATOM     19  H   UNL     1      34.798 -13.751 -20.989  0.00  0.00    +0.211 HD
ENDBRANCH  17  18
BRANCH  17  20
ATOM     20  C   UNL     1      32.578 -13.262 -22.987  0.00  0.00    +0.173 C 
BRANCH  20  21
ATOM     21  O   UNL     1      32.943 -11.968 -22.515  0.00  0.00    -0.348 OA
ATOM     22  C   UNL     1      33.293 -11.106 -23.587  0.00  0.00    +0.174 C 
ENDBRANCH  20  21
ENDBRANCH  17  20
ENDBRANCH  16  17
ENDBRANCH  11  16
ENDBRANCH   5  10
BRANCH   2  25
ATOM     23  O   UNL     1      33.483 -23.317 -19.623  0.00  0.00    -0.270 OA
ATOM     24  N   UNL     1      33.066 -22.372 -17.545  0.00  0.00    -0.299 N 
ATOM     25  C   UNL     1      33.649 -22.411 -18.812  0.00  0.00    +0.247 C 
ATOM     26  H   UNL     1      33.258 -21.602 -16.963  0.00  0.00    +0.150 HD
BRANCH  24  27
ATOM     27  C   UNL     1      32.206 -23.401 -17.054  0.00  0.00    +0.117 C 
BRANCH  27  28
ATOM     28  C   UNL     1      31.088 -22.806 -16.185  0.00  0.00    +0.106 C 
ATOM     29  C   UNL     1      30.047 -23.899 -15.890  0.00  0.00    +0.029 C 
ATOM     30  C   UNL     1      31.670 -22.099 -14.949  0.00  0.00    +0.029 C 
ATOM     31  C   UNL     1      29.073 -23.573 -14.757  0.00  0.00    +0.002 C 
ATOM     32  C   UNL     1      31.954 -22.999 -13.748  0.00  0.00    +0.002 C 
ATOM     33  C   UNL     1      29.602 -23.998 -13.387  0.00  0.00    +0.000 C 
ATOM     34  C   UNL     1      30.739 -23.147 -12.832  0.00  0.00    +0.000 C 
BRANCH  28  35
ATOM     35  O   UNL     1      30.435 -21.802 -16.977  0.00  0.00    -0.385 OA
ATOM     36  H   UNL     1      30.676 -20.923 -16.647  0.00  0.00    +0.210 HD
ENDBRANCH  28  35
ENDBRANCH  27  28
ENDBRANCH  24  27
ENDBRANCH   2  25
TORSDOF 10
ENDMDL
MODEL 3
REMARK VINA RESULT:     -11.0      2.933      5.725
REMARK  Name = 11547499
REMARK  10 active torsions:
REMARK  status: ('A' for Active; 'I' for Inactive)
REMARK    1  A    between atoms: C_2  and  C_25
REMARK    2  A    between atoms: C_5  and  N_10
REMARK    3  A    between atoms: N_11  and  C_16
REMARK    4  A    between atoms: C_16  and  C_17
REMARK    5  A    between atoms: C_17  and  O_18
REMARK    6  A    between atoms: C_17  and  C_20
REMARK    7  A    between atoms: C_20  and  O_21
REMARK    8  A    between atoms: N_24  and  C_27
REMARK    9  A    between atoms: C_27  and  C_28
REMARK   10  A    between atoms: C_28  and  O_35
REMARK                            x       y       z     vdW  Elec       q    Type
REMARK                         _______ _______ _______ _____ _____    ______ ____
ROOT
ATOM      1 CL   UNL     1      37.250 -23.557 -13.914  0.00  0.00    -0.082 Cl
ATOM      2  C   UNL     1      35.055 -23.105 -15.469  0.00  0.00    +0.065 C 
ATOM      3  C   UNL     1      34.405 -22.518 -16.556  0.00  0.00    +0.022 C 
ATOM      4  C   UNL     1      36.407 -22.850 -15.246  0.00  0.00    +0.062 C 
ATOM      5  C   UNL     1      35.107 -21.677 -17.418  0.00  0.00    +0.078 C 
ATOM      6  C   UNL     1      37.110 -22.007 -16.108  0.00  0.00    +0.013 C 
ATOM      7  C   UNL     1      36.460 -21.421 -17.194  0.00  0.00    +0.018 C 
ENDROOT
BRANCH   5  10
ATOM      8  O   UNL     1      36.281 -20.049 -19.546  0.00  0.00    -0.250 OA
ATOM      9  O   UNL     1      32.087 -19.767 -21.511  0.00  0.00    -0.268 OA
ATOM     10  N   UNL     1      34.434 -21.068 -18.540  0.00  0.00    -0.142 N 
ATOM     11  N   UNL     1      34.256 -19.914 -20.617  0.00  0.00    -0.205 N 
ATOM     12  N   UNL     1      33.081 -21.250 -18.513  0.00  0.00    -0.164 NA
ATOM     13  C   UNL     1      35.082 -20.341 -19.557  0.00  0.00    +0.336 C 
ATOM     14  C   UNL     1      32.890 -20.105 -20.653  0.00  0.00    +0.277 C 
ATOM     15  C   UNL     1      32.352 -20.810 -19.474  0.00  0.00    +0.176 C 
BRANCH  11  16
ATOM     16  C   UNL     1      34.885 -19.198 -21.721  0.00  0.00    +0.135 C 
BRANCH  16  17
ATOM     17  C   UNL     1      35.468 -17.851 -21.299  0.00  0.00    +0.160 C 
BRANCH  17  18
ATOM     18  O   UNL     1      36.887 -17.871 -21.467  0.00  0.00    -0.380 OA
ATOM     19  H   UNL     1      37.170 -18.764 -21.717  0.00  0.00    +0.211 HD
ENDBRANCH  17  18
BRANCH  17  20
ATOM     20  C   UNL     1      34.904 -16.678 -22.095  0.00  0.00    +0.173 C 
BRANCH  20  21
ATOM     21  O   UNL     1      34.572 -15.627 -21.192  0.00  0.00    -0.348 OA
ATOM     22  C   UNL     1      33.880 -14.577 -21.852  0.00  0.00    +0.174 C 
ENDBRANCH  20  21
ENDBRANCH  17  20
ENDBRANCH  16  17
ENDBRANCH  11  16
ENDBRANCH   5  10
BRANCH   2  25
ATOM     23  O   UNL     1      34.778 -25.029 -14.158  0.00  0.00    -0.270 OA
ATOM     24  N   UNL     1      32.975 -23.571 -14.263  0.00  0.00    -0.299 N 
ATOM     25  C   UNL     1      34.266 -23.996 -14.580  0.00  0.00    +0.247 C 
ATOM     26  H   UNL     1      32.650 -22.727 -14.650  0.00  0.00    +0.150 HD
BRANCH  24  27
ATOM     27  C   UNL     1      32.106 -24.306 -13.401  0.00  0.00    +0.117 C 
BRANCH  27  28
ATOM     28  C   UNL     1      30.693 -23.702 -13.410  0.00  0.00    +0.106 C 
ATOM     29  C   UNL     1      30.678 -22.474 -14.335  0.00  0.00    +0.029 C 
ATOM     30  C   UNL     1      29.639 -24.778 -13.723  0.00  0.00    +0.029 C 
ATOM     31  C   UNL     1      29.285 -21.982 -14.731  0.00  0.00    +0.002 C 
ATOM     32  C   UNL     1      29.397 -25.049 -15.206  0.00  0.00    +0.002 C 
ATOM     33  C   UNL     1      28.752 -22.675 -15.985  0.00  0.00    +0.000 C 
ATOM     34  C   UNL     1      28.332 -24.129 -15.801  0.00  0.00    +0.000 C 
BRANCH  28  35
ATOM     35  O   UNL     1      30.433 -23.232 -12.078  0.00  0.00    -0.385 OA
ATOM     36  H   UNL     1      29.759 -23.792 -11.663  0.00  0.00    +0.210 HD
ENDBRANCH  28  35
ENDBRANCH  27  28
ENDBRANCH  24  27
ENDBRANCH   2  25
TORSDOF 10
ENDMDL
MODEL 4
REMARK VINA RESULT:     -10.9      3.920     12.157
REMARK  Name = 11547499
REMARK  10 active torsions:
REMARK  status: ('A' for Active; 'I' for Inactive)
REMARK    1  A    between atoms: C_2  and  C_25
REMARK    2  A    between atoms: C_5  and  N_10
REMARK    3  A    between atoms: N_11  and  C_16
REMARK    4  A    between atoms: C_16  and  C_17
REMARK    5  A    between atoms: C_17  and  O_18
REMARK    6  A    between atoms: C_17  and  C_20
REMARK    7  A    between atoms: C_20  and  O_21
REMARK    8  A    between atoms: N_24  and  C_27
REMARK    9  A    between atoms: C_27  and  C_28
REMARK   10  A    between atoms: C_28  and  O_35
REMARK                            x       y       z     vdW  Elec       q    Type
REMARK                         _______ _______ _______ _____ _____    ______ ____
ROOT
ATOM      1 CL   UNL     1      30.777  -9.192 -19.671  0.00  0.00    -0.082 Cl
ATOM      2  C   UNL     1      31.659 -10.396 -21.955  0.00  0.00    +0.065 C 
ATOM      3  C   UNL     1      32.197 -11.474 -22.660  0.00  0.00    +0.022 C 
ATOM      4  C   UNL     1      31.443 -10.500 -20.582  0.00  0.00    +0.062 C 
ATOM      5  C   UNL     1      32.519 -12.654 -21.991  0.00  0.00    +0.078 C 
ATOM      6  C   UNL     1      31.765 -11.682 -19.912  0.00  0.00    +0.013 C 
ATOM      7  C   UNL     1      32.303 -12.758 -20.617  0.00  0.00    +0.018 C 
ENDROOT
BRANCH   5  10
ATOM      8  O   UNL     1      34.232 -14.792 -20.965  0.00  0.00    -0.250 OA
ATOM      9  O   UNL     1      34.205 -16.709 -25.191  0.00  0.00    -0.268 OA
ATOM     10  N   UNL     1      33.078 -13.768 -22.720  0.00  0.00    -0.142 N 
ATOM     11  N   UNL     1      34.219 -15.840 -23.006  0.00  0.00    -0.205 N 
ATOM     12  N   UNL     1      32.796 -13.726 -24.056  0.00  0.00    -0.164 NA
ATOM     13  C   UNL     1      33.853 -14.790 -22.139  0.00  0.00    +0.336 C 
ATOM     14  C   UNL     1      33.927 -15.861 -24.355  0.00  0.00    +0.277 C 
ATOM     15  C   UNL     1      33.182 -14.677 -24.826  0.00  0.00    +0.176 C 
BRANCH  11  16
ATOM     16  C   UNL     1      34.981 -16.949 -22.445  0.00  0.00    +0.135 C 
BRANCH  16  17
ATOM     17  C   UNL     1      34.139 -18.208 -22.246  0.00  0.00    +0.160 C 
BRANCH  17  18
ATOM     18  O   UNL     1      34.222 -19.027 -23.413  0.00  0.00    -0.380 OA
ATOM     19  H   UNL     1      33.328 -19.255 -23.713  0.00  0.00    +0.211 HD
ENDBRANCH  17  18
BRANCH  17  20
ATOM     20  C   UNL     1      34.575 -19.037 -21.042  0.00  0.00    +0.173 C 
BRANCH  20  21
ATOM     21  O   UNL     1      33.490 -19.865 -20.636  0.00  0.00    -0.348 OA
ATOM     22  C   UNL     1      33.857 -20.707 -19.554  0.00  0.00    +0.174 C 
ENDBRANCH  20  21
ENDBRANCH  17  20
ENDBRANCH  16  17
ENDBRANCH  11  16
ENDBRANCH   5  10
BRANCH   2  25
ATOM     23  O   UNL     1      30.154  -8.876 -22.912  0.00  0.00    -0.270 OA
ATOM     24  N   UNL     1      32.411  -8.381 -23.126  0.00  0.00    -0.299 N 
ATOM     25  C   UNL     1      31.331  -9.160 -22.710  0.00  0.00    +0.247 C 
ATOM     26  H   UNL     1      33.321  -8.692 -22.918  0.00  0.00    +0.150 HD
BRANCH  24  27
ATOM     27  C   UNL     1      32.255  -7.154 -23.839  0.00  0.00    +0.117 C 
BRANCH  27  28
ATOM     28  C   UNL     1      32.533  -5.953 -22.923  0.00  0.00    +0.106 C 
ATOM     29  C   UNL     1      32.053  -4.668 -23.619  0.00  0.00    +0.029 C 
ATOM     30  C   UNL     1      31.961  -6.193 -21.515  0.00  0.00    +0.029 C 
ATOM     31  C   UNL     1      31.927  -3.448 -22.706  0.00  0.00    +0.002 C 
ATOM     32  C   UNL     1      30.488  -5.833 -21.332  0.00  0.00    +0.002 C 
ATOM     33  C   UNL     1      30.555  -3.352 -22.039  0.00  0.00    +0.000 C 
ATOM     34  C   UNL     1      30.291  -4.370 -20.936  0.00  0.00    +0.000 C 
BRANCH  28  35
ATOM     35  O   UNL     1      33.959  -5.853 -22.788  0.00  0.00    -0.385 OA
ATOM     36  H   UNL     1      34.358  -5.724 -23.662  0.00  0.00    +0.210 HD
ENDBRANCH  28  35
ENDBRANCH  27  28
ENDBRANCH  24  27
ENDBRANCH   2  25
TORSDOF 10
ENDMDL
MODEL 5
REMARK VINA RESULT:     -10.9      3.171      9.793
REMARK  Name = 11547499
REMARK  10 active torsions:
REMARK  status: ('A' for Active; 'I' for Inactive)
REMARK    1  A    between atoms: C_2  and  C_25
REMARK    2  A    between atoms: C_5  and  N_10
REMARK    3  A    between atoms: N_11  and  C_16
REMARK    4  A    between atoms: C_16  and  C_17
REMARK    5  A    between atoms: C_17  and  O_18
REMARK    6  A    between atoms: C_17  and  C_20
REMARK    7  A    between atoms: C_20  and  O_21
REMARK    8  A    between atoms: N_24  and  C_27
REMARK    9  A    between atoms: C_27  and  C_28
REMARK   10  A    between atoms: C_28  and  O_35
REMARK                            x       y       z     vdW  Elec       q    Type
REMARK                         _______ _______ _______ _____ _____    ______ ____
ROOT
ATOM      1 CL   UNL     1      36.136 -20.471 -19.759  0.00  0.00    -0.082 Cl
ATOM      2  C   UNL     1      33.569 -21.051 -19.038  0.00  0.00    +0.065 C 
ATOM      3  C   UNL     1      32.618 -21.614 -18.185  0.00  0.00    +0.022 C 
ATOM      4  C   UNL     1      34.926 -21.154 -18.732  0.00  0.00    +0.062 C 
ATOM      5  C   UNL     1      33.024 -22.279 -17.029  0.00  0.00    +0.078 C 
ATOM      6  C   UNL     1      35.332 -21.820 -17.575  0.00  0.00    +0.013 C 
ATOM      7  C   UNL     1      34.381 -22.382 -16.724  0.00  0.00    +0.018 C 
ENDROOT
BRANCH   5  10
ATOM      8  O   UNL     1      30.110 -22.178 -17.277  0.00  0.00    -0.250 OA
ATOM      9  O   UNL     1      29.794 -24.816 -13.472  0.00  0.00    -0.268 OA
ATOM     10  N   UNL     1      32.040 -22.862 -16.149  0.00  0.00    -0.142 N 
ATOM     11  N   UNL     1      29.866 -23.533 -15.441  0.00  0.00    -0.205 N 
ATOM     12  N   UNL     1      32.593 -23.457 -15.051  0.00  0.00    -0.164 NA
ATOM     13  C   UNL     1      30.650 -22.815 -16.367  0.00  0.00    +0.336 C 
ATOM     14  C   UNL     1      30.380 -24.181 -14.336  0.00  0.00    +0.277 C 
ATOM     15  C   UNL     1      31.846 -24.066 -14.203  0.00  0.00    +0.176 C 
BRANCH  11  16
ATOM     16  C   UNL     1      28.423 -23.558 -15.648  0.00  0.00    +0.135 C 
BRANCH  16  17
ATOM     17  C   UNL     1      27.697 -22.433 -14.911  0.00  0.00    +0.160 C 
BRANCH  17  18
ATOM     18  O   UNL     1      28.566 -21.306 -14.788  0.00  0.00    -0.380 OA
ATOM     19  H   UNL     1      29.055 -21.365 -13.953  0.00  0.00    +0.211 HD
ENDBRANCH  17  18
BRANCH  17  20
ATOM     20  C   UNL     1      26.419 -21.985 -15.613  0.00  0.00    +0.173 C 
BRANCH  20  21
ATOM     21  O   UNL     1      26.770 -21.227 -16.767  0.00  0.00    -0.348 OA
ATOM     22  C   UNL     1      25.619 -20.842 -17.504  0.00  0.00    +0.174 C 
ENDBRANCH  20  21
ENDBRANCH  17  20
ENDBRANCH  16  17
ENDBRANCH  11  16
ENDBRANCH   5  10
BRANCH   2  25
ATOM     23  O   UNL     1      31.896 -20.391 -20.541  0.00  0.00    -0.270 OA
ATOM     24  N   UNL     1      34.052 -19.663 -20.996  0.00  0.00    -0.299 N 
ATOM     25  C   UNL     1      33.090 -20.351 -20.257  0.00  0.00    +0.247 C 
ATOM     26  H   UNL     1      34.987 -19.689 -20.690  0.00  0.00    +0.150 HD
BRANCH  24  27
ATOM     27  C   UNL     1      33.742 -18.923 -22.177  0.00  0.00    +0.117 C 
BRANCH  27  28
ATOM     28  C   UNL     1      34.674 -17.710 -22.320  0.00  0.00    +0.106 C 
ATOM     29  C   UNL     1      34.194 -16.843 -23.496  0.00  0.00    +0.029 C 
ATOM     30  C   UNL     1      34.828 -16.975 -20.978  0.00  0.00    +0.029 C 
ATOM     31  C   UNL     1      34.786 -15.434 -23.543  0.00  0.00    +0.002 C 
ATOM     32  C   UNL     1      33.743 -15.947 -20.663  0.00  0.00    +0.002 C 
ATOM     33  C   UNL     1      33.969 -14.426 -22.735  0.00  0.00    +0.000 C 
ATOM     34  C   UNL     1      34.074 -14.563 -21.220  0.00  0.00    +0.000 C 
BRANCH  28  35
ATOM     35  O   UNL     1      35.969 -18.220 -22.672  0.00  0.00    -0.385 OA
ATOM     36  H   UNL     1      36.132 -19.048 -22.193  0.00  0.00    +0.210 HD
ENDBRANCH  28  35
ENDBRANCH  27  28
ENDBRANCH  24  27
ENDBRANCH   2  25
TORSDOF 10
ENDMDL
MODEL 6
REMARK VINA RESULT:     -10.8      3.714      9.846
REMARK  Name = 11547499
REMARK  10 active torsions:
REMARK  status: ('A' for Active; 'I' for Inactive)
REMARK    1  A    between atoms: C_2  and  C_25
REMARK    2  A    between atoms: C_5  and  N_10
REMARK    3  A    between atoms: N_11  and  C_16
REMARK    4  A    between atoms: C_16  and  C_17
REMARK    5  A    between atoms: C_17  and  O_18
REMARK    6  A    between atoms: C_17  and  C_20
REMARK    7  A    between atoms: C_20  and  O_21
REMARK    8  A    between atoms: N_24  and  C_27
REMARK    9  A    between atoms: C_27  and  C_28
REMARK   10  A    between atoms: C_28  and  O_35
REMARK                            x       y       z     vdW  Elec       q    Type
REMARK                         _______ _______ _______ _____ _____    ______ ____
ROOT
ATOM      1 CL   UNL     1      36.846 -21.370 -17.046  0.00  0.00    -0.082 Cl
ATOM      2  C   UNL     1      34.268 -22.101 -17.563  0.00  0.00    +0.065 C 
ATOM      3  C   UNL     1      33.010 -22.566 -17.177  0.00  0.00    +0.022 C 
ATOM      4  C   UNL     1      35.275 -21.944 -16.612  0.00  0.00    +0.062 C 
ATOM      5  C   UNL     1      32.760 -22.873 -15.840  0.00  0.00    +0.078 C 
ATOM      6  C   UNL     1      35.025 -22.251 -15.273  0.00  0.00    +0.013 C 
ATOM      7  C   UNL     1      33.768 -22.715 -14.888  0.00  0.00    +0.018 C 
ENDROOT
BRANCH   5  10
ATOM      8  O   UNL     1      30.146 -22.014 -16.833  0.00  0.00    -0.250 OA
ATOM      9  O   UNL     1      28.168 -25.176 -14.071  0.00  0.00    -0.268 OA
ATOM     10  N   UNL     1      31.460 -23.355 -15.440  0.00  0.00    -0.142 N 
ATOM     11  N   UNL     1      29.092 -23.595 -15.546  0.00  0.00    -0.205 N 
ATOM     12  N   UNL     1      31.518 -24.268 -14.426  0.00  0.00    -0.164 NA
ATOM     13  C   UNL     1      30.244 -22.927 -16.008  0.00  0.00    +0.336 C 
ATOM     14  C   UNL     1      29.103 -24.550 -14.550  0.00  0.00    +0.277 C 
ATOM     15  C   UNL     1      30.444 -24.826 -13.999  0.00  0.00    +0.176 C 
BRANCH  11  16
ATOM     16  C   UNL     1      27.811 -23.225 -16.136  0.00  0.00    +0.135 C 
BRANCH  16  17
ATOM     17  C   UNL     1      27.008 -22.265 -15.258  0.00  0.00    +0.160 C 
BRANCH  17  18
ATOM     18  O   UNL     1      27.870 -21.241 -14.760  0.00  0.00    -0.380 OA
ATOM     19  H   UNL     1      27.803 -21.205 -13.793  0.00  0.00    +0.211 HD
ENDBRANCH  17  18
BRANCH  17  20
ATOM     20  C   UNL     1      25.849 -21.604 -15.998  0.00  0.00    +0.173 C 
BRANCH  20  21
ATOM     21  O   UNL     1      26.358 -20.947 -17.156  0.00  0.00    -0.348 OA
ATOM     22  C   UNL     1      25.569 -21.231 -18.301  0.00  0.00    +0.174 C 
ENDBRANCH  20  21
ENDBRANCH  17  20
ENDBRANCH  16  17
ENDBRANCH  11  16
ENDBRANCH   5  10
BRANCH   2  25
ATOM     23  O   UNL     1      34.175 -22.614 -19.849  0.00  0.00    -0.270 OA
ATOM     24  N   UNL     1      35.025 -20.530 -19.282  0.00  0.00    -0.299 N 
ATOM     25  C   UNL     1      34.487 -21.786 -18.998  0.00  0.00    +0.247 C 
ATOM     26  H   UNL     1      35.245 -19.933 -18.531  0.00  0.00    +0.150 HD
BRANCH  24  27
ATOM     27  C   UNL     1      35.270 -20.072 -20.612  0.00  0.00    +0.117 C 
BRANCH  27  28
ATOM     28  C   UNL     1      34.320 -18.921 -20.976  0.00  0.00    +0.106 C 
ATOM     29  C   UNL     1      35.062 -17.585 -20.805  0.00  0.00    +0.029 C 
ATOM     30  C   UNL     1      33.683 -19.151 -22.357  0.00  0.00    +0.029 C 
ATOM     31  C   UNL     1      34.384 -16.382 -21.463  0.00  0.00    +0.002 C 
ATOM     32  C   UNL     1      34.510 -18.678 -23.550  0.00  0.00    +0.002 C 
ATOM     33  C   UNL     1      34.806 -16.193 -22.920  0.00  0.00    +0.000 C 
ATOM     34  C   UNL     1      34.243 -17.215 -23.901  0.00  0.00    +0.000 C 
BRANCH  28  35
ATOM     35  O   UNL     1      33.256 -18.940 -20.012  0.00  0.00    -0.385 OA
ATOM     36  H   UNL     1      32.451 -19.291 -20.425  0.00  0.00    +0.210 HD
ENDBRANCH  28  35
ENDBRANCH  27  28
ENDBRANCH  24  27
ENDBRANCH   2  25
TORSDOF 10
ENDMDL
MODEL 7
REMARK VINA RESULT:     -10.5      4.321     12.661
REMARK  Name = 11547499
REMARK  10 active torsions:
REMARK  status: ('A' for Active; 'I' for Inactive)
REMARK    1  A    between atoms: C_2  and  C_25
REMARK    2  A    between atoms: C_5  and  N_10
REMARK    3  A    between atoms: N_11  and  C_16
REMARK    4  A    between atoms: C_16  and  C_17
REMARK    5  A    between atoms: C_17  and  O_18
REMARK    6  A    between atoms: C_17  and  C_20
REMARK    7  A    between atoms: C_20  and  O_21
REMARK    8  A    between atoms: N_24  and  C_27
REMARK    9  A    between atoms: C_27  and  C_28
REMARK   10  A    between atoms: C_28  and  O_35
REMARK                            x       y       z     vdW  Elec       q    Type
REMARK                         _______ _______ _______ _____ _____    ______ ____
ROOT
ATOM      1 CL   UNL     1      30.587  -8.831 -19.493  0.00  0.00    -0.082 Cl
ATOM      2  C   UNL     1      31.507  -9.930 -21.814  0.00  0.00    +0.065 C 
ATOM      3  C   UNL     1      32.052 -10.977 -22.560  0.00  0.00    +0.022 C 
ATOM      4  C   UNL     1      31.262 -10.099 -20.452  0.00  0.00    +0.062 C 
ATOM      5  C   UNL     1      32.351 -12.191 -21.942  0.00  0.00    +0.078 C 
ATOM      6  C   UNL     1      31.562 -11.314 -19.834  0.00  0.00    +0.013 C 
ATOM      7  C   UNL     1      32.106 -12.359 -20.579  0.00  0.00    +0.018 C 
ENDROOT
BRANCH   5  10
ATOM      8  O   UNL     1      34.201 -14.267 -21.032  0.00  0.00    -0.250 OA
ATOM      9  O   UNL     1      34.035 -16.137 -25.276  0.00  0.00    -0.268 OA
ATOM     10  N   UNL     1      32.917 -13.272 -22.713  0.00  0.00    -0.142 N 
ATOM     11  N   UNL     1      34.125 -15.292 -23.084  0.00  0.00    -0.205 N 
ATOM     12  N   UNL     1      32.566 -13.228 -24.032  0.00  0.00    -0.164 NA
ATOM     13  C   UNL     1      33.762 -14.268 -22.186  0.00  0.00    +0.336 C 
ATOM     14  C   UNL     1      33.766 -15.311 -24.416  0.00  0.00    +0.277 C 
ATOM     15  C   UNL     1      32.950 -14.154 -24.833  0.00  0.00    +0.176 C 
BRANCH  11  16
ATOM     16  C   UNL     1      34.960 -16.374 -22.576  0.00  0.00    +0.135 C 
BRANCH  16  17
ATOM     17  C   UNL     1      34.166 -17.642 -22.266  0.00  0.00    +0.160 C 
BRANCH  17  18
ATOM     18  O   UNL     1      34.163 -18.495 -23.412  0.00  0.00    -0.380 OA
ATOM     19  H   UNL     1      34.496 -19.371 -23.164  0.00  0.00    +0.211 HD
ENDBRANCH  17  18
BRANCH  17  20
ATOM     20  C   UNL     1      34.725 -18.425 -21.082  0.00  0.00    +0.173 C 
BRANCH  20  21
ATOM     21  O   UNL     1      34.292 -19.779 -21.181  0.00  0.00    -0.348 OA
ATOM     22  C   UNL     1      33.298 -20.076 -20.212  0.00  0.00    +0.174 C 
ENDBRANCH  20  21
ENDBRANCH  17  20
ENDBRANCH  16  17
ENDBRANCH  11  16
ENDBRANCH   5  10
BRANCH   2  25
ATOM     23  O   UNL     1      30.159  -8.558 -23.153  0.00  0.00    -0.270 OA
ATOM     24  N   UNL     1      32.139  -7.632 -22.374  0.00  0.00    -0.299 N 
ATOM     25  C   UNL     1      31.202  -8.656 -22.515  0.00  0.00    +0.247 C 
ATOM     26  H   UNL     1      32.948  -7.805 -21.842  0.00  0.00    +0.150 HD
BRANCH  24  27
ATOM     27  C   UNL     1      31.975  -6.343 -22.967  0.00  0.00    +0.117 C 
BRANCH  27  28
ATOM     28  C   UNL     1      32.924  -6.168 -24.162  0.00  0.00    +0.106 C 
ATOM     29  C   UNL     1      32.129  -6.349 -25.466  0.00  0.00    +0.029 C 
ATOM     30  C   UNL     1      33.714  -4.853 -24.048  0.00  0.00    +0.029 C 
ATOM     31  C   UNL     1      32.839  -5.857 -26.728  0.00  0.00    +0.002 C 
ATOM     32  C   UNL     1      33.008  -3.612 -24.588  0.00  0.00    +0.002 C 
ATOM     33  C   UNL     1      32.571  -4.379 -27.013  0.00  0.00    +0.000 C 
ATOM     34  C   UNL     1      33.268  -3.396 -26.078  0.00  0.00    +0.000 C 
BRANCH  28  35
ATOM     35  O   UNL     1      33.878  -7.240 -24.096  0.00  0.00    -0.385 OA
ATOM     36  H   UNL     1      33.704  -7.780 -23.309  0.00  0.00    +0.210 HD
ENDBRANCH  28  35
ENDBRANCH  27  28
ENDBRANCH  24  27
ENDBRANCH   2  25
TORSDOF 10
ENDMDL
MODEL 8
REMARK VINA RESULT:     -10.4      3.582      6.533
REMARK  Name = 11547499
REMARK  10 active torsions:
REMARK  status: ('A' for Active; 'I' for Inactive)
REMARK    1  A    between atoms: C_2  and  C_25
REMARK    2  A    between atoms: C_5  and  N_10
REMARK    3  A    between atoms: N_11  and  C_16
REMARK    4  A    between atoms: C_16  and  C_17
REMARK    5  A    between atoms: C_17  and  O_18
REMARK    6  A    between atoms: C_17  and  C_20
REMARK    7  A    between atoms: C_20  and  O_21
REMARK    8  A    between atoms: N_24  and  C_27
REMARK    9  A    between atoms: C_27  and  C_28
REMARK   10  A    between atoms: C_28  and  O_35
REMARK                            x       y       z     vdW  Elec       q    Type
REMARK                         _______ _______ _______ _____ _____    ______ ____
ROOT
ATOM      1 CL   UNL     1      33.470 -16.529 -24.018  0.00  0.00    -0.082 Cl
ATOM      2  C   UNL     1      33.744 -14.216 -22.597  0.00  0.00    +0.065 C 
ATOM      3  C   UNL     1      33.691 -12.828 -22.466  0.00  0.00    +0.022 C 
ATOM      4  C   UNL     1      33.420 -14.814 -23.814  0.00  0.00    +0.062 C 
ATOM      5  C   UNL     1      33.315 -12.039 -23.553  0.00  0.00    +0.078 C 
ATOM      6  C   UNL     1      33.044 -14.025 -24.901  0.00  0.00    +0.013 C 
ATOM      7  C   UNL     1      32.991 -12.638 -24.771  0.00  0.00    +0.018 C 
ENDROOT
BRANCH   5  10
ATOM      8  O   UNL     1      31.169 -10.422 -22.396  0.00  0.00    -0.250 OA
ATOM      9  O   UNL     1      33.741  -6.636 -23.165  0.00  0.00    -0.268 OA
ATOM     10  N   UNL     1      33.263 -10.602 -23.419  0.00  0.00    -0.142 N 
ATOM     11  N   UNL     1      32.402  -8.507 -22.681  0.00  0.00    -0.205 N 
ATOM     12  N   UNL     1      34.339  -9.975 -23.980  0.00  0.00    -0.164 NA
ATOM     13  C   UNL     1      32.213  -9.899 -22.798  0.00  0.00    +0.336 C 
ATOM     14  C   UNL     1      33.488  -7.832 -23.199  0.00  0.00    +0.277 C 
ATOM     15  C   UNL     1      34.459  -8.700 -23.893  0.00  0.00    +0.176 C 
BRANCH  11  16
ATOM     16  C   UNL     1      31.366  -7.736 -22.002  0.00  0.00    +0.135 C 
BRANCH  16  17
ATOM     17  C   UNL     1      31.888  -6.993 -20.774  0.00  0.00    +0.160 C 
BRANCH  17  18
ATOM     18  O   UNL     1      31.667  -5.591 -20.935  0.00  0.00    -0.380 OA
ATOM     19  H   UNL     1      32.174  -5.105 -20.266  0.00  0.00    +0.211 HD
ENDBRANCH  17  18
BRANCH  17  20
ATOM     20  C   UNL     1      31.224  -7.442 -19.476  0.00  0.00    +0.173 C 
BRANCH  20  21
ATOM     21  O   UNL     1      32.013  -8.471 -18.887  0.00  0.00    -0.348 OA
ATOM     22  C   UNL     1      31.359  -9.729 -18.956  0.00  0.00    +0.174 C 
ENDBRANCH  20  21
ENDBRANCH  17  20
ENDBRANCH  16  17
ENDBRANCH  11  16
ENDBRANCH   5  10
BRANCH   2  25
ATOM     23  O   UNL     1      34.051 -14.520 -20.293  0.00  0.00    -0.270 OA
ATOM     24  N   UNL     1      34.599 -16.312 -21.662  0.00  0.00    -0.299 N 
ATOM     25  C   UNL     1      34.148 -15.015 -21.412  0.00  0.00    +0.247 C 
ATOM     26  H   UNL     1      34.642 -16.622 -22.595  0.00  0.00    +0.150 HD
BRANCH  24  27
ATOM     27  C   UNL     1      34.998 -17.209 -20.626  0.00  0.00    +0.117 C 
BRANCH  27  28
ATOM     28  C   UNL     1      35.015 -18.658 -21.136  0.00  0.00    +0.106 C 
ATOM     29  C   UNL     1      35.948 -19.494 -20.245  0.00  0.00    +0.029 C 
ATOM     30  C   UNL     1      33.584 -19.202 -21.288  0.00  0.00    +0.029 C 
ATOM     31  C   UNL     1      35.796 -21.009 -20.394  0.00  0.00    +0.002 C 
ATOM     32  C   UNL     1      32.965 -19.788 -20.021  0.00  0.00    +0.002 C 
ATOM     33  C   UNL     1      34.729 -21.587 -19.464  0.00  0.00    +0.000 C 
ATOM     34  C   UNL     1      33.288 -21.271 -19.847  0.00  0.00    +0.000 C 
BRANCH  28  35
ATOM     35  O   UNL     1      35.597 -18.630 -22.449  0.00  0.00    -0.385 OA
ATOM     36  H   UNL     1      36.470 -18.210 -22.406  0.00  0.00    +0.210 HD
ENDBRANCH  28  35
ENDBRANCH  27  28
ENDBRANCH  24  27
ENDBRANCH   2  25
TORSDOF 10
ENDMDL
MODEL 9
REMARK VINA RESULT:     -10.4      7.275      9.475
REMARK  Name = 11547499
REMARK  10 active torsions:
REMARK  status: ('A' for Active; 'I' for Inactive)
REMARK    1  A    between atoms: C_2  and  C_25
REMARK    2  A    between atoms: C_5  and  N_10
REMARK    3  A    between atoms: N_11  and  C_16
REMARK    4  A    between atoms: C_16  and  C_17
REMARK    5  A    between atoms: C_17  and  O_18
REMARK    6  A    between atoms: C_17  and  C_20
REMARK    7  A    between atoms: C_20  and  O_21
REMARK    8  A    between atoms: N_24  and  C_27
REMARK    9  A    between atoms: C_27  and  C_28
REMARK   10  A    between atoms: C_28  and  O_35
REMARK                            x       y       z     vdW  Elec       q    Type
REMARK                         _______ _______ _______ _____ _____    ______ ____
ROOT
ATOM      1 CL   UNL     1      36.421 -21.273 -17.900  0.00  0.00    -0.082 Cl
ATOM      2  C   UNL     1      34.853 -22.295 -15.915  0.00  0.00    +0.065 C 
ATOM      3  C   UNL     1      33.642 -22.774 -15.414  0.00  0.00    +0.022 C 
ATOM      4  C   UNL     1      34.941 -21.871 -17.240  0.00  0.00    +0.062 C 
ATOM      5  C   UNL     1      32.519 -22.829 -16.239  0.00  0.00    +0.078 C 
ATOM      6  C   UNL     1      33.817 -21.925 -18.066  0.00  0.00    +0.013 C 
ATOM      7  C   UNL     1      32.606 -22.404 -17.565  0.00  0.00    +0.018 C 
ENDROOT
BRANCH   5  10
ATOM      8  O   UNL     1      29.815 -22.032 -17.022  0.00  0.00    -0.250 OA
ATOM      9  O   UNL     1      28.135 -25.164 -14.038  0.00  0.00    -0.268 OA
ATOM     10  N   UNL     1      31.266 -23.322 -15.720  0.00  0.00    -0.142 N 
ATOM     11  N   UNL     1      28.902 -23.601 -15.618  0.00  0.00    -0.205 N 
ATOM     12  N   UNL     1      31.426 -24.213 -14.697  0.00  0.00    -0.164 NA
ATOM     13  C   UNL     1      29.999 -22.926 -16.190  0.00  0.00    +0.336 C 
ATOM     14  C   UNL     1      29.014 -24.534 -14.607  0.00  0.00    +0.277 C 
ATOM     15  C   UNL     1      30.402 -24.778 -14.168  0.00  0.00    +0.176 C 
BRANCH  11  16
ATOM     16  C   UNL     1      27.569 -23.263 -16.104  0.00  0.00    +0.135 C 
BRANCH  16  17
ATOM     17  C   UNL     1      26.875 -22.207 -15.245  0.00  0.00    +0.160 C 
BRANCH  17  18
ATOM     18  O   UNL     1      27.836 -21.252 -14.795  0.00  0.00    -0.380 OA
ATOM     19  H   UNL     1      28.720 -21.516 -15.094  0.00  0.00    +0.211 HD
ENDBRANCH  17  18
BRANCH  17  20
ATOM     20  C   UNL     1      25.767 -21.465 -15.988  0.00  0.00    +0.173 C 
BRANCH  20  21
ATOM     21  O   UNL     1      26.317 -20.875 -17.163  0.00  0.00    -0.348 OA
ATOM     22  C   UNL     1      25.569 -21.226 -18.317  0.00  0.00    +0.174 C 
ENDBRANCH  20  21
ENDBRANCH  17  20
ENDBRANCH  16  17
ENDBRANCH  11  16
ENDBRANCH   5  10
BRANCH   2  25
ATOM     23  O   UNL     1      37.139 -22.037 -15.461  0.00  0.00    -0.270 OA
ATOM     24  N   UNL     1      35.757 -22.458 -13.645  0.00  0.00    -0.299 N 
ATOM     25  C   UNL     1      36.023 -22.257 -14.999  0.00  0.00    +0.247 C 
ATOM     26  H   UNL     1      34.828 -22.628 -13.368  0.00  0.00    +0.150 HD
BRANCH  24  27
ATOM     27  C   UNL     1      36.773 -22.426 -12.641  0.00  0.00    +0.117 C 
BRANCH  27  28
ATOM     28  C   UNL     1      37.250 -23.845 -12.304  0.00  0.00    +0.106 C 
ATOM     29  C   UNL     1      36.266 -24.863 -12.904  0.00  0.00    +0.029 C 
ATOM     30  C   UNL     1      38.724 -24.038 -12.703  0.00  0.00    +0.029 C 
ATOM     31  C   UNL     1      36.783 -26.301 -12.969  0.00  0.00    +0.002 C 
ATOM     32  C   UNL     1      38.964 -24.437 -14.158  0.00  0.00    +0.002 C 
ATOM     33  C   UNL     1      37.549 -26.593 -14.259  0.00  0.00    +0.000 C 
ATOM     34  C   UNL     1      38.928 -25.951 -14.360  0.00  0.00    +0.000 C 
BRANCH  28  35
ATOM     35  O   UNL     1      37.180 -23.981 -10.876  0.00  0.00    -0.385 OA
ATOM     36  H   UNL     1      36.476 -24.607 -10.645  0.00  0.00    +0.210 HD
ENDBRANCH  28  35
ENDBRANCH  27  28
ENDBRANCH  24  27
ENDBRANCH   2  25
TORSDOF 10
ENDMDL
