MODEL 1
REMARK VINA RESULT:     -10.5      0.000      0.000
REMARK  Name = 24946280
REMARK  8 active torsions:
REMARK  status: ('A' for Active; 'I' for Inactive)
REMARK    1  A    between atoms: C_3  and  C_27
REMARK    2  A    between atoms: C_10  and  C_15
REMARK    3  A    between atoms: C_12  and  S_23
REMARK    4  A    between atoms: N_14  and  C_17
REMARK    5  A    between atoms: S_23  and  C_24
REMARK    6  A    between atoms: C_24  and  C_25
REMARK    7  A    between atoms: C_27  and  C_29
REMARK    8  A    between atoms: C_29  and  O_30
REMARK                            x       y       z     vdW  Elec       q    Type
REMARK                         _______ _______ _______ _____ _____    ______ ____
ROOT
ATOM      1  N   UNL     1      36.602 -22.841 -14.690  0.00  0.00    -0.284 N 
ATOM      2  N   UNL     1      34.628 -22.678 -15.988  0.00  0.00    -0.384 NA
ATOM      3  C   UNL     1      38.651 -23.658 -13.577  0.00  0.00    +0.031 C 
ATOM      4  C   UNL     1      37.849 -23.830 -12.283  0.00  0.00    +0.004 C 
ATOM      5  C   UNL     1      37.737 -23.765 -14.807  0.00  0.00    +0.094 C 
ATOM      6  C   UNL     1      36.707 -22.822 -12.231  0.00  0.00    +0.022 C 
ATOM      7  C   UNL     1      35.806 -22.937 -13.458  0.00  0.00    +0.093 C 
ATOM      8  C   UNL     1      35.945 -22.408 -15.847  0.00  0.00    +0.183 C 
ATOM      9  C   UNL     1      36.699 -21.721 -16.785  0.00  0.00    +0.044 C 
ATOM     10  C   UNL     1      34.707 -21.542 -18.120  0.00  0.00    +0.157 C 
ATOM     11  C   UNL     1      36.061 -21.283 -17.940  0.00  0.00    -0.006 C 
ATOM     12  C   UNL     1      34.041 -22.238 -17.123  0.00  0.00    +0.148 C 
ENDROOT
BRANCH  10  15
ATOM     13  O   UNL     1      32.933 -21.484 -19.652  0.00  0.00    -0.274 OA
ATOM     14  N   UNL     1      34.766 -20.137 -20.106  0.00  0.00    -0.305 N 
ATOM     15  C   UNL     1      34.063 -21.072 -19.340  0.00  0.00    +0.233 C 
ATOM     16  H   UNL     1      35.657 -19.856 -19.797  0.00  0.00    +0.149 HD
BRANCH  14  17
ATOM     17  C   UNL     1      34.251 -19.559 -21.328  0.00  0.00    +0.072 C 
ATOM     18  C   UNL     1      33.690 -18.155 -21.080  0.00  0.00    +0.020 C 
ATOM     19  C   UNL     1      35.321 -19.545 -22.424  0.00  0.00    +0.020 C 
ATOM     20  C   UNL     1      34.788 -17.125 -20.816  0.00  0.00    +0.002 C 
ATOM     21  C   UNL     1      36.418 -18.513 -22.158  0.00  0.00    +0.002 C 
ATOM     22  C   UNL     1      35.835 -17.121 -21.925  0.00  0.00    +0.000 C 
ENDBRANCH  14  17
ENDBRANCH  10  15
BRANCH  12  23
ATOM     23  S   UNL     1      32.299 -22.617 -17.266  0.00  0.00    -0.086 S 
BRANCH  23  24
ATOM     24  C   UNL     1      31.901 -23.134 -15.574  0.00  0.00    +0.064 C 
BRANCH  24  25
ATOM     25  C   UNL     1      30.663 -22.401 -15.068  0.00  0.00    +0.012 C 
ATOM     26  C   UNL     1      29.456 -22.693 -15.947  0.00  0.00    +0.001 C 
ENDBRANCH  24  25
ENDBRANCH  23  24
ENDBRANCH  12  23
BRANCH   3  27
ATOM     27  C   UNL     1      39.781 -24.684 -13.653  0.00  0.00    +0.111 C 
BRANCH  27  29
ATOM     28  O   UNL     1      38.628 -26.709 -14.369  0.00  0.00    -0.250 OA
ATOM     29  C   UNL     1      39.438 -25.820 -14.578  0.00  0.00    +0.314 C 
BRANCH  29  30
ATOM     30  O   UNL     1      40.175 -25.722 -15.715  0.00  0.00    -0.480 OA
ATOM     31  H   UNL     1      40.967 -25.220 -15.719  0.00  0.00    +0.295 HD
ENDBRANCH  29  30
ENDBRANCH  27  29
ENDBRANCH   3  27
TORSDOF 8
ENDMDL
MODEL 2
REMARK VINA RESULT:     -10.3      2.721      6.416
REMARK  Name = 24946280
REMARK  8 active torsions:
REMARK  status: ('A' for Active; 'I' for Inactive)
REMARK    1  A    between atoms: C_3  and  C_27
REMARK    2  A    between atoms: C_10  and  C_15
REMARK    3  A    between atoms: C_12  and  S_23
REMARK    4  A    between atoms: N_14  and  C_17
REMARK    5  A    between atoms: S_23  and  C_24
REMARK    6  A    between atoms: C_24  and  C_25
REMARK    7  A    between atoms: C_27  and  C_29
REMARK    8  A    between atoms: C_29  and  O_30
REMARK                            x       y       z     vdW  Elec       q    Type
REMARK                         _______ _______ _______ _____ _____    ______ ____
ROOT
ATOM      1  N   UNL     1      31.700 -22.911 -15.866  0.00  0.00    -0.284 N 
ATOM      2  N   UNL     1      33.915 -22.255 -16.385  0.00  0.00    -0.384 NA
ATOM      3  C   UNL     1      29.382 -22.978 -15.015  0.00  0.00    +0.031 C 
ATOM      4  C   UNL     1      29.858 -23.862 -13.858  0.00  0.00    +0.004 C 
ATOM      5  C   UNL     1      30.525 -22.095 -15.538  0.00  0.00    +0.094 C 
ATOM      6  C   UNL     1      31.064 -24.689 -14.287  0.00  0.00    +0.022 C 
ATOM      7  C   UNL     1      32.193 -23.802 -14.806  0.00  0.00    +0.093 C 
ATOM      8  C   UNL     1      32.637 -22.430 -16.788  0.00  0.00    +0.183 C 
ATOM      9  C   UNL     1      32.185 -22.161 -18.070  0.00  0.00    +0.044 C 
ATOM     10  C   UNL     1      34.427 -21.490 -18.621  0.00  0.00    +0.157 C 
ATOM     11  C   UNL     1      33.103 -21.683 -18.997  0.00  0.00    -0.006 C 
ATOM     12  C   UNL     1      34.780 -21.789 -17.313  0.00  0.00    +0.148 C 
ENDROOT
BRANCH  10  15
ATOM     13  O   UNL     1      36.482 -21.523 -19.749  0.00  0.00    -0.274 OA
ATOM     14  N   UNL     1      34.946 -19.910 -20.397  0.00  0.00    -0.305 N 
ATOM     15  C   UNL     1      35.369 -20.988 -19.613  0.00  0.00    +0.233 C 
ATOM     16  H   UNL     1      34.050 -19.537 -20.233  0.00  0.00    +0.149 HD
BRANCH  14  17
ATOM     17  C   UNL     1      35.756 -19.316 -21.438  0.00  0.00    +0.072 C 
ATOM     18  C   UNL     1      35.071 -19.434 -22.804  0.00  0.00    +0.020 C 
ATOM     19  C   UNL     1      36.092 -17.857 -21.109  0.00  0.00    +0.020 C 
ATOM     20  C   UNL     1      33.862 -18.509 -22.934  0.00  0.00    +0.002 C 
ATOM     21  C   UNL     1      34.880 -16.934 -21.242  0.00  0.00    +0.002 C 
ATOM     22  C   UNL     1      34.223 -17.062 -22.613  0.00  0.00    +0.000 C 
ENDBRANCH  14  17
ENDBRANCH  10  15
BRANCH  12  23
ATOM     23  S   UNL     1      36.460 -21.573 -16.738  0.00  0.00    -0.086 S 
BRANCH  23  24
ATOM     24  C   UNL     1      36.354 -22.242 -15.055  0.00  0.00    +0.064 C 
BRANCH  24  25
ATOM     25  C   UNL     1      37.125 -23.554 -14.952  0.00  0.00    +0.012 C 
ATOM     26  C   UNL     1      36.189 -24.718 -14.666  0.00  0.00    +0.001 C 
ENDBRANCH  24  25
ENDBRANCH  23  24
ENDBRANCH  12  23
BRANCH   3  27
ATOM     27  C   UNL     1      28.191 -22.122 -14.586  0.00  0.00    +0.111 C 
BRANCH  27  29
ATOM     28  O   UNL     1      27.536 -21.621 -16.879  0.00  0.00    -0.250 OA
ATOM     29  C   UNL     1      27.238 -21.885 -15.726  0.00  0.00    +0.314 C 
BRANCH  29  30
ATOM     30  O   UNL     1      25.959 -22.010 -15.286  0.00  0.00    -0.480 OA
ATOM     31  H   UNL     1      25.594 -21.362 -14.714  0.00  0.00    +0.295 HD
ENDBRANCH  29  30
ENDBRANCH  27  29
ENDBRANCH   3  27
TORSDOF 8
ENDMDL
MODEL 3
REMARK VINA RESULT:     -10.0      9.482     13.575
REMARK  Name = 24946280
REMARK  8 active torsions:
REMARK  status: ('A' for Active; 'I' for Inactive)
REMARK    1  A    between atoms: C_3  and  C_27
REMARK    2  A    between atoms: C_10  and  C_15
REMARK    3  A    between atoms: C_12  and  S_23
REMARK    4  A    between atoms: N_14  and  C_17
REMARK    5  A    between atoms: S_23  and  C_24
REMARK    6  A    between atoms: C_24  and  C_25
REMARK    7  A    between atoms: C_27  and  C_29
REMARK    8  A    between atoms: C_29  and  O_30
REMARK                            x       y       z     vdW  Elec       q    Type
REMARK                         _______ _______ _______ _____ _____    ______ ____
ROOT
ATOM      1  N   UNL     1      33.425 -13.557 -22.608  0.00  0.00    -0.284 N 
ATOM      2  N   UNL     1      31.983 -11.820 -21.893  0.00  0.00    -0.384 NA
ATOM      3  C   UNL     1      34.350 -15.593 -23.659  0.00  0.00    +0.031 C 
ATOM      4  C   UNL     1      34.246 -16.308 -22.308  0.00  0.00    +0.004 C 
ATOM      5  C   UNL     1      33.318 -14.460 -23.762  0.00  0.00    +0.094 C 
ATOM      6  C   UNL     1      34.387 -15.305 -21.168  0.00  0.00    +0.022 C 
ATOM      7  C   UNL     1      33.358 -14.184 -21.281  0.00  0.00    +0.093 C 
ATOM      8  C   UNL     1      32.966 -12.239 -22.720  0.00  0.00    +0.183 C 
ATOM      9  C   UNL     1      33.559 -11.442 -23.686  0.00  0.00    +0.044 C 
ATOM     10  C   UNL     1      32.106  -9.662 -22.976  0.00  0.00    +0.157 C 
ATOM     11  C   UNL     1      33.115 -10.130 -23.809  0.00  0.00    -0.006 C 
ATOM     12  C   UNL     1      31.577 -10.540 -22.042  0.00  0.00    +0.148 C 
ENDROOT
BRANCH  10  15
ATOM     13  O   UNL     1      30.473  -7.981 -22.919  0.00  0.00    -0.274 OA
ATOM     14  N   UNL     1      32.628  -7.341 -23.489  0.00  0.00    -0.305 N 
ATOM     15  C   UNL     1      31.659  -8.283 -23.127  0.00  0.00    +0.233 C 
ATOM     16  H   UNL     1      33.550  -7.654 -23.638  0.00  0.00    +0.149 HD
BRANCH  14  17
ATOM     17  C   UNL     1      32.346  -5.932 -23.654  0.00  0.00    +0.072 C 
ATOM     18  C   UNL     1      33.638  -5.132 -23.854  0.00  0.00    +0.020 C 
ATOM     19  C   UNL     1      31.364  -5.698 -24.806  0.00  0.00    +0.020 C 
ATOM     20  C   UNL     1      34.269  -5.375 -25.224  0.00  0.00    +0.002 C 
ATOM     21  C   UNL     1      31.999  -5.941 -26.176  0.00  0.00    +0.002 C 
ATOM     22  C   UNL     1      33.277  -5.125 -26.355  0.00  0.00    +0.000 C 
ENDBRANCH  14  17
ENDBRANCH  10  15
BRANCH  12  23
ATOM     23  S   UNL     1      30.275 -10.027 -20.927  0.00  0.00    -0.086 S 
BRANCH  23  24
ATOM     24  C   UNL     1      31.231  -9.451 -19.497  0.00  0.00    +0.064 C 
BRANCH  24  25
ATOM     25  C   UNL     1      31.113  -7.938 -19.349  0.00  0.00    +0.012 C 
ATOM     26  C   UNL     1      32.328  -7.234 -19.932  0.00  0.00    +0.001 C 
ENDBRANCH  24  25
ENDBRANCH  23  24
ENDBRANCH  12  23
BRANCH   3  27
ATOM     27  C   UNL     1      34.180 -16.584 -24.809  0.00  0.00    +0.111 C 
BRANCH  27  29
ATOM     28  O   UNL     1      33.362 -18.617 -23.743  0.00  0.00    -0.250 OA
ATOM     29  C   UNL     1      33.180 -17.657 -24.474  0.00  0.00    +0.314 C 
BRANCH  29  30
ATOM     30  O   UNL     1      32.008 -17.407 -25.114  0.00  0.00    -0.480 OA
ATOM     31  H   UNL     1      31.945 -16.686 -25.711  0.00  0.00    +0.295 HD
ENDBRANCH  29  30
ENDBRANCH  27  29
ENDBRANCH   3  27
TORSDOF 8
ENDMDL
MODEL 4
REMARK VINA RESULT:     -10.0      2.958      9.226
REMARK  Name = 24946280
REMARK  8 active torsions:
REMARK  status: ('A' for Active; 'I' for Inactive)
REMARK    1  A    between atoms: C_3  and  C_27
REMARK    2  A    between atoms: C_10  and  C_15
REMARK    3  A    between atoms: C_12  and  S_23
REMARK    4  A    between atoms: N_14  and  C_17
REMARK    5  A    between atoms: S_23  and  C_24
REMARK    6  A    between atoms: C_24  and  C_25
REMARK    7  A    between atoms: C_27  and  C_29
REMARK    8  A    between atoms: C_29  and  O_30
REMARK                            x       y       z     vdW  Elec       q    Type
REMARK                         _______ _______ _______ _____ _____    ______ ____
ROOT
ATOM      1  N   UNL     1      34.117 -19.176 -20.921  0.00  0.00    -0.284 N 
ATOM      2  N   UNL     1      34.639 -20.683 -19.171  0.00  0.00    -0.384 NA
ATOM      3  C   UNL     1      33.794 -18.130 -23.136  0.00  0.00    +0.031 C 
ATOM      4  C   UNL     1      35.105 -17.364 -22.939  0.00  0.00    +0.004 C 
ATOM      5  C   UNL     1      33.795 -19.438 -22.330  0.00  0.00    +0.094 C 
ATOM      6  C   UNL     1      35.353 -17.116 -21.455  0.00  0.00    +0.022 C 
ATOM      7  C   UNL     1      35.351 -18.421 -20.663  0.00  0.00    +0.093 C 
ATOM      8  C   UNL     1      33.703 -20.084 -19.940  0.00  0.00    +0.183 C 
ATOM      9  C   UNL     1      32.341 -20.310 -19.821  0.00  0.00    +0.044 C 
ATOM     10  C   UNL     1      32.846 -21.845 -18.039  0.00  0.00    +0.157 C 
ATOM     11  C   UNL     1      31.913 -21.208 -18.850  0.00  0.00    -0.006 C 
ATOM     12  C   UNL     1      34.186 -21.550 -18.238  0.00  0.00    +0.148 C 
ENDROOT
BRANCH  10  15
ATOM     13  O   UNL     1      33.054 -23.771 -16.719  0.00  0.00    -0.274 OA
ATOM     14  N   UNL     1      31.138 -22.495 -16.432  0.00  0.00    -0.305 N 
ATOM     15  C   UNL     1      32.370 -22.782 -17.030  0.00  0.00    +0.233 C 
ATOM     16  H   UNL     1      30.651 -21.693 -16.729  0.00  0.00    +0.149 HD
BRANCH  14  17
ATOM     17  C   UNL     1      30.544 -23.315 -15.399  0.00  0.00    +0.072 C 
ATOM     18  C   UNL     1      29.894 -22.449 -14.314  0.00  0.00    +0.020 C 
ATOM     19  C   UNL     1      29.540 -24.308 -15.993  0.00  0.00    +0.020 C 
ATOM     20  C   UNL     1      28.613 -21.771 -14.798  0.00  0.00    +0.002 C 
ATOM     21  C   UNL     1      28.258 -23.626 -16.474  0.00  0.00    +0.002 C 
ATOM     22  C   UNL     1      27.624 -22.780 -15.374  0.00  0.00    +0.000 C 
ENDBRANCH  14  17
ENDBRANCH  10  15
BRANCH  12  23
ATOM     23  S   UNL     1      35.458 -22.319 -17.243  0.00  0.00    -0.086 S 
BRANCH  23  24
ATOM     24  C   UNL     1      36.603 -20.935 -16.989  0.00  0.00    +0.064 C 
BRANCH  24  25
ATOM     25  C   UNL     1      37.580 -21.250 -15.861  0.00  0.00    +0.012 C 
ATOM     26  C   UNL     1      37.474 -22.707 -15.434  0.00  0.00    +0.001 C 
ENDBRANCH  24  25
ENDBRANCH  23  24
ENDBRANCH  12  23
BRANCH   3  27
ATOM     27  C   UNL     1      33.550 -18.411 -24.619  0.00  0.00    +0.111 C 
BRANCH  27  29
ATOM     28  O   UNL     1      31.263 -18.194 -25.432  0.00  0.00    -0.250 OA
ATOM     29  C   UNL     1      32.332 -17.690 -25.128  0.00  0.00    +0.314 C 
BRANCH  29  30
ATOM     30  O   UNL     1      32.588 -16.358 -25.206  0.00  0.00    -0.480 OA
ATOM     31  H   UNL     1      32.518 -15.915 -26.030  0.00  0.00    +0.295 HD
ENDBRANCH  29  30
ENDBRANCH  27  29
ENDBRANCH   3  27
TORSDOF 8
ENDMDL
MODEL 5
REMARK VINA RESULT:     -10.0     11.492     16.041
REMARK  Name = 24946280
REMARK  8 active torsions:
REMARK  status: ('A' for Active; 'I' for Inactive)
REMARK    1  A    between atoms: C_3  and  C_27
REMARK    2  A    between atoms: C_10  and  C_15
REMARK    3  A    between atoms: C_12  and  S_23
REMARK    4  A    between atoms: N_14  and  C_17
REMARK    5  A    between atoms: S_23  and  C_24
REMARK    6  A    between atoms: C_24  and  C_25
REMARK    7  A    between atoms: C_27  and  C_29
REMARK    8  A    between atoms: C_29  and  O_30
REMARK                            x       y       z     vdW  Elec       q    Type
REMARK                         _______ _______ _______ _____ _____    ______ ____
ROOT
ATOM      1  N   UNL     1      32.457 -10.183 -22.500  0.00  0.00    -0.284 N 
ATOM      2  N   UNL     1      31.751  -8.096 -23.369  0.00  0.00    -0.384 NA
ATOM      3  C   UNL     1      32.911 -12.590 -22.181  0.00  0.00    +0.031 C 
ATOM      4  C   UNL     1      31.702 -12.668 -21.242  0.00  0.00    +0.004 C 
ATOM      5  C   UNL     1      32.747 -11.445 -23.192  0.00  0.00    +0.094 C 
ATOM      6  C   UNL     1      31.483 -11.327 -20.551  0.00  0.00    +0.022 C 
ATOM      7  C   UNL     1      31.324 -10.197 -21.564  0.00  0.00    +0.093 C 
ATOM      8  C   UNL     1      32.755  -8.968 -23.130  0.00  0.00    +0.183 C 
ATOM      9  C   UNL     1      34.079  -8.739 -23.469  0.00  0.00    +0.044 C 
ATOM     10  C   UNL     1      33.386  -6.615 -24.358  0.00  0.00    +0.157 C 
ATOM     11  C   UNL     1      34.391  -7.538 -24.095  0.00  0.00    -0.006 C 
ATOM     12  C   UNL     1      32.093  -6.939 -23.978  0.00  0.00    +0.148 C 
ENDROOT
BRANCH  10  15
ATOM     13  O   UNL     1      33.972  -4.344 -24.342  0.00  0.00    -0.274 OA
ATOM     14  N   UNL     1      33.827  -5.384 -26.411  0.00  0.00    -0.305 N 
ATOM     15  C   UNL     1      33.741  -5.363 -25.014  0.00  0.00    +0.233 C 
ATOM     16  H   UNL     1      33.630  -6.228 -26.878  0.00  0.00    +0.149 HD
BRANCH  14  17
ATOM     17  C   UNL     1      34.191  -4.231 -27.204  0.00  0.00    +0.072 C 
ATOM     18  C   UNL     1      35.707  -4.164 -27.415  0.00  0.00    +0.020 C 
ATOM     19  C   UNL     1      33.443  -4.223 -28.541  0.00  0.00    +0.020 C 
ATOM     20  C   UNL     1      36.211  -5.239 -28.377  0.00  0.00    +0.002 C 
ATOM     21  C   UNL     1      33.950  -5.299 -29.501  0.00  0.00    +0.002 C 
ATOM     22  C   UNL     1      35.460  -5.205 -29.704  0.00  0.00    +0.000 C 
ENDBRANCH  14  17
ENDBRANCH  10  15
BRANCH  12  23
ATOM     23  S   UNL     1      30.733  -5.814 -24.276  0.00  0.00    -0.086 S 
BRANCH  23  24
ATOM     24  C   UNL     1      30.298  -5.319 -22.586  0.00  0.00    +0.064 C 
BRANCH  24  25
ATOM     25  C   UNL     1      31.506  -4.714 -21.878  0.00  0.00    +0.012 C 
ATOM     26  C   UNL     1      31.806  -5.448 -20.580  0.00  0.00    +0.001 C 
ENDBRANCH  24  25
ENDBRANCH  23  24
ENDBRANCH  12  23
BRANCH   3  27
ATOM     27  C   UNL     1      33.121 -13.921 -22.902  0.00  0.00    +0.111 C 
BRANCH  27  29
ATOM     28  O   UNL     1      34.252 -14.977 -21.019  0.00  0.00    -0.250 OA
ATOM     29  C   UNL     1      34.161 -14.765 -22.217  0.00  0.00    +0.314 C 
BRANCH  29  30
ATOM     30  O   UNL     1      35.016 -15.277 -23.141  0.00  0.00    -0.480 OA
ATOM     31  H   UNL     1      35.054 -14.905 -24.001  0.00  0.00    +0.295 HD
ENDBRANCH  29  30
ENDBRANCH  27  29
ENDBRANCH   3  27
TORSDOF 8
ENDMDL
MODEL 6
REMARK VINA RESULT:      -9.7      8.607     13.239
REMARK  Name = 24946280
REMARK  8 active torsions:
REMARK  status: ('A' for Active; 'I' for Inactive)
REMARK    1  A    between atoms: C_3  and  C_27
REMARK    2  A    between atoms: C_10  and  C_15
REMARK    3  A    between atoms: C_12  and  S_23
REMARK    4  A    between atoms: N_14  and  C_17
REMARK    5  A    between atoms: S_23  and  C_24
REMARK    6  A    between atoms: C_24  and  C_25
REMARK    7  A    between atoms: C_27  and  C_29
REMARK    8  A    between atoms: C_29  and  O_30
REMARK                            x       y       z     vdW  Elec       q    Type
REMARK                         _______ _______ _______ _____ _____    ______ ____
ROOT
ATOM      1  N   UNL     1      33.154 -14.102 -22.924  0.00  0.00    -0.284 N 
ATOM      2  N   UNL     1      32.781 -11.777 -23.171  0.00  0.00    -0.384 NA
ATOM      3  C   UNL     1      34.186 -16.312 -22.530  0.00  0.00    +0.031 C 
ATOM      4  C   UNL     1      34.279 -16.512 -24.046  0.00  0.00    +0.004 C 
ATOM      5  C   UNL     1      34.192 -14.818 -22.171  0.00  0.00    +0.094 C 
ATOM      6  C   UNL     1      33.158 -15.754 -24.748  0.00  0.00    +0.022 C 
ATOM      7  C   UNL     1      33.172 -14.272 -24.384  0.00  0.00    +0.093 C 
ATOM      8  C   UNL     1      32.650 -12.896 -22.424  0.00  0.00    +0.183 C 
ATOM      9  C   UNL     1      32.041 -12.931 -21.180  0.00  0.00    +0.044 C 
ATOM     10  C   UNL     1      31.650 -10.569 -21.408  0.00  0.00    +0.157 C 
ATOM     11  C   UNL     1      31.534 -11.741 -20.670  0.00  0.00    -0.006 C 
ATOM     12  C   UNL     1      32.277 -10.639 -22.643  0.00  0.00    +0.148 C 
ENDROOT
BRANCH  10  15
ATOM     13  O   UNL     1      30.551  -9.341 -19.741  0.00  0.00    -0.274 OA
ATOM     14  N   UNL     1      31.277  -8.172 -21.608  0.00  0.00    -0.305 N 
ATOM     15  C   UNL     1      31.110  -9.336 -20.849  0.00  0.00    +0.233 C 
ATOM     16  H   UNL     1      31.731  -8.244 -22.479  0.00  0.00    +0.149 HD
BRANCH  14  17
ATOM     17  C   UNL     1      30.819  -6.869 -21.179  0.00  0.00    +0.072 C 
ATOM     18  C   UNL     1      31.965  -6.055 -20.572  0.00  0.00    +0.020 C 
ATOM     19  C   UNL     1      30.150  -6.114 -22.333  0.00  0.00    +0.020 C 
ATOM     20  C   UNL     1      32.967  -5.581 -21.624  0.00  0.00    +0.002 C 
ATOM     21  C   UNL     1      31.156  -5.641 -23.383  0.00  0.00    +0.002 C 
ATOM     22  C   UNL     1      32.281  -4.822 -22.755  0.00  0.00    +0.000 C 
ENDBRANCH  14  17
ENDBRANCH  10  15
BRANCH  12  23
ATOM     23  S   UNL     1      32.472  -9.183 -23.664  0.00  0.00    -0.086 S 
BRANCH  23  24
ATOM     24  C   UNL     1      34.278  -9.030 -23.733  0.00  0.00    +0.064 C 
BRANCH  24  25
ATOM     25  C   UNL     1      34.692  -7.563 -23.694  0.00  0.00    +0.012 C 
ATOM     26  C   UNL     1      34.317  -6.853 -24.985  0.00  0.00    +0.001 C 
ENDBRANCH  24  25
ENDBRANCH  23  24
ENDBRANCH  12  23
BRANCH   3  27
ATOM     27  C   UNL     1      35.324 -17.043 -21.818  0.00  0.00    +0.111 C 
BRANCH  27  29
ATOM     28  O   UNL     1      33.979 -19.075 -21.815  0.00  0.00    -0.250 OA
ATOM     29  C   UNL     1      34.908 -18.418 -21.373  0.00  0.00    +0.314 C 
BRANCH  29  30
ATOM     30  O   UNL     1      35.730 -18.847 -20.381  0.00  0.00    -0.480 OA
ATOM     31  H   UNL     1      36.406 -18.283 -20.056  0.00  0.00    +0.295 HD
ENDBRANCH  29  30
ENDBRANCH  27  29
ENDBRANCH   3  27
TORSDOF 8
ENDMDL
MODEL 7
REMARK VINA RESULT:      -9.5      9.495     14.238
REMARK  Name = 24946280
REMARK  8 active torsions:
REMARK  status: ('A' for Active; 'I' for Inactive)
REMARK    1  A    between atoms: C_3  and  C_27
REMARK    2  A    between atoms: C_10  and  C_15
REMARK    3  A    between atoms: C_12  and  S_23
REMARK    4  A    between atoms: N_14  and  C_17
REMARK    5  A    between atoms: S_23  and  C_24
REMARK    6  A    between atoms: C_24  and  C_25
REMARK    7  A    between atoms: C_27  and  C_29
REMARK    8  A    between atoms: C_29  and  O_30
REMARK                            x       y       z     vdW  Elec       q    Type
REMARK                         _______ _______ _______ _____ _____    ______ ____
ROOT
ATOM      1  N   UNL     1      32.893 -13.108 -23.305  0.00  0.00    -0.284 N 
ATOM      2  N   UNL     1      32.624 -10.758 -23.406  0.00  0.00    -0.384 NA
ATOM      3  C   UNL     1      33.833 -15.382 -23.082  0.00  0.00    +0.031 C 
ATOM      4  C   UNL     1      33.847 -15.500 -24.609  0.00  0.00    +0.004 C 
ATOM      5  C   UNL     1      33.928 -13.913 -22.643  0.00  0.00    +0.094 C 
ATOM      6  C   UNL     1      32.733 -14.653 -25.214  0.00  0.00    +0.022 C 
ATOM      7  C   UNL     1      32.836 -13.196 -24.771  0.00  0.00    +0.093 C 
ATOM      8  C   UNL     1      32.472 -11.910 -22.716  0.00  0.00    +0.183 C 
ATOM      9  C   UNL     1      31.920 -11.987 -21.448  0.00  0.00    +0.044 C 
ATOM     10  C   UNL     1      31.634  -9.601 -21.528  0.00  0.00    +0.157 C 
ATOM     11  C   UNL     1      31.495 -10.806 -20.850  0.00  0.00    -0.006 C 
ATOM     12  C   UNL     1      32.200  -9.630 -22.793  0.00  0.00    +0.148 C 
ENDROOT
BRANCH  10  15
ATOM     13  O   UNL     1      31.008  -8.347 -19.648  0.00  0.00    -0.274 OA
ATOM     14  N   UNL     1      30.981  -7.262 -21.698  0.00  0.00    -0.305 N 
ATOM     15  C   UNL     1      31.181  -8.378 -20.878  0.00  0.00    +0.233 C 
ATOM     16  H   UNL     1      31.138  -7.361 -22.665  0.00  0.00    +0.149 HD
BRANCH  14  17
ATOM     17  C   UNL     1      30.556  -5.973 -21.200  0.00  0.00    +0.072 C 
ATOM     18  C   UNL     1      31.761  -5.104 -20.825  0.00  0.00    +0.020 C 
ATOM     19  C   UNL     1      29.652  -5.262 -22.213  0.00  0.00    +0.020 C 
ATOM     20  C   UNL     1      32.527  -4.606 -22.050  0.00  0.00    +0.002 C 
ATOM     21  C   UNL     1      30.423  -4.764 -23.436  0.00  0.00    +0.002 C 
ATOM     22  C   UNL     1      31.609  -3.892 -23.037  0.00  0.00    +0.000 C 
ENDBRANCH  14  17
ENDBRANCH  10  15
BRANCH  12  23
ATOM     23  S   UNL     1      32.419  -8.129 -23.742  0.00  0.00    -0.086 S 
BRANCH  23  24
ATOM     24  C   UNL     1      34.174  -7.775 -23.457  0.00  0.00    +0.064 C 
BRANCH  24  25
ATOM     25  C   UNL     1      34.688  -6.762 -24.475  0.00  0.00    +0.012 C 
ATOM     26  C   UNL     1      33.542  -6.156 -25.271  0.00  0.00    +0.001 C 
ENDBRANCH  24  25
ENDBRANCH  23  24
ENDBRANCH  12  23
BRANCH   3  27
ATOM     27  C   UNL     1      34.965 -16.204 -22.467  0.00  0.00    +0.111 C 
BRANCH  27  29
ATOM     28  O   UNL     1      34.309 -15.821 -20.151  0.00  0.00    -0.250 OA
ATOM     29  C   UNL     1      34.669 -16.576 -21.040  0.00  0.00    +0.314 C 
BRANCH  29  30
ATOM     30  O   UNL     1      34.862 -17.909 -20.865  0.00  0.00    -0.480 OA
ATOM     31  H   UNL     1      35.557 -18.346 -21.319  0.00  0.00    +0.295 HD
ENDBRANCH  29  30
ENDBRANCH  27  29
ENDBRANCH   3  27
TORSDOF 8
ENDMDL
MODEL 8
REMARK VINA RESULT:      -8.9      9.568     13.688
REMARK  Name = 24946280
REMARK  8 active torsions:
REMARK  status: ('A' for Active; 'I' for Inactive)
REMARK    1  A    between atoms: C_3  and  C_27
REMARK    2  A    between atoms: C_10  and  C_15
REMARK    3  A    between atoms: C_12  and  S_23
REMARK    4  A    between atoms: N_14  and  C_17
REMARK    5  A    between atoms: S_23  and  C_24
REMARK    6  A    between atoms: C_24  and  C_25
REMARK    7  A    between atoms: C_27  and  C_29
REMARK    8  A    between atoms: C_29  and  O_30
REMARK                            x       y       z     vdW  Elec       q    Type
REMARK                         _______ _______ _______ _____ _____    ______ ____
ROOT
ATOM      1  N   UNL     1      33.335 -13.304 -22.112  0.00  0.00    -0.284 N 
ATOM      2  N   UNL     1      31.850 -11.477 -21.859  0.00  0.00    -0.384 NA
ATOM      3  C   UNL     1      34.338 -15.484 -22.699  0.00  0.00    +0.031 C 
ATOM      4  C   UNL     1      34.081 -15.960 -21.265  0.00  0.00    +0.004 C 
ATOM      5  C   UNL     1      33.338 -14.389 -23.101  0.00  0.00    +0.094 C 
ATOM      6  C   UNL     1      34.115 -14.778 -20.303  0.00  0.00    +0.022 C 
ATOM      7  C   UNL     1      33.119 -13.697 -20.712  0.00  0.00    +0.093 C 
ATOM      8  C   UNL     1      32.909 -12.026 -22.494  0.00  0.00    +0.183 C 
ATOM      9  C   UNL     1      33.612 -11.402 -23.511  0.00  0.00    +0.044 C 
ATOM     10  C   UNL     1      32.117  -9.533 -23.272  0.00  0.00    +0.157 C 
ATOM     11  C   UNL     1      33.202 -10.132 -23.901  0.00  0.00    -0.006 C 
ATOM     12  C   UNL     1      31.480 -10.242 -22.265  0.00  0.00    +0.148 C 
ENDROOT
BRANCH  10  15
ATOM     13  O   UNL     1      30.820  -8.063 -24.558  0.00  0.00    -0.274 OA
ATOM     14  N   UNL     1      32.344  -7.117 -23.087  0.00  0.00    -0.305 N 
ATOM     15  C   UNL     1      31.708  -8.202 -23.701  0.00  0.00    +0.233 C 
ATOM     16  H   UNL     1      33.039  -7.303 -22.415  0.00  0.00    +0.149 HD
BRANCH  14  17
ATOM     17  C   UNL     1      32.032  -5.737 -23.387  0.00  0.00    +0.072 C 
ATOM     18  C   UNL     1      30.517  -5.518 -23.461  0.00  0.00    +0.020 C 
ATOM     19  C   UNL     1      32.680  -4.793 -22.369  0.00  0.00    +0.020 C 
ATOM     20  C   UNL     1      29.849  -5.584 -22.089  0.00  0.00    +0.002 C 
ATOM     21  C   UNL     1      32.008  -4.860 -20.997  0.00  0.00    +0.002 C 
ATOM     22  C   UNL     1      30.503  -4.627 -21.097  0.00  0.00    +0.000 C 
ENDBRANCH  14  17
ENDBRANCH  10  15
BRANCH  12  23
ATOM     23  S   UNL     1      30.075  -9.553 -21.398  0.00  0.00    -0.086 S 
BRANCH  23  24
ATOM     24  C   UNL     1      30.493  -9.932 -19.674  0.00  0.00    +0.064 C 
BRANCH  24  25
ATOM     25  C   UNL     1      31.739  -9.165 -19.245  0.00  0.00    +0.012 C 
ATOM     26  C   UNL     1      31.589  -7.677 -19.521  0.00  0.00    +0.001 C 
ENDBRANCH  24  25
ENDBRANCH  23  24
ENDBRANCH  12  23
BRANCH   3  27
ATOM     27  C   UNL     1      34.276 -16.657 -23.676  0.00  0.00    +0.111 C 
BRANCH  27  29
ATOM     28  O   UNL     1      33.440 -15.341 -25.549  0.00  0.00    -0.250 OA
ATOM     29  C   UNL     1      33.401 -16.348 -24.860  0.00  0.00    +0.314 C 
BRANCH  29  30
ATOM     30  O   UNL     1      32.533 -17.372 -25.069  0.00  0.00    -0.480 OA
ATOM     31  H   UNL     1      32.852 -18.203 -25.363  0.00  0.00    +0.295 HD
ENDBRANCH  29  30
ENDBRANCH  27  29
ENDBRANCH   3  27
TORSDOF 8
ENDMDL
MODEL 9
REMARK VINA RESULT:      -8.6     12.064     16.484
REMARK  Name = 24946280
REMARK  8 active torsions:
REMARK  status: ('A' for Active; 'I' for Inactive)
REMARK    1  A    between atoms: C_3  and  C_27
REMARK    2  A    between atoms: C_10  and  C_15
REMARK    3  A    between atoms: C_12  and  S_23
REMARK    4  A    between atoms: N_14  and  C_17
REMARK    5  A    between atoms: S_23  and  C_24
REMARK    6  A    between atoms: C_24  and  C_25
REMARK    7  A    between atoms: C_27  and  C_29
REMARK    8  A    between atoms: C_29  and  O_30
REMARK                            x       y       z     vdW  Elec       q    Type
REMARK                         _______ _______ _______ _____ _____    ______ ____
ROOT
ATOM      1  N   UNL     1      32.514 -10.142 -22.667  0.00  0.00    -0.284 N 
ATOM      2  N   UNL     1      31.765  -8.057 -23.502  0.00  0.00    -0.384 NA
ATOM      3  C   UNL     1      33.072 -12.535 -22.412  0.00  0.00    +0.031 C 
ATOM      4  C   UNL     1      31.801 -12.717 -21.576  0.00  0.00    +0.004 C 
ATOM      5  C   UNL     1      32.925 -11.355 -23.384  0.00  0.00    +0.094 C 
ATOM      6  C   UNL     1      31.457 -11.421 -20.850  0.00  0.00    +0.022 C 
ATOM      7  C   UNL     1      31.315 -10.256 -21.825  0.00  0.00    +0.093 C 
ATOM      8  C   UNL     1      32.793  -8.886 -23.220  0.00  0.00    +0.183 C 
ATOM      9  C   UNL     1      34.125  -8.575 -23.444  0.00  0.00    +0.044 C 
ATOM     10  C   UNL     1      33.388  -6.450 -24.296  0.00  0.00    +0.157 C 
ATOM     11  C   UNL     1      34.419  -7.332 -23.992  0.00  0.00    -0.006 C 
ATOM     12  C   UNL     1      32.089  -6.857 -24.034  0.00  0.00    +0.148 C 
ENDROOT
BRANCH  10  15
ATOM     13  O   UNL     1      34.690  -5.040 -25.643  0.00  0.00    -0.274 OA
ATOM     14  N   UNL     1      32.900  -4.077 -24.526  0.00  0.00    -0.305 N 
ATOM     15  C   UNL     1      33.724  -5.154 -24.870  0.00  0.00    +0.233 C 
ATOM     16  H   UNL     1      32.152  -4.241 -23.907  0.00  0.00    +0.149 HD
BRANCH  14  17
ATOM     17  C   UNL     1      33.089  -2.735 -25.032  0.00  0.00    +0.072 C 
ATOM     18  C   UNL     1      33.117  -2.723 -26.563  0.00  0.00    +0.020 C 
ATOM     19  C   UNL     1      32.017  -1.786 -24.488  0.00  0.00    +0.020 C 
ATOM     20  C   UNL     1      31.741  -2.978 -27.176  0.00  0.00    +0.002 C 
ATOM     21  C   UNL     1      30.641  -2.043 -25.103  0.00  0.00    +0.002 C 
ATOM     22  C   UNL     1      30.693  -2.014 -26.628  0.00  0.00    +0.000 C 
ENDBRANCH  14  17
ENDBRANCH  10  15
BRANCH  12  23
ATOM     23  S   UNL     1      30.697  -5.790 -24.392  0.00  0.00    -0.086 S 
BRANCH  23  24
ATOM     24  C   UNL     1      29.892  -5.693 -22.769  0.00  0.00    +0.064 C 
BRANCH  24  25
ATOM     25  C   UNL     1      30.192  -4.354 -22.103  0.00  0.00    +0.012 C 
ATOM     26  C   UNL     1      30.426  -4.526 -20.610  0.00  0.00    +0.001 C 
ENDBRANCH  24  25
ENDBRANCH  23  24
ENDBRANCH  12  23
BRANCH   3  27
ATOM     27  C   UNL     1      33.410 -13.819 -23.168  0.00  0.00    +0.111 C 
BRANCH  27  29
ATOM     28  O   UNL     1      34.200 -14.874 -21.118  0.00  0.00    -0.250 OA
ATOM     29  C   UNL     1      34.241 -14.754 -22.332  0.00  0.00    +0.314 C 
BRANCH  29  30
ATOM     30  O   UNL     1      35.070 -15.470 -23.134  0.00  0.00    -0.480 OA
ATOM     31  H   UNL     1      34.756 -15.810 -23.950  0.00  0.00    +0.295 HD
ENDBRANCH  29  30
ENDBRANCH  27  29
ENDBRANCH   3  27
TORSDOF 8
ENDMDL
