MODEL 1
REMARK VINA RESULT:     -12.0      0.000      0.000
REMARK  Name = 6470990
REMARK  3 active torsions:
REMARK  status: ('A' for Active; 'I' for Inactive)
REMARK    1  A    between atoms: C_1  and  N_14
REMARK    2  A    between atoms: C_2  and  C_11
REMARK    3  A    between atoms: C_15  and  C_18
REMARK                            x       y       z     vdW  Elec       q    Type
REMARK                         _______ _______ _______ _____ _____    ______ ____
ROOT
ATOM      1  C   UNL     1      34.945 -17.726 -21.685  0.00  0.00    +0.051 C 
ATOM      2  C   UNL     1      34.463 -19.684 -20.355  0.00  0.00    +0.067 C 
ATOM      3  C   UNL     1      34.021 -18.571 -21.072  0.00  0.00    +0.025 C 
ATOM      4  C   UNL     1      36.311 -17.990 -21.579  0.00  0.00    +0.015 C 
ATOM      5  C   UNL     1      35.828 -19.949 -20.249  0.00  0.00    +0.010 C 
ATOM      6  C   UNL     1      36.752 -19.102 -20.861  0.00  0.00    +0.002 C 
ENDROOT
BRANCH   2  11
ATOM      7  N   UNL     1      32.201 -20.306 -19.682  0.00  0.00    -0.110 NA
ATOM      8  N   UNL     1      33.881 -21.715 -19.114  0.00  0.00    -0.087 NA
ATOM      9  N   UNL     1      31.799 -21.390 -19.005  0.00  0.00    -0.140 N 
ATOM     10  N   UNL     1      32.761 -22.254 -18.648  0.00  0.00    -0.022 NA
ATOM     11  C   UNL     1      33.511 -20.555 -19.724  0.00  0.00    +0.074 C 
ATOM     12  H   UNL     1      30.852 -21.546 -18.783  0.00  0.00    +0.197 HD
ENDBRANCH   2  11
BRANCH   1  14
ATOM     13  O   UNL     1      34.294 -14.992 -20.743  0.00  0.00    -0.270 OA
ATOM     14  N   UNL     1      34.504 -16.613 -22.403  0.00  0.00    -0.280 N 
ATOM     15  C   UNL     1      34.204 -15.322 -21.924  0.00  0.00    +0.250 C 
ATOM     16  H   UNL     1      34.389 -16.749 -23.372  0.00  0.00    +0.155 HD
BRANCH  15  18
ATOM     17  F   UNL     1      33.054 -10.830 -23.294  0.00  0.00    -0.204 F 
ATOM     18  C   UNL     1      33.719 -14.375 -22.942  0.00  0.00    +0.056 C 
ATOM     19  C   UNL     1      33.617 -13.030 -22.623  0.00  0.00    +0.034 C 
ATOM     20  C   UNL     1      33.375 -14.846 -24.199  0.00  0.00    +0.005 C 
ATOM     21  C   UNL     1      33.158 -12.133 -23.587  0.00  0.00    +0.140 C 
ATOM     22  C   UNL     1      32.917 -13.949 -25.163  0.00  0.00    +0.002 C 
ATOM     23  C   UNL     1      32.808 -12.592 -24.858  0.00  0.00    +0.030 C 
ENDBRANCH  15  18
ENDBRANCH   1  14
TORSDOF 3
ENDMDL
MODEL 2
REMARK VINA RESULT:     -11.6      1.937      2.854
REMARK  Name = 6470990
REMARK  3 active torsions:
REMARK  status: ('A' for Active; 'I' for Inactive)
REMARK    1  A    between atoms: C_1  and  N_14
REMARK    2  A    between atoms: C_2  and  C_11
REMARK    3  A    between atoms: C_15  and  C_18
REMARK                            x       y       z     vdW  Elec       q    Type
REMARK                         _______ _______ _______ _____ _____    ______ ____
ROOT
ATOM      1  C   UNL     1      34.430 -20.046 -20.173  0.00  0.00    +0.051 C 
ATOM      2  C   UNL     1      33.508 -21.490 -18.471  0.00  0.00    +0.067 C 
ATOM      3  C   UNL     1      33.329 -20.536 -19.473  0.00  0.00    +0.025 C 
ATOM      4  C   UNL     1      35.712 -20.508 -19.871  0.00  0.00    +0.015 C 
ATOM      5  C   UNL     1      34.788 -21.952 -18.168  0.00  0.00    +0.010 C 
ATOM      6  C   UNL     1      35.890 -21.461 -18.868  0.00  0.00    +0.002 C 
ENDROOT
BRANCH   2  11
ATOM      7  N   UNL     1      31.122 -21.586 -17.968  0.00  0.00    -0.110 NA
ATOM      8  N   UNL     1      32.492 -22.941 -16.778  0.00  0.00    -0.087 NA
ATOM      9  N   UNL     1      30.489 -22.345 -17.063  0.00  0.00    -0.140 N 
ATOM     10  N   UNL     1      31.261 -23.164 -16.334  0.00  0.00    -0.022 NA
ATOM     11  C   UNL     1      32.373 -21.995 -17.750  0.00  0.00    +0.074 C 
ATOM     12  H   UNL     1      29.512 -22.305 -16.940  0.00  0.00    +0.197 HD
ENDBRANCH   2  11
BRANCH   1  14
ATOM     13  O   UNL     1      35.636 -17.355 -20.473  0.00  0.00    -0.270 OA
ATOM     14  N   UNL     1      34.252 -19.092 -21.177  0.00  0.00    -0.280 N 
ATOM     15  C   UNL     1      34.844 -17.818 -21.291  0.00  0.00    +0.250 C 
ATOM     16  H   UNL     1      33.633 -19.344 -21.900  0.00  0.00    +0.155 HD
BRANCH  15  18
ATOM     17  F   UNL     1      34.082 -13.564 -23.460  0.00  0.00    -0.204 F 
ATOM     18  C   UNL     1      34.412 -17.031 -22.458  0.00  0.00    +0.056 C 
ATOM     19  C   UNL     1      34.455 -15.648 -22.398  0.00  0.00    +0.034 C 
ATOM     20  C   UNL     1      33.972 -17.689 -23.596  0.00  0.00    +0.005 C 
ATOM     21  C   UNL     1      34.047 -14.902 -23.504  0.00  0.00    +0.140 C 
ATOM     22  C   UNL     1      33.564 -16.944 -24.702  0.00  0.00    +0.002 C 
ATOM     23  C   UNL     1      33.602 -15.551 -24.656  0.00  0.00    +0.030 C 
ENDBRANCH  15  18
ENDBRANCH   1  14
TORSDOF 3
ENDMDL
MODEL 3
REMARK VINA RESULT:     -11.5      3.017      4.971
REMARK  Name = 6470990
REMARK  3 active torsions:
REMARK  status: ('A' for Active; 'I' for Inactive)
REMARK    1  A    between atoms: C_1  and  N_14
REMARK    2  A    between atoms: C_2  and  C_11
REMARK    3  A    between atoms: C_15  and  C_18
REMARK                            x       y       z     vdW  Elec       q    Type
REMARK                         _______ _______ _______ _____ _____    ______ ____
ROOT
ATOM      1  C   UNL     1      33.306 -14.096 -22.924  0.00  0.00    +0.051 C 
ATOM      2  C   UNL     1      34.525 -16.171 -22.707  0.00  0.00    +0.067 C 
ATOM      3  C   UNL     1      34.072 -14.971 -22.155  0.00  0.00    +0.025 C 
ATOM      4  C   UNL     1      32.994 -14.418 -24.245  0.00  0.00    +0.015 C 
ATOM      5  C   UNL     1      34.214 -16.493 -24.027  0.00  0.00    +0.010 C 
ATOM      6  C   UNL     1      33.448 -15.616 -24.796  0.00  0.00    +0.002 C 
ENDROOT
BRANCH   2  11
ATOM      7  N   UNL     1      36.235 -17.889 -22.429  0.00  0.00    -0.110 NA
ATOM      8  N   UNL     1      35.175 -17.164 -20.563  0.00  0.00    -0.087 NA
ATOM      9  N   UNL     1      36.648 -18.483 -21.301  0.00  0.00    -0.140 N 
ATOM     10  N   UNL     1      36.047 -18.084 -20.170  0.00  0.00    -0.022 NA
ATOM     11  C   UNL     1      35.313 -17.073 -21.915  0.00  0.00    +0.074 C 
ATOM     12  H   UNL     1      37.352 -19.171 -21.301  0.00  0.00    +0.197 HD
ENDBRANCH   2  11
BRANCH   1  14
ATOM     13  O   UNL     1      31.635 -13.622 -20.522  0.00  0.00    -0.270 OA
ATOM     14  N   UNL     1      32.852 -12.897 -22.372  0.00  0.00    -0.280 N 
ATOM     15  C   UNL     1      32.056 -12.706 -21.224  0.00  0.00    +0.250 C 
ATOM     16  H   UNL     1      33.123 -12.079 -22.848  0.00  0.00    +0.155 HD
BRANCH  15  18
ATOM     17  F   UNL     1      30.935  -8.240 -22.701  0.00  0.00    -0.204 F 
ATOM     18  C   UNL     1      31.712 -11.304 -20.930  0.00  0.00    +0.056 C 
ATOM     19  C   UNL     1      31.484 -10.427 -21.977  0.00  0.00    +0.034 C 
ATOM     20  C   UNL     1      31.623 -10.890 -19.610  0.00  0.00    +0.005 C 
ATOM     21  C   UNL     1      31.158  -9.100 -21.699  0.00  0.00    +0.140 C 
ATOM     22  C   UNL     1      31.297  -9.563 -19.331  0.00  0.00    +0.002 C 
ATOM     23  C   UNL     1      31.064  -8.668 -20.375  0.00  0.00    +0.030 C 
ENDBRANCH  15  18
ENDBRANCH   1  14
TORSDOF 3
ENDMDL
MODEL 4
REMARK VINA RESULT:     -11.3      3.157      4.941
REMARK  Name = 6470990
REMARK  3 active torsions:
REMARK  status: ('A' for Active; 'I' for Inactive)
REMARK    1  A    between atoms: C_1  and  N_14
REMARK    2  A    between atoms: C_2  and  C_11
REMARK    3  A    between atoms: C_15  and  C_18
REMARK                            x       y       z     vdW  Elec       q    Type
REMARK                         _______ _______ _______ _____ _____    ______ ____
ROOT
ATOM      1  C   UNL     1      33.354 -14.208 -22.943  0.00  0.00    +0.051 C 
ATOM      2  C   UNL     1      34.579 -16.278 -22.719  0.00  0.00    +0.067 C 
ATOM      3  C   UNL     1      34.124 -15.078 -22.172  0.00  0.00    +0.025 C 
ATOM      4  C   UNL     1      33.040 -14.537 -24.262  0.00  0.00    +0.015 C 
ATOM      5  C   UNL     1      34.266 -16.607 -24.038  0.00  0.00    +0.010 C 
ATOM      6  C   UNL     1      33.496 -15.736 -24.809  0.00  0.00    +0.002 C 
ENDROOT
BRANCH   2  11
ATOM      7  N   UNL     1      36.299 -17.986 -22.438  0.00  0.00    -0.110 NA
ATOM      8  N   UNL     1      35.234 -17.264 -20.574  0.00  0.00    -0.087 NA
ATOM      9  N   UNL     1      36.714 -18.576 -21.308  0.00  0.00    -0.140 N 
ATOM     10  N   UNL     1      36.111 -18.178 -20.178  0.00  0.00    -0.022 NA
ATOM     11  C   UNL     1      35.372 -17.174 -21.925  0.00  0.00    +0.074 C 
ATOM     12  H   UNL     1      37.422 -19.261 -21.307  0.00  0.00    +0.197 HD
ENDBRANCH   2  11
BRANCH   1  14
ATOM     13  O   UNL     1      31.669 -13.730 -20.552  0.00  0.00    -0.270 OA
ATOM     14  N   UNL     1      32.897 -13.008 -22.396  0.00  0.00    -0.280 N 
ATOM     15  C   UNL     1      32.095 -12.815 -21.253  0.00  0.00    +0.250 C 
ATOM     16  H   UNL     1      33.172 -12.191 -22.870  0.00  0.00    +0.155 HD
BRANCH  15  18
ATOM     17  F   UNL     1      31.339  -9.226 -18.101  0.00  0.00    -0.204 F 
ATOM     18  C   UNL     1      31.750 -11.413 -20.962  0.00  0.00    +0.056 C 
ATOM     19  C   UNL     1      31.709 -10.983 -19.645  0.00  0.00    +0.034 C 
ATOM     20  C   UNL     1      31.475 -10.549 -22.010  0.00  0.00    +0.005 C 
ATOM     21  C   UNL     1      31.383  -9.656 -19.369  0.00  0.00    +0.140 C 
ATOM     22  C   UNL     1      31.149  -9.221 -21.735  0.00  0.00    +0.002 C 
ATOM     23  C   UNL     1      31.104  -8.774 -20.414  0.00  0.00    +0.030 C 
ENDBRANCH  15  18
ENDBRANCH   1  14
TORSDOF 3
ENDMDL
MODEL 5
REMARK VINA RESULT:     -11.3      6.232      8.658
REMARK  Name = 6470990
REMARK  3 active torsions:
REMARK  status: ('A' for Active; 'I' for Inactive)
REMARK    1  A    between atoms: C_1  and  N_14
REMARK    2  A    between atoms: C_2  and  C_11
REMARK    3  A    between atoms: C_15  and  C_18
REMARK                            x       y       z     vdW  Elec       q    Type
REMARK                         _______ _______ _______ _____ _____    ______ ____
ROOT
ATOM      1  C   UNL     1      35.307 -22.793 -15.437  0.00  0.00    +0.051 C 
ATOM      2  C   UNL     1      36.911 -24.061 -14.151  0.00  0.00    +0.067 C 
ATOM      3  C   UNL     1      36.584 -23.334 -15.296  0.00  0.00    +0.025 C 
ATOM      4  C   UNL     1      34.354 -22.979 -14.434  0.00  0.00    +0.015 C 
ATOM      5  C   UNL     1      35.959 -24.248 -13.148  0.00  0.00    +0.010 C 
ATOM      6  C   UNL     1      34.681 -23.707 -13.290  0.00  0.00    +0.002 C 
ENDROOT
BRANCH   2  11
ATOM      7  N   UNL     1      38.478 -25.741 -13.330  0.00  0.00    -0.110 NA
ATOM      8  N   UNL     1      39.328 -24.032 -14.550  0.00  0.00    -0.087 NA
ATOM      9  N   UNL     1      39.806 -25.799 -13.501  0.00  0.00    -0.140 N 
ATOM     10  N   UNL     1      40.354 -24.807 -14.218  0.00  0.00    -0.022 NA
ATOM     11  C   UNL     1      38.226 -24.618 -14.005  0.00  0.00    +0.074 C 
ATOM     12  H   UNL     1      40.349 -26.529 -13.123  0.00  0.00    +0.197 HD
ENDBRANCH   2  11
BRANCH   1  14
ATOM     13  O   UNL     1      33.444 -23.458 -17.644  0.00  0.00    -0.270 OA
ATOM     14  N   UNL     1      34.979 -22.064 -16.582  0.00  0.00    -0.280 N 
ATOM     15  C   UNL     1      34.085 -22.410 -17.616  0.00  0.00    +0.250 C 
ATOM     16  H   UNL     1      35.432 -21.195 -16.679  0.00  0.00    +0.155 HD
BRANCH  15  18
ATOM     17  F   UNL     1      36.181 -19.415 -20.781  0.00  0.00    -0.204 F 
ATOM     18  C   UNL     1      33.993 -21.433 -18.714  0.00  0.00    +0.056 C 
ATOM     19  C   UNL     1      35.154 -20.882 -19.231  0.00  0.00    +0.034 C 
ATOM     20  C   UNL     1      32.746 -21.085 -19.210  0.00  0.00    +0.005 C 
ATOM     21  C   UNL     1      35.067 -19.957 -20.271  0.00  0.00    +0.140 C 
ATOM     22  C   UNL     1      32.659 -20.161 -20.250  0.00  0.00    +0.002 C 
ATOM     23  C   UNL     1      33.819 -19.597 -20.782  0.00  0.00    +0.030 C 
ENDBRANCH  15  18
ENDBRANCH   1  14
TORSDOF 3
ENDMDL
MODEL 6
REMARK VINA RESULT:     -11.0      1.121      1.739
REMARK  Name = 6470990
REMARK  3 active torsions:
REMARK  status: ('A' for Active; 'I' for Inactive)
REMARK    1  A    between atoms: C_1  and  N_14
REMARK    2  A    between atoms: C_2  and  C_11
REMARK    3  A    between atoms: C_15  and  C_18
REMARK                            x       y       z     vdW  Elec       q    Type
REMARK                         _______ _______ _______ _____ _____    ______ ____
ROOT
ATOM      1  C   UNL     1      34.967 -18.053 -21.213  0.00  0.00    +0.051 C 
ATOM      2  C   UNL     1      34.501 -20.070 -19.969  0.00  0.00    +0.067 C 
ATOM      3  C   UNL     1      34.056 -18.898 -20.581  0.00  0.00    +0.025 C 
ATOM      4  C   UNL     1      36.324 -18.378 -21.232  0.00  0.00    +0.015 C 
ATOM      5  C   UNL     1      35.857 -20.396 -19.988  0.00  0.00    +0.010 C 
ATOM      6  C   UNL     1      36.768 -19.550 -20.619  0.00  0.00    +0.002 C 
ENDROOT
BRANCH   2  11
ATOM      7  N   UNL     1      33.878 -22.158 -18.869  0.00  0.00    -0.110 NA
ATOM      8  N   UNL     1      32.265 -20.586 -19.111  0.00  0.00    -0.087 NA
ATOM      9  N   UNL     1      32.686 -22.518 -18.375  0.00  0.00    -0.140 N 
ATOM     10  N   UNL     1      31.699 -21.618 -18.496  0.00  0.00    -0.022 NA
ATOM     11  C   UNL     1      33.562 -20.941 -19.318  0.00  0.00    +0.074 C 
ATOM     12  H   UNL     1      32.542 -23.394 -17.947  0.00  0.00    +0.197 HD
ENDBRANCH   2  11
BRANCH   1  14
ATOM     13  O   UNL     1      34.251 -15.437 -20.017  0.00  0.00    -0.270 OA
ATOM     14  N   UNL     1      34.523 -16.880 -21.826  0.00  0.00    -0.280 N 
ATOM     15  C   UNL     1      34.190 -15.648 -21.226  0.00  0.00    +0.250 C 
ATOM     16  H   UNL     1      34.430 -16.919 -22.806  0.00  0.00    +0.155 HD
BRANCH  15  18
ATOM     17  F   UNL     1      32.990 -14.209 -25.684  0.00  0.00    -0.204 F 
ATOM     18  C   UNL     1      33.711 -14.611 -22.155  0.00  0.00    +0.056 C 
ATOM     19  C   UNL     1      33.578 -14.914 -23.501  0.00  0.00    +0.034 C 
ATOM     20  C   UNL     1      33.403 -13.351 -21.666  0.00  0.00    +0.005 C 
ATOM     21  C   UNL     1      33.124 -13.931 -24.380  0.00  0.00    +0.140 C 
ATOM     22  C   UNL     1      32.949 -12.369 -22.545  0.00  0.00    +0.002 C 
ATOM     23  C   UNL     1      32.809 -12.659 -23.903  0.00  0.00    +0.030 C 
ENDBRANCH  15  18
ENDBRANCH   1  14
TORSDOF 3
ENDMDL
MODEL 7
REMARK VINA RESULT:     -10.9      3.207      4.909
REMARK  Name = 6470990
REMARK  3 active torsions:
REMARK  status: ('A' for Active; 'I' for Inactive)
REMARK    1  A    between atoms: C_1  and  N_14
REMARK    2  A    between atoms: C_2  and  C_11
REMARK    3  A    between atoms: C_15  and  C_18
REMARK                            x       y       z     vdW  Elec       q    Type
REMARK                         _______ _______ _______ _____ _____    ______ ____
ROOT
ATOM      1  C   UNL     1      33.631 -20.930 -19.072  0.00  0.00    +0.051 C 
ATOM      2  C   UNL     1      34.701 -22.080 -17.237  0.00  0.00    +0.067 C 
ATOM      3  C   UNL     1      34.777 -21.220 -18.333  0.00  0.00    +0.025 C 
ATOM      4  C   UNL     1      32.408 -21.501 -18.716  0.00  0.00    +0.015 C 
ATOM      5  C   UNL     1      33.479 -22.650 -16.880  0.00  0.00    +0.010 C 
ATOM      6  C   UNL     1      32.333 -22.361 -17.620  0.00  0.00    +0.002 C 
ENDROOT
BRANCH   2  11
ATOM      7  N   UNL     1      35.950 -23.368 -15.583  0.00  0.00    -0.110 NA
ATOM      8  N   UNL     1      37.032 -21.664 -16.608  0.00  0.00    -0.087 NA
ATOM      9  N   UNL     1      37.218 -23.207 -15.182  0.00  0.00    -0.140 N 
ATOM     10  N   UNL     1      37.899 -22.209 -15.763  0.00  0.00    -0.022 NA
ATOM     11  C   UNL     1      35.882 -22.379 -16.475  0.00  0.00    +0.074 C 
ATOM     12  H   UNL     1      37.628 -23.789 -14.500  0.00  0.00    +0.197 HD
ENDBRANCH   2  11
BRANCH   1  14
ATOM     13  O   UNL     1      35.935 -19.393 -20.126  0.00  0.00    -0.270 OA
ATOM     14  N   UNL     1      33.706 -20.070 -20.168  0.00  0.00    -0.280 N 
ATOM     15  C   UNL     1      34.821 -19.352 -20.645  0.00  0.00    +0.250 C 
ATOM     16  H   UNL     1      32.870 -19.949 -20.674  0.00  0.00    +0.155 HD
BRANCH  15  18
ATOM     17  F   UNL     1      34.867 -15.012 -22.776  0.00  0.00    -0.204 F 
ATOM     18  C   UNL     1      34.558 -18.491 -21.811  0.00  0.00    +0.056 C 
ATOM     19  C   UNL     1      34.844 -17.138 -21.733  0.00  0.00    +0.034 C 
ATOM     20  C   UNL     1      34.030 -19.051 -22.963  0.00  0.00    +0.005 C 
ATOM     21  C   UNL     1      34.596 -16.322 -22.837  0.00  0.00    +0.140 C 
ATOM     22  C   UNL     1      33.782 -18.236 -24.067  0.00  0.00    +0.002 C 
ATOM     23  C   UNL     1      34.064 -16.872 -24.004  0.00  0.00    +0.030 C 
ENDBRANCH  15  18
ENDBRANCH   1  14
TORSDOF 3
ENDMDL
MODEL 8
REMARK VINA RESULT:     -10.8      6.046      9.934
REMARK  Name = 6470990
REMARK  3 active torsions:
REMARK  status: ('A' for Active; 'I' for Inactive)
REMARK    1  A    between atoms: C_1  and  N_14
REMARK    2  A    between atoms: C_2  and  C_11
REMARK    3  A    between atoms: C_15  and  C_18
REMARK                            x       y       z     vdW  Elec       q    Type
REMARK                         _______ _______ _______ _____ _____    ______ ____
ROOT
ATOM      1  C   UNL     1      34.834 -21.677 -18.019  0.00  0.00    +0.051 C 
ATOM      2  C   UNL     1      34.733 -20.186 -19.917  0.00  0.00    +0.067 C 
ATOM      3  C   UNL     1      35.468 -20.810 -18.907  0.00  0.00    +0.025 C 
ATOM      4  C   UNL     1      33.465 -21.921 -18.138  0.00  0.00    +0.015 C 
ATOM      5  C   UNL     1      33.365 -20.429 -20.036  0.00  0.00    +0.010 C 
ATOM      6  C   UNL     1      32.731 -21.296 -19.146  0.00  0.00    +0.002 C 
ENDROOT
BRANCH   2  11
ATOM      7  N   UNL     1      36.534 -18.669 -20.559  0.00  0.00    -0.110 NA
ATOM      8  N   UNL     1      34.874 -19.011 -22.062  0.00  0.00    -0.087 NA
ATOM      9  N   UNL     1      36.685 -17.990 -21.704  0.00  0.00    -0.140 N 
ATOM     10  N   UNL     1      35.725 -18.162 -22.625  0.00  0.00    -0.022 NA
ATOM     11  C   UNL     1      35.386 -19.292 -20.832  0.00  0.00    +0.074 C 
ATOM     12  H   UNL     1      37.458 -17.399 -21.862  0.00  0.00    +0.197 HD
ENDBRANCH   2  11
BRANCH   1  14
ATOM     13  O   UNL     1      36.986 -20.600 -16.289  0.00  0.00    -0.270 OA
ATOM     14  N   UNL     1      35.568 -22.303 -17.010  0.00  0.00    -0.280 N 
ATOM     15  C   UNL     1      36.588 -21.760 -16.202  0.00  0.00    +0.250 C 
ATOM     16  H   UNL     1      35.344 -23.246 -16.841  0.00  0.00    +0.155 HD
BRANCH  15  18
ATOM     17  F   UNL     1      40.108 -24.847 -14.993  0.00  0.00    -0.204 F 
ATOM     18  C   UNL     1      37.198 -22.702 -15.249  0.00  0.00    +0.056 C 
ATOM     19  C   UNL     1      38.384 -23.335 -15.585  0.00  0.00    +0.034 C 
ATOM     20  C   UNL     1      36.574 -22.937 -14.034  0.00  0.00    +0.005 C 
ATOM     21  C   UNL     1      38.962 -24.227 -14.682  0.00  0.00    +0.140 C 
ATOM     22  C   UNL     1      37.152 -23.829 -13.131  0.00  0.00    +0.002 C 
ATOM     23  C   UNL     1      38.346 -24.474 -13.454  0.00  0.00    +0.030 C 
ENDBRANCH  15  18
ENDBRANCH   1  14
TORSDOF 3
ENDMDL
MODEL 9
REMARK VINA RESULT:     -10.7      3.932      6.387
REMARK  Name = 6470990
REMARK  3 active torsions:
REMARK  status: ('A' for Active; 'I' for Inactive)
REMARK    1  A    between atoms: C_1  and  N_14
REMARK    2  A    between atoms: C_2  and  C_11
REMARK    3  A    between atoms: C_15  and  C_18
REMARK                            x       y       z     vdW  Elec       q    Type
REMARK                         _______ _______ _______ _____ _____    ______ ____
ROOT
ATOM      1  C   UNL     1      33.169 -12.130 -23.667  0.00  0.00    +0.051 C 
ATOM      2  C   UNL     1      33.731 -14.431 -23.192  0.00  0.00    +0.067 C 
ATOM      3  C   UNL     1      33.645 -13.099 -22.785  0.00  0.00    +0.025 C 
ATOM      4  C   UNL     1      32.779 -12.491 -24.957  0.00  0.00    +0.015 C 
ATOM      5  C   UNL     1      33.341 -14.793 -24.482  0.00  0.00    +0.010 C 
ATOM      6  C   UNL     1      32.866 -13.823 -25.364  0.00  0.00    +0.002 C 
ENDROOT
BRANCH   2  11
ATOM      7  N   UNL     1      34.726 -16.600 -22.680  0.00  0.00    -0.110 NA
ATOM      8  N   UNL     1      34.205 -15.255 -20.934  0.00  0.00    -0.087 NA
ATOM      9  N   UNL     1      35.015 -17.124 -21.482  0.00  0.00    -0.140 N 
ATOM     10  N   UNL     1      34.724 -16.362 -20.417  0.00  0.00    -0.022 NA
ATOM     11  C   UNL     1      34.221 -15.430 -22.284  0.00  0.00    +0.074 C 
ATOM     12  H   UNL     1      35.420 -18.018 -21.387  0.00  0.00    +0.197 HD
ENDBRANCH   2  11
BRANCH   1  14
ATOM     13  O   UNL     1      31.006 -10.727 -22.205  0.00  0.00    -0.270 OA
ATOM     14  N   UNL     1      33.082 -10.798 -23.260  0.00  0.00    -0.280 N 
ATOM     15  C   UNL     1      32.036 -10.160 -22.563  0.00  0.00    +0.250 C 
ATOM     16  H   UNL     1      33.853 -10.230 -23.490  0.00  0.00    +0.155 HD
BRANCH  15  18
ATOM     17  F   UNL     1      31.062  -6.135 -20.068  0.00  0.00    -0.204 F 
ATOM     18  C   UNL     1      32.235  -8.722 -22.319  0.00  0.00    +0.056 C 
ATOM     19  C   UNL     1      31.540  -8.106 -21.290  0.00  0.00    +0.034 C 
ATOM     20  C   UNL     1      33.113  -8.011 -23.121  0.00  0.00    +0.005 C 
ATOM     21  C   UNL     1      31.728  -6.744 -21.058  0.00  0.00    +0.140 C 
ATOM     22  C   UNL     1      33.301  -6.649 -22.889  0.00  0.00    +0.002 C 
ATOM     23  C   UNL     1      32.609  -6.015 -21.857  0.00  0.00    +0.030 C 
ENDBRANCH  15  18
ENDBRANCH   1  14
TORSDOF 3
ENDMDL
