MODEL 1
REMARK VINA RESULT:     -10.9      0.000      0.000
REMARK  Name = 446245
REMARK  2 active torsions:
REMARK  status: ('A' for Active; 'I' for Inactive)
REMARK    1  A    between atoms: C_6  and  S_17
REMARK    2  A    between atoms: S_17  and  C_18
REMARK                            x       y       z     vdW  Elec       q    Type
REMARK                         _______ _______ _______ _____ _____    ______ ____
ROOT
ATOM      1  N   UNL     1      32.969 -13.698 -23.467  0.00  0.00    -0.332 NA
ATOM      2  N   UNL     1      33.308 -15.195 -25.324  0.00  0.00    -0.317 NA
ATOM      3  N   UNL     1      34.257 -17.275 -25.073  0.00  0.00    -0.335 N 
ATOM      4  N   UNL     1      32.335 -13.087 -25.641  0.00  0.00    -0.283 N 
ATOM      5  C   UNL     1      33.969 -15.847 -23.093  0.00  0.00    +0.149 C 
ATOM      6  C   UNL     1      34.527 -16.786 -22.209  0.00  0.00    +0.022 C 
ATOM      7  C   UNL     1      33.506 -14.605 -22.630  0.00  0.00    +0.135 C 
ATOM      8  C   UNL     1      33.839 -16.079 -24.459  0.00  0.00    +0.178 C 
ATOM      9  C   UNL     1      34.627 -16.492 -20.853  0.00  0.00    +0.003 C 
ATOM     10  C   UNL     1      33.617 -14.336 -21.268  0.00  0.00    +0.029 C 
ATOM     11  C   UNL     1      34.172 -15.265 -20.382  0.00  0.00    +0.003 C 
ATOM     12  C   UNL     1      32.900 -14.043 -24.768  0.00  0.00    +0.197 C 
ATOM     13  H   UNL     1      34.146 -17.396 -26.044  0.00  0.00    +0.144 HD
ATOM     14  H   UNL     1      34.660 -17.992 -24.531  0.00  0.00    +0.144 HD
ATOM     15  H   UNL     1      32.020 -12.224 -25.288  0.00  0.00    +0.156 HD
ATOM     16  H   UNL     1      32.259 -13.283 -26.603  0.00  0.00    +0.156 HD
ENDROOT
BRANCH   6  17
ATOM     17  S   UNL     1      35.177 -18.424 -22.591  0.00  0.00    -0.090 S 
BRANCH  17  18
ATOM     18  C   UNL     1      34.405 -19.392 -21.308  0.00  0.00    +0.029 C 
ATOM     19  C   UNL     1      33.198 -20.907 -19.301  0.00  0.00    -0.022 C 
ATOM     20  C   UNL     1      35.192 -20.096 -20.397  0.00  0.00    +0.006 C 
ATOM     21  C   UNL     1      33.015 -19.446 -21.216  0.00  0.00    +0.006 C 
ATOM     22  C   UNL     1      34.588 -20.854 -19.393  0.00  0.00    -0.004 C 
ATOM     23  C   UNL     1      32.411 -20.203 -20.213  0.00  0.00    -0.004 C 
ATOM     24  C   UNL     1      32.552 -21.717 -18.228  0.00  0.00    +0.031 C 
ENDBRANCH  17  18
ENDBRANCH   6  17
TORSDOF 2
ENDMDL
MODEL 2
REMARK VINA RESULT:     -10.4      1.536      2.158
REMARK  Name = 446245
REMARK  2 active torsions:
REMARK  status: ('A' for Active; 'I' for Inactive)
REMARK    1  A    between atoms: C_6  and  S_17
REMARK    2  A    between atoms: S_17  and  C_18
REMARK                            x       y       z     vdW  Elec       q    Type
REMARK                         _______ _______ _______ _____ _____    ______ ____
ROOT
ATOM      1  N   UNL     1      32.889 -11.960 -22.258  0.00  0.00    -0.332 NA
ATOM      2  N   UNL     1      32.858 -12.672 -24.559  0.00  0.00    -0.317 NA
ATOM      3  N   UNL     1      33.459 -14.799 -25.198  0.00  0.00    -0.335 N 
ATOM      4  N   UNL     1      32.236 -10.492 -23.968  0.00  0.00    -0.283 N 
ATOM      5  C   UNL     1      33.535 -14.202 -22.815  0.00  0.00    +0.149 C 
ATOM      6  C   UNL     1      33.981 -15.471 -22.407  0.00  0.00    +0.022 C 
ATOM      7  C   UNL     1      33.316 -13.178 -21.879  0.00  0.00    +0.135 C 
ATOM      8  C   UNL     1      33.286 -13.880 -24.146  0.00  0.00    +0.178 C 
ATOM      9  C   UNL     1      34.211 -15.728 -21.060  0.00  0.00    +0.003 C 
ATOM     10  C   UNL     1      33.554 -13.462 -20.537  0.00  0.00    +0.029 C 
ATOM     11  C   UNL     1      33.998 -14.722 -20.124  0.00  0.00    +0.003 C 
ATOM     12  C   UNL     1      32.684 -11.774 -23.578  0.00  0.00    +0.197 C 
ATOM     13  H   UNL     1      33.270 -14.528 -26.126  0.00  0.00    +0.144 HD
ATOM     14  H   UNL     1      33.768 -15.714 -25.007  0.00  0.00    +0.144 HD
ATOM     15  H   UNL     1      32.091  -9.794 -23.290  0.00  0.00    +0.156 HD
ATOM     16  H   UNL     1      32.069 -10.298 -24.919  0.00  0.00    +0.156 HD
ENDROOT
BRANCH   6  17
ATOM     17  S   UNL     1      34.322 -16.912 -23.434  0.00  0.00    -0.090 S 
BRANCH  17  18
ATOM     18  C   UNL     1      34.748 -18.113 -22.186  0.00  0.00    +0.029 C 
ATOM     19  C   UNL     1      35.415 -19.990 -20.234  0.00  0.00    -0.022 C 
ATOM     20  C   UNL     1      36.036 -18.135 -21.652  0.00  0.00    +0.006 C 
ATOM     21  C   UNL     1      33.794 -19.028 -21.745  0.00  0.00    +0.006 C 
ATOM     22  C   UNL     1      36.370 -19.074 -20.676  0.00  0.00    -0.004 C 
ATOM     23  C   UNL     1      34.127 -19.966 -20.768  0.00  0.00    -0.004 C 
ATOM     24  C   UNL     1      35.772 -20.994 -19.190  0.00  0.00    +0.031 C 
ENDBRANCH  17  18
ENDBRANCH   6  17
TORSDOF 2
ENDMDL
MODEL 3
REMARK VINA RESULT:      -9.7      8.469     11.715
REMARK  Name = 446245
REMARK  2 active torsions:
REMARK  status: ('A' for Active; 'I' for Inactive)
REMARK    1  A    between atoms: C_6  and  S_17
REMARK    2  A    between atoms: S_17  and  C_18
REMARK                            x       y       z     vdW  Elec       q    Type
REMARK                         _______ _______ _______ _____ _____    ______ ____
ROOT
ATOM      1  N   UNL     1      39.207 -24.783 -13.060  0.00  0.00    -0.332 NA
ATOM      2  N   UNL     1      38.247 -26.221 -14.738  0.00  0.00    -0.317 NA
ATOM      3  N   UNL     1      36.038 -26.078 -15.365  0.00  0.00    -0.335 N 
ATOM      4  N   UNL     1      40.504 -26.413 -14.140  0.00  0.00    -0.283 N 
ATOM      5  C   UNL     1      36.891 -24.550 -13.639  0.00  0.00    +0.149 C 
ATOM      6  C   UNL     1      35.656 -23.902 -13.459  0.00  0.00    +0.022 C 
ATOM      7  C   UNL     1      38.020 -24.171 -12.896  0.00  0.00    +0.135 C 
ATOM      8  C   UNL     1      37.074 -25.587 -14.548  0.00  0.00    +0.178 C 
ATOM      9  C   UNL     1      35.540 -22.871 -12.533  0.00  0.00    +0.003 C 
ATOM     10  C   UNL     1      37.876 -23.135 -11.976  0.00  0.00    +0.029 C 
ATOM     11  C   UNL     1      36.651 -22.487 -11.791  0.00  0.00    +0.003 C 
ATOM     12  C   UNL     1      39.255 -25.775 -13.972  0.00  0.00    +0.197 C 
ATOM     13  H   UNL     1      36.213 -26.815 -15.994  0.00  0.00    +0.144 HD
ATOM     14  H   UNL     1      35.137 -25.685 -15.308  0.00  0.00    +0.144 HD
ATOM     15  H   UNL     1      41.278 -26.126 -13.604  0.00  0.00    +0.156 HD
ATOM     16  H   UNL     1      40.599 -27.144 -14.792  0.00  0.00    +0.156 HD
ENDROOT
BRANCH   6  17
ATOM     17  S   UNL     1      34.096 -24.228 -14.301  0.00  0.00    -0.090 S 
BRANCH  17  18
ATOM     18  C   UNL     1      34.297 -23.231 -15.766  0.00  0.00    +0.029 C 
ATOM     19  C   UNL     1      34.612 -21.670 -18.055  0.00  0.00    -0.022 C 
ATOM     20  C   UNL     1      35.497 -22.555 -15.989  0.00  0.00    +0.006 C 
ATOM     21  C   UNL     1      33.255 -23.125 -16.685  0.00  0.00    +0.006 C 
ATOM     22  C   UNL     1      35.654 -21.775 -17.134  0.00  0.00    -0.004 C 
ATOM     23  C   UNL     1      33.413 -22.345 -17.831  0.00  0.00    -0.004 C 
ATOM     24  C   UNL     1      34.781 -20.835 -19.280  0.00  0.00    +0.031 C 
ENDBRANCH  17  18
ENDBRANCH   6  17
TORSDOF 2
ENDMDL
MODEL 4
REMARK VINA RESULT:      -9.6      4.767      7.741
REMARK  Name = 446245
REMARK  2 active torsions:
REMARK  status: ('A' for Active; 'I' for Inactive)
REMARK    1  A    between atoms: C_6  and  S_17
REMARK    2  A    between atoms: S_17  and  C_18
REMARK                            x       y       z     vdW  Elec       q    Type
REMARK                         _______ _______ _______ _____ _____    ______ ____
ROOT
ATOM      1  N   UNL     1      32.697 -22.477 -17.047  0.00  0.00    -0.332 NA
ATOM      2  N   UNL     1      35.073 -22.473 -16.651  0.00  0.00    -0.317 NA
ATOM      3  N   UNL     1      36.545 -21.342 -18.010  0.00  0.00    -0.335 N 
ATOM      4  N   UNL     1      33.622 -23.643 -15.233  0.00  0.00    -0.283 N 
ATOM      5  C   UNL     1      34.143 -21.264 -18.526  0.00  0.00    +0.149 C 
ATOM      6  C   UNL     1      34.310 -20.448 -19.658  0.00  0.00    +0.022 C 
ATOM      7  C   UNL     1      32.868 -21.696 -18.128  0.00  0.00    +0.135 C 
ATOM      8  C   UNL     1      35.209 -21.692 -17.739  0.00  0.00    +0.178 C 
ATOM      9  C   UNL     1      33.202 -20.056 -20.402  0.00  0.00    +0.003 C 
ATOM     10  C   UNL     1      31.776 -21.289 -18.890  0.00  0.00    +0.029 C 
ATOM     11  C   UNL     1      31.933 -20.477 -20.018  0.00  0.00    +0.003 C 
ATOM     12  C   UNL     1      33.809 -22.823 -16.367  0.00  0.00    +0.197 C 
ATOM     13  H   UNL     1      37.268 -21.667 -17.426  0.00  0.00    +0.144 HD
ATOM     14  H   UNL     1      36.758 -20.771 -18.784  0.00  0.00    +0.144 HD
ATOM     15  H   UNL     1      32.716 -23.931 -14.978  0.00  0.00    +0.156 HD
ATOM     16  H   UNL     1      34.398 -23.927 -14.698  0.00  0.00    +0.156 HD
ENDROOT
BRANCH   6  17
ATOM     17  S   UNL     1      35.843 -19.788 -20.338  0.00  0.00    -0.090 S 
BRANCH  17  18
ATOM     18  C   UNL     1      35.203 -18.636 -21.538  0.00  0.00    +0.029 C 
ATOM     19  C   UNL     1      34.201 -16.834 -23.417  0.00  0.00    -0.022 C 
ATOM     20  C   UNL     1      34.682 -19.104 -22.745  0.00  0.00    +0.006 C 
ATOM     21  C   UNL     1      35.223 -17.268 -21.271  0.00  0.00    +0.006 C 
ATOM     22  C   UNL     1      34.181 -18.202 -23.684  0.00  0.00    -0.004 C 
ATOM     23  C   UNL     1      34.722 -16.367 -22.210  0.00  0.00    -0.004 C 
ATOM     24  C   UNL     1      33.665 -15.870 -24.421  0.00  0.00    +0.031 C 
ENDBRANCH  17  18
ENDBRANCH   6  17
TORSDOF 2
ENDMDL
MODEL 5
REMARK VINA RESULT:      -9.4      7.260     10.184
REMARK  Name = 446245
REMARK  2 active torsions:
REMARK  status: ('A' for Active; 'I' for Inactive)
REMARK    1  A    between atoms: C_6  and  S_17
REMARK    2  A    between atoms: S_17  and  C_18
REMARK                            x       y       z     vdW  Elec       q    Type
REMARK                         _______ _______ _______ _____ _____    ______ ____
ROOT
ATOM      1  N   UNL     1      36.118 -22.994 -12.656  0.00  0.00    -0.332 NA
ATOM      2  N   UNL     1      33.865 -23.838 -12.524  0.00  0.00    -0.317 NA
ATOM      3  N   UNL     1      32.446 -23.846 -14.335  0.00  0.00    -0.335 N 
ATOM      4  N   UNL     1      35.266 -23.855 -10.646  0.00  0.00    -0.283 N 
ATOM      5  C   UNL     1      34.721 -22.956 -14.605  0.00  0.00    +0.149 C 
ATOM      6  C   UNL     1      34.546 -22.643 -15.964  0.00  0.00    +0.022 C 
ATOM      7  C   UNL     1      35.939 -22.698 -13.956  0.00  0.00    +0.135 C 
ATOM      8  C   UNL     1      33.720 -23.529 -13.827  0.00  0.00    +0.178 C 
ATOM      9  C   UNL     1      35.588 -22.070 -16.686  0.00  0.00    +0.003 C 
ATOM     10  C   UNL     1      36.966 -22.125 -14.702  0.00  0.00    +0.029 C 
ATOM     11  C   UNL     1      36.799 -21.811 -16.055  0.00  0.00    +0.003 C 
ATOM     12  C   UNL     1      35.070 -23.547 -12.011  0.00  0.00    +0.197 C 
ATOM     13  H   UNL     1      31.767 -24.251 -13.748  0.00  0.00    +0.144 HD
ATOM     14  H   UNL     1      32.232 -23.662 -15.279  0.00  0.00    +0.144 HD
ATOM     15  H   UNL     1      36.130 -23.663 -10.217  0.00  0.00    +0.156 HD
ATOM     16  H   UNL     1      34.536 -24.261 -10.125  0.00  0.00    +0.156 HD
ENDROOT
BRANCH   6  17
ATOM     17  S   UNL     1      33.078 -22.887 -16.982  0.00  0.00    -0.090 S 
BRANCH  17  18
ATOM     18  C   UNL     1      33.432 -21.787 -18.340  0.00  0.00    +0.029 C 
ATOM     19  C   UNL     1      33.986 -20.066 -20.464  0.00  0.00    -0.022 C 
ATOM     20  C   UNL     1      34.731 -21.690 -18.837  0.00  0.00    +0.006 C 
ATOM     21  C   UNL     1      32.410 -21.024 -18.903  0.00  0.00    +0.006 C 
ATOM     22  C   UNL     1      35.008 -20.829 -19.900  0.00  0.00    -0.004 C 
ATOM     23  C   UNL     1      32.687 -20.164 -19.965  0.00  0.00    -0.004 C 
ATOM     24  C   UNL     1      34.282 -19.146 -21.600  0.00  0.00    +0.031 C 
ENDBRANCH  17  18
ENDBRANCH   6  17
TORSDOF 2
ENDMDL
MODEL 6
REMARK VINA RESULT:      -9.2      9.859     11.566
REMARK  Name = 446245
REMARK  2 active torsions:
REMARK  status: ('A' for Active; 'I' for Inactive)
REMARK    1  A    between atoms: C_6  and  S_17
REMARK    2  A    between atoms: S_17  and  C_18
REMARK                            x       y       z     vdW  Elec       q    Type
REMARK                         _______ _______ _______ _____ _____    ______ ____
ROOT
ATOM      1  N   UNL     1      38.974 -24.097 -15.084  0.00  0.00    -0.332 NA
ATOM      2  N   UNL     1      38.360 -25.700 -13.394  0.00  0.00    -0.317 NA
ATOM      3  N   UNL     1      36.322 -25.646 -12.328  0.00  0.00    -0.335 N 
ATOM      4  N   UNL     1      40.451 -25.804 -14.446  0.00  0.00    -0.283 N 
ATOM      5  C   UNL     1      36.822 -23.950 -14.035  0.00  0.00    +0.149 C 
ATOM      6  C   UNL     1      35.580 -23.305 -13.903  0.00  0.00    +0.022 C 
ATOM      7  C   UNL     1      37.782 -23.488 -14.950  0.00  0.00    +0.135 C 
ATOM      8  C   UNL     1      37.177 -25.066 -13.284  0.00  0.00    +0.178 C 
ATOM      9  C   UNL     1      35.286 -22.193 -14.684  0.00  0.00    +0.003 C 
ATOM     10  C   UNL     1      37.463 -22.373 -15.720  0.00  0.00    +0.029 C 
ATOM     11  C   UNL     1      36.229 -21.725 -15.594  0.00  0.00    +0.003 C 
ATOM     12  C   UNL     1      39.197 -25.170 -14.299  0.00  0.00    +0.197 C 
ATOM     13  H   UNL     1      36.615 -26.437 -11.819  0.00  0.00    +0.144 HD
ATOM     14  H   UNL     1      35.430 -25.262 -12.167  0.00  0.00    +0.144 HD
ATOM     15  H   UNL     1      41.104 -25.458 -15.095  0.00  0.00    +0.156 HD
ATOM     16  H   UNL     1      40.670 -26.593 -13.899  0.00  0.00    +0.156 HD
ENDROOT
BRANCH   6  17
ATOM     17  S   UNL     1      34.218 -23.730 -12.801  0.00  0.00    -0.090 S 
BRANCH  17  18
ATOM     18  C   UNL     1      32.821 -23.331 -13.834  0.00  0.00    +0.029 C 
ATOM     19  C   UNL     1      30.636 -22.707 -15.451  0.00  0.00    -0.022 C 
ATOM     20  C   UNL     1      32.922 -23.453 -15.220  0.00  0.00    +0.006 C 
ATOM     21  C   UNL     1      31.629 -22.897 -13.257  0.00  0.00    +0.006 C 
ATOM     22  C   UNL     1      31.829 -23.141 -16.029  0.00  0.00    -0.004 C 
ATOM     23  C   UNL     1      30.536 -22.585 -14.065  0.00  0.00    -0.004 C 
ATOM     24  C   UNL     1      29.467 -22.374 -16.316  0.00  0.00    +0.031 C 
ENDBRANCH  17  18
ENDBRANCH   6  17
TORSDOF 2
ENDMDL
MODEL 7
REMARK VINA RESULT:      -9.2      6.328      9.355
REMARK  Name = 446245
REMARK  2 active torsions:
REMARK  status: ('A' for Active; 'I' for Inactive)
REMARK    1  A    between atoms: C_6  and  S_17
REMARK    2  A    between atoms: S_17  and  C_18
REMARK                            x       y       z     vdW  Elec       q    Type
REMARK                         _______ _______ _______ _____ _____    ______ ____
ROOT
ATOM      1  N   UNL     1      35.423 -23.047 -13.803  0.00  0.00    -0.332 NA
ATOM      2  N   UNL     1      33.169 -23.711 -14.335  0.00  0.00    -0.317 NA
ATOM      3  N   UNL     1      32.234 -23.346 -16.406  0.00  0.00    -0.335 N 
ATOM      4  N   UNL     1      34.069 -24.109 -12.209  0.00  0.00    -0.283 N 
ATOM      5  C   UNL     1      34.546 -22.619 -15.994  0.00  0.00    +0.149 C 
ATOM      6  C   UNL     1      34.722 -22.104 -17.290  0.00  0.00    +0.022 C 
ATOM      7  C   UNL     1      35.580 -22.557 -15.046  0.00  0.00    +0.135 C 
ATOM      8  C   UNL     1      33.360 -23.211 -15.571  0.00  0.00    +0.178 C 
ATOM      9  C   UNL     1      35.933 -21.523 -17.650  0.00  0.00    +0.003 C 
ATOM     10  C   UNL     1      36.783 -21.972 -15.433  0.00  0.00    +0.029 C 
ATOM     11  C   UNL     1      36.965 -21.457 -16.721  0.00  0.00    +0.003 C 
ATOM     12  C   UNL     1      34.226 -23.597 -13.516  0.00  0.00    +0.197 C 
ATOM     13  H   UNL     1      31.415 -23.773 -16.064  0.00  0.00    +0.144 HD
ATOM     14  H   UNL     1      32.265 -23.014 -17.332  0.00  0.00    +0.144 HD
ATOM     15  H   UNL     1      34.811 -24.052 -11.565  0.00  0.00    +0.156 HD
ATOM     16  H   UNL     1      33.216 -24.523 -11.942  0.00  0.00    +0.156 HD
ENDROOT
BRANCH   6  17
ATOM     17  S   UNL     1      33.536 -22.080 -18.648  0.00  0.00    -0.090 S 
BRANCH  17  18
ATOM     18  C   UNL     1      34.207 -20.766 -19.649  0.00  0.00    +0.029 C 
ATOM     19  C   UNL     1      35.257 -18.711 -21.215  0.00  0.00    -0.022 C 
ATOM     20  C   UNL     1      33.350 -19.884 -20.307  0.00  0.00    +0.006 C 
ATOM     21  C   UNL     1      35.588 -20.621 -19.773  0.00  0.00    +0.006 C 
ATOM     22  C   UNL     1      33.876 -18.857 -21.091  0.00  0.00    -0.004 C 
ATOM     23  C   UNL     1      36.113 -19.593 -20.556  0.00  0.00    -0.004 C 
ATOM     24  C   UNL     1      35.818 -17.612 -22.053  0.00  0.00    +0.031 C 
ENDBRANCH  17  18
ENDBRANCH   6  17
TORSDOF 2
ENDMDL
MODEL 8
REMARK VINA RESULT:      -9.1      8.294     10.363
REMARK  Name = 446245
REMARK  2 active torsions:
REMARK  status: ('A' for Active; 'I' for Inactive)
REMARK    1  A    between atoms: C_6  and  S_17
REMARK    2  A    between atoms: S_17  and  C_18
REMARK                            x       y       z     vdW  Elec       q    Type
REMARK                         _______ _______ _______ _____ _____    ______ ____
ROOT
ATOM      1  N   UNL     1      29.840 -22.167 -16.876  0.00  0.00    -0.332 NA
ATOM      2  N   UNL     1      29.100 -22.784 -14.668  0.00  0.00    -0.317 NA
ATOM      3  N   UNL     1      30.558 -23.482 -13.030  0.00  0.00    -0.335 N 
ATOM      4  N   UNL     1      27.569 -22.081 -16.295  0.00  0.00    -0.283 N 
ATOM      5  C   UNL     1      31.445 -22.881 -15.242  0.00  0.00    +0.149 C 
ATOM      6  C   UNL     1      32.780 -23.152 -14.893  0.00  0.00    +0.022 C 
ATOM      7  C   UNL     1      31.114 -22.430 -16.530  0.00  0.00    +0.135 C 
ATOM      8  C   UNL     1      30.385 -23.038 -14.355  0.00  0.00    +0.178 C 
ATOM      9  C   UNL     1      33.794 -22.974 -15.828  0.00  0.00    +0.003 C 
ATOM     10  C   UNL     1      32.148 -22.260 -17.447  0.00  0.00    +0.029 C 
ATOM     11  C   UNL     1      33.478 -22.528 -17.106  0.00  0.00    +0.003 C 
ATOM     12  C   UNL     1      28.903 -22.359 -15.925  0.00  0.00    +0.197 C 
ATOM     13  H   UNL     1      29.778 -23.578 -12.437  0.00  0.00    +0.144 HD
ATOM     14  H   UNL     1      31.460 -23.696 -12.696  0.00  0.00    +0.144 HD
ATOM     15  H   UNL     1      27.366 -21.766 -17.205  0.00  0.00    +0.156 HD
ATOM     16  H   UNL     1      26.842 -22.202 -15.642  0.00  0.00    +0.156 HD
ENDROOT
BRANCH   6  17
ATOM     17  S   UNL     1      33.419 -23.734 -13.311  0.00  0.00    -0.090 S 
BRANCH  17  18
ATOM     18  C   UNL     1      35.133 -23.996 -13.725  0.00  0.00    +0.029 C 
ATOM     19  C   UNL     1      37.815 -24.407 -14.372  0.00  0.00    -0.022 C 
ATOM     20  C   UNL     1      35.524 -25.173 -14.363  0.00  0.00    +0.006 C 
ATOM     21  C   UNL     1      36.082 -23.026 -13.409  0.00  0.00    +0.006 C 
ATOM     22  C   UNL     1      36.865 -25.379 -14.687  0.00  0.00    -0.004 C 
ATOM     23  C   UNL     1      37.423 -23.231 -13.733  0.00  0.00    -0.004 C 
ATOM     24  C   UNL     1      39.249 -24.627 -14.718  0.00  0.00    +0.031 C 
ENDBRANCH  17  18
ENDBRANCH   6  17
TORSDOF 2
ENDMDL
MODEL 9
REMARK VINA RESULT:      -9.0      3.798      7.440
REMARK  Name = 446245
REMARK  2 active torsions:
REMARK  status: ('A' for Active; 'I' for Inactive)
REMARK    1  A    between atoms: C_6  and  S_17
REMARK    2  A    between atoms: S_17  and  C_18
REMARK                            x       y       z     vdW  Elec       q    Type
REMARK                         _______ _______ _______ _____ _____    ______ ____
ROOT
ATOM      1  N   UNL     1      34.306 -16.702 -22.236  0.00  0.00    -0.332 NA
ATOM      2  N   UNL     1      33.778 -16.511 -24.579  0.00  0.00    -0.317 NA
ATOM      3  N   UNL     1      33.065 -14.538 -25.524  0.00  0.00    -0.335 N 
ATOM      4  N   UNL     1      34.500 -18.547 -23.672  0.00  0.00    -0.283 N 
ATOM      5  C   UNL     1      33.570 -14.596 -23.119  0.00  0.00    +0.149 C 
ATOM      6  C   UNL     1      33.255 -13.241 -22.917  0.00  0.00    +0.022 C 
ATOM      7  C   UNL     1      34.001 -15.404 -22.054  0.00  0.00    +0.135 C 
ATOM      8  C   UNL     1      33.480 -15.216 -24.362  0.00  0.00    +0.178 C 
ATOM      9  C   UNL     1      33.366 -12.682 -21.648  0.00  0.00    +0.003 C 
ATOM     10  C   UNL     1      34.105 -14.819 -20.794  0.00  0.00    +0.029 C 
ATOM     11  C   UNL     1      33.792 -13.472 -20.586  0.00  0.00    +0.003 C 
ATOM     12  C   UNL     1      34.178 -17.184 -23.489  0.00  0.00    +0.197 C 
ATOM     13  H   UNL     1      33.015 -15.017 -26.383  0.00  0.00    +0.144 HD
ATOM     14  H   UNL     1      32.823 -13.584 -25.478  0.00  0.00    +0.144 HD
ATOM     15  H   UNL     1      34.799 -19.089 -22.907  0.00  0.00    +0.156 HD
ATOM     16  H   UNL     1      34.426 -18.954 -24.565  0.00  0.00    +0.156 HD
ENDROOT
BRANCH   6  17
ATOM     17  S   UNL     1      32.688 -12.038 -24.133  0.00  0.00    -0.090 S 
BRANCH  17  18
ATOM     18  C   UNL     1      32.274 -10.666 -23.072  0.00  0.00    +0.029 C 
ATOM     19  C   UNL     1      31.625  -8.521 -21.412  0.00  0.00    -0.022 C 
ATOM     20  C   UNL     1      32.913  -9.438 -23.239  0.00  0.00    +0.006 C 
ATOM     21  C   UNL     1      31.311 -10.822 -22.076  0.00  0.00    +0.006 C 
ATOM     22  C   UNL     1      32.589  -8.365 -22.408  0.00  0.00    -0.004 C 
ATOM     23  C   UNL     1      30.986  -9.750 -21.247  0.00  0.00    -0.004 C 
ATOM     24  C   UNL     1      31.279  -7.373 -20.525  0.00  0.00    +0.031 C 
ENDBRANCH  17  18
ENDBRANCH   6  17
TORSDOF 2
ENDMDL
