MODEL 1
REMARK VINA RESULT:     -14.3      0.000      0.000
REMARK  Name = 446286
REMARK  4 active torsions:
REMARK  status: ('A' for Active; 'I' for Inactive)
REMARK    1  A    between atoms: C_9  and  C_17
REMARK    2  A    between atoms: C_11  and  C_22
REMARK    3  A    between atoms: C_25  and  O_28
REMARK    4  A    between atoms: C_27  and  O_30
REMARK                            x       y       z     vdW  Elec       q    Type
REMARK                         _______ _______ _______ _____ _____    ______ ____
ROOT
ATOM      1  O   UNL     1      36.562 -18.849 -20.134  0.00  0.00    -0.270 OA
ATOM      2  N   UNL     1      34.534 -20.057 -20.023  0.00  0.00    -0.255 N 
ATOM      3  C   UNL     1      32.119 -20.400 -19.561  0.00  0.00    +0.027 C 
ATOM      4  C   UNL     1      32.412 -21.611 -18.696  0.00  0.00    +0.029 C 
ATOM      5  C   UNL     1      33.200 -20.262 -20.619  0.00  0.00    +0.099 C 
ATOM      6  C   UNL     1      33.839 -21.606 -18.213  0.00  0.00    -0.008 C 
ATOM      7  C   UNL     1      34.850 -20.858 -18.859  0.00  0.00    +0.050 C 
ATOM      8  C   UNL     1      34.151 -22.408 -17.100  0.00  0.00    -0.002 C 
ATOM      9  C   UNL     1      35.451 -22.474 -16.613  0.00  0.00    +0.016 C 
ATOM     10  C   UNL     1      36.160 -20.960 -18.357  0.00  0.00    +0.015 C 
ATOM     11  C   UNL     1      35.433 -19.105 -20.547  0.00  0.00    +0.253 C 
ATOM     12  C   UNL     1      36.455 -21.753 -17.243  0.00  0.00    +0.003 C 
ENDROOT
BRANCH   9  17
ATOM     13  S   UNL     1      37.808 -24.468 -14.092  0.00  0.00    -0.051 S 
ATOM     14  O   UNL     1      36.570 -26.144 -12.546  0.00  0.00    -0.261 OA
ATOM     15  N   UNL     1      34.957 -24.278 -15.113  0.00  0.00    -0.182 NA
ATOM     16  N   UNL     1      35.214 -25.098 -14.068  0.00  0.00    -0.198 N 
ATOM     17  C   UNL     1      35.765 -23.304 -15.404  0.00  0.00    +0.086 C 
ATOM     18  C   UNL     1      36.975 -22.939 -14.567  0.00  0.00    +0.098 C 
ATOM     19  C   UNL     1      36.585 -22.117 -13.341  0.00  0.00    +0.019 C 
ATOM     20  C   UNL     1      36.427 -25.340 -13.463  0.00  0.00    +0.292 C 
ATOM     21  H   UNL     1      34.441 -25.580 -13.697  0.00  0.00    +0.178 HD
ENDBRANCH   9  17
BRANCH  11  22
ATOM     22  C   UNL     1      34.993 -18.306 -21.708  0.00  0.00    +0.057 C 
ATOM     23  C   UNL     1      34.974 -16.917 -21.622  0.00  0.00    +0.045 C 
ATOM     24  C   UNL     1      34.597 -18.947 -22.877  0.00  0.00    +0.008 C 
ATOM     25  C   UNL     1      34.557 -16.161 -22.718  0.00  0.00    +0.173 C 
ATOM     26  C   UNL     1      34.178 -18.192 -23.974  0.00  0.00    +0.040 C 
ATOM     27  C   UNL     1      34.158 -16.799 -23.893  0.00  0.00    +0.172 C 
BRANCH  25  28
ATOM     28  O   UNL     1      34.541 -14.803 -22.629  0.00  0.00    -0.468 OA
ATOM     29  C   UNL     1      33.897 -14.235 -21.490  0.00  0.00    +0.253 C 
ENDBRANCH  25  28
BRANCH  27  30
ATOM     30  O   UNL     1      33.749 -16.072 -24.971  0.00  0.00    -0.468 OA
ATOM     31  C   UNL     1      33.035 -14.867 -24.707  0.00  0.00    +0.253 C 
ENDBRANCH  27  30
ENDBRANCH  11  22
TORSDOF 4
ENDMDL
MODEL 2
REMARK VINA RESULT:     -14.0      0.697      1.659
REMARK  Name = 446286
REMARK  4 active torsions:
REMARK  status: ('A' for Active; 'I' for Inactive)
REMARK    1  A    between atoms: C_9  and  C_17
REMARK    2  A    between atoms: C_11  and  C_22
REMARK    3  A    between atoms: C_25  and  O_28
REMARK    4  A    between atoms: C_27  and  O_30
REMARK                            x       y       z     vdW  Elec       q    Type
REMARK                         _______ _______ _______ _____ _____    ______ ____
ROOT
ATOM      1  O   UNL     1      36.487 -18.729 -20.230  0.00  0.00    -0.270 OA
ATOM      2  N   UNL     1      34.466 -19.948 -20.109  0.00  0.00    -0.255 N 
ATOM      3  C   UNL     1      32.060 -20.311 -19.618  0.00  0.00    +0.027 C 
ATOM      4  C   UNL     1      32.371 -21.534 -18.778  0.00  0.00    +0.029 C 
ATOM      5  C   UNL     1      33.124 -20.150 -20.689  0.00  0.00    +0.099 C 
ATOM      6  C   UNL     1      33.805 -21.530 -18.315  0.00  0.00    -0.008 C 
ATOM      7  C   UNL     1      34.803 -20.767 -18.964  0.00  0.00    +0.050 C 
ATOM      8  C   UNL     1      34.137 -22.349 -17.220  0.00  0.00    -0.002 C 
ATOM      9  C   UNL     1      35.444 -22.417 -16.753  0.00  0.00    +0.016 C 
ATOM     10  C   UNL     1      36.120 -20.871 -18.483  0.00  0.00    +0.015 C 
ATOM     11  C   UNL     1      35.353 -18.984 -20.630  0.00  0.00    +0.253 C 
ATOM     12  C   UNL     1      36.435 -21.680 -17.387  0.00  0.00    +0.003 C 
ENDROOT
BRANCH   9  17
ATOM     13  S   UNL     1      37.856 -24.361 -14.246  0.00  0.00    -0.051 S 
ATOM     14  O   UNL     1      36.681 -26.144 -12.773  0.00  0.00    -0.261 OA
ATOM     15  N   UNL     1      35.019 -24.288 -15.317  0.00  0.00    -0.182 NA
ATOM     16  N   UNL     1      35.299 -25.125 -14.291  0.00  0.00    -0.198 N 
ATOM     17  C   UNL     1      35.779 -23.265 -15.564  0.00  0.00    +0.086 C 
ATOM     18  C   UNL     1      36.953 -22.863 -14.692  0.00  0.00    +0.098 C 
ATOM     19  C   UNL     1      36.499 -22.100 -13.452  0.00  0.00    +0.019 C 
ATOM     20  C   UNL     1      36.513 -25.321 -13.669  0.00  0.00    +0.292 C 
ATOM     21  H   UNL     1      34.546 -25.657 -13.949  0.00  0.00    +0.178 HD
ENDBRANCH   9  17
BRANCH  11  22
ATOM     22  C   UNL     1      34.892 -18.167 -21.771  0.00  0.00    +0.057 C 
ATOM     23  C   UNL     1      34.318 -18.788 -22.876  0.00  0.00    +0.045 C 
ATOM     24  C   UNL     1      35.037 -16.784 -21.734  0.00  0.00    +0.008 C 
ATOM     25  C   UNL     1      33.883 -18.018 -23.955  0.00  0.00    +0.173 C 
ATOM     26  C   UNL     1      34.604 -16.013 -22.813  0.00  0.00    +0.040 C 
ATOM     27  C   UNL     1      34.027 -16.630 -23.923  0.00  0.00    +0.172 C 
BRANCH  25  28
ATOM     28  O   UNL     1      33.322 -18.631 -25.034  0.00  0.00    -0.468 OA
ATOM     29  C   UNL     1      31.898 -18.624 -25.115  0.00  0.00    +0.253 C 
ENDBRANCH  25  28
BRANCH  27  30
ATOM     30  O   UNL     1      33.606 -15.867 -24.971  0.00  0.00    -0.468 OA
ATOM     31  C   UNL     1      33.175 -14.541 -24.674  0.00  0.00    +0.253 C 
ENDBRANCH  27  30
ENDBRANCH  11  22
TORSDOF 4
ENDMDL
MODEL 3
REMARK VINA RESULT:     -13.4      4.998      8.852
REMARK  Name = 446286
REMARK  4 active torsions:
REMARK  status: ('A' for Active; 'I' for Inactive)
REMARK    1  A    between atoms: C_9  and  C_17
REMARK    2  A    between atoms: C_11  and  C_22
REMARK    3  A    between atoms: C_25  and  O_28
REMARK    4  A    between atoms: C_27  and  O_30
REMARK                            x       y       z     vdW  Elec       q    Type
REMARK                         _______ _______ _______ _____ _____    ______ ____
ROOT
ATOM      1  O   UNL     1      32.174 -11.655 -20.530  0.00  0.00    -0.270 OA
ATOM      2  N   UNL     1      32.919 -12.320 -22.672  0.00  0.00    -0.255 N 
ATOM      3  C   UNL     1      32.682 -13.080 -25.024  0.00  0.00    +0.027 C 
ATOM      4  C   UNL     1      33.614 -14.251 -24.785  0.00  0.00    +0.029 C 
ATOM      5  C   UNL     1      33.054 -11.940 -24.092  0.00  0.00    +0.099 C 
ATOM      6  C   UNL     1      33.717 -14.580 -23.318  0.00  0.00    -0.008 C 
ATOM      7  C   UNL     1      33.384 -13.644 -22.312  0.00  0.00    +0.050 C 
ATOM      8  C   UNL     1      34.197 -15.855 -22.970  0.00  0.00    -0.002 C 
ATOM      9  C   UNL     1      34.343 -16.221 -21.637  0.00  0.00    +0.016 C 
ATOM     10  C   UNL     1      33.561 -14.033 -20.973  0.00  0.00    +0.015 C 
ATOM     11  C   UNL     1      32.338 -11.446 -21.731  0.00  0.00    +0.253 C 
ATOM     12  C   UNL     1      34.028 -15.308 -20.639  0.00  0.00    +0.003 C 
ENDROOT
BRANCH   9  17
ATOM     13  S   UNL     1      33.954 -19.993 -20.409  0.00  0.00    -0.051 S 
ATOM     14  O   UNL     1      36.157 -21.107 -19.615  0.00  0.00    -0.261 OA
ATOM     15  N   UNL     1      35.926 -17.695 -20.603  0.00  0.00    -0.182 NA
ATOM     16  N   UNL     1      36.382 -18.903 -20.201  0.00  0.00    -0.198 N 
ATOM     17  C   UNL     1      34.821 -17.595 -21.278  0.00  0.00    +0.086 C 
ATOM     18  C   UNL     1      34.018 -18.791 -21.754  0.00  0.00    +0.098 C 
ATOM     19  C   UNL     1      34.617 -19.404 -23.017  0.00  0.00    +0.019 C 
ATOM     20  C   UNL     1      35.661 -20.065 -20.034  0.00  0.00    +0.292 C 
ATOM     21  H   UNL     1      37.344 -18.958 -20.003  0.00  0.00    +0.178 HD
ENDBRANCH   9  17
BRANCH  11  22
ATOM     22  C   UNL     1      31.853 -10.137 -22.212  0.00  0.00    +0.057 C 
ATOM     23  C   UNL     1      32.752  -9.227 -22.759  0.00  0.00    +0.045 C 
ATOM     24  C   UNL     1      30.501  -9.822 -22.113  0.00  0.00    +0.008 C 
ATOM     25  C   UNL     1      32.295  -7.989 -23.213  0.00  0.00    +0.173 C 
ATOM     26  C   UNL     1      30.043  -8.584 -22.566  0.00  0.00    +0.040 C 
ATOM     27  C   UNL     1      30.941  -7.669 -23.116  0.00  0.00    +0.172 C 
BRANCH  25  28
ATOM     28  O   UNL     1      33.179  -7.103 -23.748  0.00  0.00    -0.468 OA
ATOM     29  C   UNL     1      33.943  -6.317 -22.835  0.00  0.00    +0.253 C 
ENDBRANCH  25  28
BRANCH  27  30
ATOM     30  O   UNL     1      30.481  -6.463 -23.556  0.00  0.00    -0.468 OA
ATOM     31  C   UNL     1      30.287  -5.446 -22.576  0.00  0.00    +0.253 C 
ENDBRANCH  27  30
ENDBRANCH  11  22
TORSDOF 4
ENDMDL
MODEL 4
REMARK VINA RESULT:     -12.5      2.950     10.038
REMARK  Name = 446286
REMARK  4 active torsions:
REMARK  status: ('A' for Active; 'I' for Inactive)
REMARK    1  A    between atoms: C_9  and  C_17
REMARK    2  A    between atoms: C_11  and  C_22
REMARK    3  A    between atoms: C_25  and  O_28
REMARK    4  A    between atoms: C_27  and  O_30
REMARK                            x       y       z     vdW  Elec       q    Type
REMARK                         _______ _______ _______ _____ _____    ______ ____
ROOT
ATOM      1  O   UNL     1      37.432 -21.973 -16.307  0.00  0.00    -0.270 OA
ATOM      2  N   UNL     1      35.093 -22.093 -16.618  0.00  0.00    -0.255 N 
ATOM      3  C   UNL     1      32.930 -23.172 -17.186  0.00  0.00    +0.027 C 
ATOM      4  C   UNL     1      32.594 -22.075 -18.178  0.00  0.00    +0.029 C 
ATOM      5  C   UNL     1      33.814 -22.607 -16.089  0.00  0.00    +0.099 C 
ATOM      6  C   UNL     1      33.831 -21.335 -18.616  0.00  0.00    -0.008 C 
ATOM      7  C   UNL     1      35.024 -21.348 -17.857  0.00  0.00    +0.050 C 
ATOM      8  C   UNL     1      33.754 -20.587 -19.805  0.00  0.00    -0.002 C 
ATOM      9  C   UNL     1      34.847 -19.858 -20.259  0.00  0.00    +0.016 C 
ATOM     10  C   UNL     1      36.107 -20.585 -18.329  0.00  0.00    +0.015 C 
ATOM     11  C   UNL     1      36.314 -22.347 -15.960  0.00  0.00    +0.253 C 
ATOM     12  C   UNL     1      36.021 -19.855 -19.519  0.00  0.00    +0.003 C 
ENDROOT
BRANCH   9  17
ATOM     13  S   UNL     1      34.546 -16.597 -22.531  0.00  0.00    -0.051 S 
ATOM     14  O   UNL     1      33.821 -17.046 -24.981  0.00  0.00    -0.261 OA
ATOM     15  N   UNL     1      34.030 -19.587 -22.496  0.00  0.00    -0.182 NA
ATOM     16  N   UNL     1      33.871 -18.919 -23.662  0.00  0.00    -0.198 N 
ATOM     17  C   UNL     1      34.765 -19.094 -21.546  0.00  0.00    +0.086 C 
ATOM     18  C   UNL     1      35.572 -17.818 -21.686  0.00  0.00    +0.098 C 
ATOM     19  C   UNL     1      36.879 -18.057 -22.436  0.00  0.00    +0.019 C 
ATOM     20  C   UNL     1      34.039 -17.572 -23.893  0.00  0.00    +0.292 C 
ATOM     21  H   UNL     1      33.602 -19.462 -24.438  0.00  0.00    +0.178 HD
ENDBRANCH   9  17
BRANCH  11  22
ATOM     22  C   UNL     1      36.277 -23.159 -14.727  0.00  0.00    +0.057 C 
ATOM     23  C   UNL     1      37.189 -24.196 -14.556  0.00  0.00    +0.045 C 
ATOM     24  C   UNL     1      35.331 -22.883 -13.746  0.00  0.00    +0.008 C 
ATOM     25  C   UNL     1      37.154 -24.965 -13.392  0.00  0.00    +0.173 C 
ATOM     26  C   UNL     1      35.295 -23.651 -12.581  0.00  0.00    +0.040 C 
ATOM     27  C   UNL     1      36.207 -24.692 -12.406  0.00  0.00    +0.172 C 
BRANCH  25  28
ATOM     28  O   UNL     1      38.049 -25.978 -13.231  0.00  0.00    -0.468 OA
ATOM     29  C   UNL     1      39.348 -25.792 -13.790  0.00  0.00    +0.253 C 
ENDBRANCH  25  28
BRANCH  27  30
ATOM     30  O   UNL     1      36.163 -25.434 -11.264  0.00  0.00    -0.468 OA
ATOM     31  C   UNL     1      35.436 -24.891 -10.165  0.00  0.00    +0.253 C 
ENDBRANCH  27  30
ENDBRANCH  11  22
TORSDOF 4
ENDMDL
MODEL 5
REMARK VINA RESULT:     -11.8      7.564     12.786
REMARK  Name = 446286
REMARK  4 active torsions:
REMARK  status: ('A' for Active; 'I' for Inactive)
REMARK    1  A    between atoms: C_9  and  C_17
REMARK    2  A    between atoms: C_11  and  C_22
REMARK    3  A    between atoms: C_25  and  O_28
REMARK    4  A    between atoms: C_27  and  O_30
REMARK                            x       y       z     vdW  Elec       q    Type
REMARK                         _______ _______ _______ _____ _____    ______ ____
ROOT
ATOM      1  O   UNL     1      33.276 -13.372 -24.789  0.00  0.00    -0.270 OA
ATOM      2  N   UNL     1      32.950 -13.152 -22.459  0.00  0.00    -0.255 N 
ATOM      3  C   UNL     1      31.777 -13.455 -20.292  0.00  0.00    +0.027 C 
ATOM      4  C   UNL     1      31.813 -11.965 -20.015  0.00  0.00    +0.029 C 
ATOM      5  C   UNL     1      32.969 -13.837 -21.152  0.00  0.00    +0.099 C 
ATOM      6  C   UNL     1      32.016 -11.176 -21.282  0.00  0.00    -0.008 C 
ATOM      7  C   UNL     1      32.566 -11.756 -22.449  0.00  0.00    +0.050 C 
ATOM      8  C   UNL     1      31.669  -9.813 -21.263  0.00  0.00    -0.002 C 
ATOM      9  C   UNL     1      31.852  -9.016 -22.387  0.00  0.00    +0.016 C 
ATOM     10  C   UNL     1      32.758 -10.921 -23.564  0.00  0.00    +0.015 C 
ATOM     11  C   UNL     1      33.261 -13.837 -23.651  0.00  0.00    +0.253 C 
ATOM     12  C   UNL     1      32.400  -9.570 -23.536  0.00  0.00    +0.003 C 
ENDROOT
BRANCH   9  17
ATOM     13  S   UNL     1      31.245  -5.441 -20.732  0.00  0.00    -0.051 S 
ATOM     14  O   UNL     1      29.688  -3.870 -22.087  0.00  0.00    -0.261 OA
ATOM     15  N   UNL     1      30.376  -7.236 -23.019  0.00  0.00    -0.182 NA
ATOM     16  N   UNL     1      29.926  -5.961 -22.994  0.00  0.00    -0.198 N 
ATOM     17  C   UNL     1      31.446  -7.573 -22.365  0.00  0.00    +0.086 C 
ATOM     18  C   UNL     1      32.323  -6.583 -21.622  0.00  0.00    +0.098 C 
ATOM     19  C   UNL     1      33.257  -5.837 -22.570  0.00  0.00    +0.019 C 
ATOM     20  C   UNL     1      30.185  -4.992 -22.050  0.00  0.00    +0.292 C 
ATOM     21  H   UNL     1      29.342  -5.693 -23.740  0.00  0.00    +0.178 HD
ENDBRANCH   9  17
BRANCH  11  22
ATOM     22  C   UNL     1      33.594 -15.273 -23.555  0.00  0.00    +0.057 C 
ATOM     23  C   UNL     1      34.379 -15.730 -22.501  0.00  0.00    +0.045 C 
ATOM     24  C   UNL     1      33.122 -16.158 -24.520  0.00  0.00    +0.008 C 
ATOM     25  C   UNL     1      34.696 -17.085 -22.411  0.00  0.00    +0.173 C 
ATOM     26  C   UNL     1      33.438 -17.514 -24.430  0.00  0.00    +0.040 C 
ATOM     27  C   UNL     1      34.225 -17.976 -23.376  0.00  0.00    +0.172 C 
BRANCH  25  28
ATOM     28  O   UNL     1      35.465 -17.527 -21.377  0.00  0.00    -0.468 OA
ATOM     29  C   UNL     1      36.728 -18.099 -21.707  0.00  0.00    +0.253 C 
ENDBRANCH  25  28
BRANCH  27  30
ATOM     30  O   UNL     1      34.527 -19.303 -23.298  0.00  0.00    -0.468 OA
ATOM     31  C   UNL     1      34.507 -20.045 -24.515  0.00  0.00    +0.253 C 
ENDBRANCH  27  30
ENDBRANCH  11  22
TORSDOF 4
ENDMDL
MODEL 6
REMARK VINA RESULT:     -11.8      7.421     13.142
REMARK  Name = 446286
REMARK  4 active torsions:
REMARK  status: ('A' for Active; 'I' for Inactive)
REMARK    1  A    between atoms: C_9  and  C_17
REMARK    2  A    between atoms: C_11  and  C_22
REMARK    3  A    between atoms: C_25  and  O_28
REMARK    4  A    between atoms: C_27  and  O_30
REMARK                            x       y       z     vdW  Elec       q    Type
REMARK                         _______ _______ _______ _____ _____    ______ ____
ROOT
ATOM      1  O   UNL     1      33.552 -12.954 -24.579  0.00  0.00    -0.270 OA
ATOM      2  N   UNL     1      32.964 -12.716 -22.303  0.00  0.00    -0.255 N 
ATOM      3  C   UNL     1      31.556 -13.010 -20.279  0.00  0.00    +0.027 C 
ATOM      4  C   UNL     1      31.551 -11.517 -20.013  0.00  0.00    +0.029 C 
ATOM      5  C   UNL     1      32.840 -13.390 -20.996  0.00  0.00    +0.099 C 
ATOM      6  C   UNL     1      31.890 -10.738 -21.257  0.00  0.00    -0.008 C 
ATOM      7  C   UNL     1      32.572 -11.323 -22.349  0.00  0.00    +0.050 C 
ATOM      8  C   UNL     1      31.535  -9.377 -21.289  0.00  0.00    -0.002 C 
ATOM      9  C   UNL     1      31.838  -8.588 -22.392  0.00  0.00    +0.016 C 
ATOM     10  C   UNL     1      32.883 -10.497 -23.443  0.00  0.00    +0.015 C 
ATOM     11  C   UNL     1      33.411 -13.409 -23.446  0.00  0.00    +0.253 C 
ATOM     12  C   UNL     1      32.515  -9.148 -23.467  0.00  0.00    +0.003 C 
ENDROOT
BRANCH   9  17
ATOM     13  S   UNL     1      31.396  -4.900 -20.948  0.00  0.00    -0.051 S 
ATOM     14  O   UNL     1      29.673  -3.437 -22.220  0.00  0.00    -0.261 OA
ATOM     15  N   UNL     1      30.279  -6.862 -22.975  0.00  0.00    -0.182 NA
ATOM     16  N   UNL     1      29.823  -5.589 -22.991  0.00  0.00    -0.198 N 
ATOM     17  C   UNL     1      31.423  -7.148 -22.430  0.00  0.00    +0.086 C 
ATOM     18  C   UNL     1      32.372  -6.104 -21.873  0.00  0.00    +0.098 C 
ATOM     19  C   UNL     1      33.179  -5.431 -22.979  0.00  0.00    +0.019 C 
ATOM     20  C   UNL     1      30.183  -4.552 -22.159  0.00  0.00    +0.292 C 
ATOM     21  H   UNL     1      29.152  -5.380 -23.680  0.00  0.00    +0.178 HD
ENDBRANCH   9  17
BRANCH  11  22
ATOM     22  C   UNL     1      33.740 -14.841 -23.300  0.00  0.00    +0.057 C 
ATOM     23  C   UNL     1      33.352 -15.743 -24.287  0.00  0.00    +0.045 C 
ATOM     24  C   UNL     1      34.434 -15.280 -22.176  0.00  0.00    +0.008 C 
ATOM     25  C   UNL     1      33.662 -17.096 -24.148  0.00  0.00    +0.173 C 
ATOM     26  C   UNL     1      34.743 -16.633 -22.037  0.00  0.00    +0.040 C 
ATOM     27  C   UNL     1      34.357 -17.540 -23.023  0.00  0.00    +0.172 C 
BRANCH  25  28
ATOM     28  O   UNL     1      33.280 -17.974 -25.117  0.00  0.00    -0.468 OA
ATOM     29  C   UNL     1      31.919 -18.400 -25.106  0.00  0.00    +0.253 C 
ENDBRANCH  25  28
BRANCH  27  30
ATOM     30  O   UNL     1      34.666 -18.860 -22.877  0.00  0.00    -0.468 OA
ATOM     31  C   UNL     1      34.557 -19.410 -21.566  0.00  0.00    +0.253 C 
ENDBRANCH  27  30
ENDBRANCH  11  22
TORSDOF 4
ENDMDL
