MODEL 1
REMARK VINA RESULT:     -13.7      0.000      0.000
REMARK  Name = 22479942
REMARK  4 active torsions:
REMARK  status: ('A' for Active; 'I' for Inactive)
REMARK    1  A    between atoms: C_4  and  C_17
REMARK    2  A    between atoms: C_7  and  C_14
REMARK    3  A    between atoms: C_20  and  N_24
REMARK    4  A    between atoms: C_25  and  C_28
REMARK                            x       y       z     vdW  Elec       q    Type
REMARK                         _______ _______ _______ _____ _____    ______ ____
ROOT
ATOM      1  N   UNL     1      31.791 -21.402 -19.281  0.00  0.00    -0.276 N 
ATOM      2  N   UNL     1      32.337 -20.529 -20.145  0.00  0.00    -0.173 NA
ATOM      3  C   UNL     1      33.869 -21.237 -18.600  0.00  0.00    +0.036 A 
ATOM      4  C   UNL     1      33.601 -20.432 -19.728  0.00  0.00    +0.102 A 
ATOM      5  C   UNL     1      32.659 -21.864 -18.328  0.00  0.00    +0.075 A 
ATOM      6  C   UNL     1      34.982 -21.506 -17.786  0.00  0.00    +0.006 C 
ATOM      7  C   UNL     1      34.830 -22.404 -16.721  0.00  0.00    +0.033 C 
ATOM      8  C   UNL     1      32.486 -22.761 -17.272  0.00  0.00    +0.019 C 
ATOM      9  C   UNL     1      33.602 -23.019 -16.471  0.00  0.00    +0.004 C 
ATOM     10  H   UNL     1      30.850 -21.684 -19.329  0.00  0.00    +0.189 HD
ENDROOT
BRANCH   7  14
ATOM     11  N   UNL     1      37.237 -22.353 -16.192  0.00  0.00    -0.218 N 
ATOM     12  N   UNL     1      35.945 -23.305 -14.709  0.00  0.00    -0.206 NA
ATOM     13  N   UNL     1      38.097 -22.736 -15.237  0.00  0.00    -0.157 NA
ATOM     14  C   UNL     1      35.960 -22.694 -15.872  0.00  0.00    +0.149 C 
ATOM     15  C   UNL     1      37.265 -23.307 -14.362  0.00  0.00    +0.218 C 
ATOM     16  H   UNL     1      37.497 -21.884 -17.019  0.00  0.00    +0.176 HD
ENDBRANCH   7  14
BRANCH   4  17
ATOM     17  C   UNL     1      34.526 -19.571 -20.421  0.00  0.00    +0.021 C 
ATOM     18  C   UNL     1      34.066 -18.410 -21.043  0.00  0.00    +0.016 C 
ATOM     19  C   UNL     1      35.880 -19.898 -20.468  0.00  0.00    +0.002 C 
ATOM     20  C   UNL     1      34.961 -17.576 -21.712  0.00  0.00    +0.051 C 
ATOM     21  C   UNL     1      36.776 -19.064 -21.139  0.00  0.00    +0.001 C 
ATOM     22  C   UNL     1      36.317 -17.903 -21.760  0.00  0.00    +0.015 C 
BRANCH  20  24
ATOM     23  O   UNL     1      34.243 -14.950 -20.541  0.00  0.00    -0.266 OA
ATOM     24  N   UNL     1      34.503 -16.414 -22.334  0.00  0.00    -0.278 N 
ATOM     25  C   UNL     1      34.169 -15.177 -21.746  0.00  0.00    +0.284 C 
ATOM     26  H   UNL     1      34.400 -16.465 -23.312  0.00  0.00    +0.155 HD
BRANCH  25  28
ATOM     27  O   UNL     1      33.180 -14.571 -23.877  0.00  0.00    -0.446 OA
ATOM     28  C   UNL     1      33.673 -14.154 -22.681  0.00  0.00    +0.199 C 
ATOM     29  C   UNL     1      33.605 -12.784 -22.582  0.00  0.00    +0.045 C 
ATOM     30  C   UNL     1      33.033 -12.329 -23.795  0.00  0.00    +0.044 C 
ATOM     31  C   UNL     1      32.792 -13.455 -24.548  0.00  0.00    +0.180 C 
ENDBRANCH  25  28
ENDBRANCH  20  24
ENDBRANCH   4  17
TORSDOF 4
ENDMDL
MODEL 2
REMARK VINA RESULT:     -13.2      2.543      3.668
REMARK  Name = 22479942
REMARK  4 active torsions:
REMARK  status: ('A' for Active; 'I' for Inactive)
REMARK    1  A    between atoms: C_4  and  C_17
REMARK    2  A    between atoms: C_7  and  C_14
REMARK    3  A    between atoms: C_20  and  N_24
REMARK    4  A    between atoms: C_25  and  C_28
REMARK                            x       y       z     vdW  Elec       q    Type
REMARK                         _______ _______ _______ _____ _____    ______ ____
ROOT
ATOM      1  N   UNL     1      30.546 -22.635 -16.742  0.00  0.00    -0.276 N 
ATOM      2  N   UNL     1      31.305 -22.081 -17.703  0.00  0.00    -0.173 NA
ATOM      3  C   UNL     1      32.577 -22.747 -15.922  0.00  0.00    +0.036 A 
ATOM      4  C   UNL     1      32.539 -22.151 -17.201  0.00  0.00    +0.102 A 
ATOM      5  C   UNL     1      31.251 -23.055 -15.646  0.00  0.00    +0.075 A 
ATOM      6  C   UNL     1      33.568 -23.058 -14.976  0.00  0.00    +0.006 C 
ATOM      7  C   UNL     1      33.180 -23.674 -13.779  0.00  0.00    +0.033 C 
ATOM      8  C   UNL     1      30.842 -23.668 -14.459  0.00  0.00    +0.019 C 
ATOM      9  C   UNL     1      31.839 -23.972 -13.527  0.00  0.00    +0.004 C 
ATOM     10  H   UNL     1      29.570 -22.731 -16.820  0.00  0.00    +0.189 HD
ENDROOT
BRANCH   7  14
ATOM     11  N   UNL     1      35.221 -24.842 -13.041  0.00  0.00    -0.218 N 
ATOM     12  N   UNL     1      34.250 -23.567 -11.555  0.00  0.00    -0.206 NA
ATOM     13  N   UNL     1      36.005 -24.979 -11.961  0.00  0.00    -0.157 NA
ATOM     14  C   UNL     1      34.181 -24.001 -12.793  0.00  0.00    +0.149 C 
ATOM     15  C   UNL     1      35.374 -24.187 -11.089  0.00  0.00    +0.218 C 
ATOM     16  H   UNL     1      35.379 -25.291 -13.903  0.00  0.00    +0.176 HD
ENDBRANCH   7  14
BRANCH   4  17
ATOM     17  C   UNL     1      33.657 -21.647 -17.959  0.00  0.00    +0.021 C 
ATOM     18  C   UNL     1      33.435 -20.892 -19.110  0.00  0.00    +0.016 C 
ATOM     19  C   UNL     1      34.959 -21.914 -17.540  0.00  0.00    +0.002 C 
ATOM     20  C   UNL     1      34.517 -20.404 -19.843  0.00  0.00    +0.051 C 
ATOM     21  C   UNL     1      36.042 -21.427 -18.273  0.00  0.00    +0.001 C 
ATOM     22  C   UNL     1      35.821 -20.671 -19.424  0.00  0.00    +0.015 C 
BRANCH  20  24
ATOM     23  O   UNL     1      35.576 -17.741 -20.598  0.00  0.00    -0.266 OA
ATOM     24  N   UNL     1      34.297 -19.647 -20.995  0.00  0.00    -0.278 N 
ATOM     25  C   UNL     1      34.817 -18.380 -21.324  0.00  0.00    +0.284 C 
ATOM     26  H   UNL     1      33.700 -20.053 -21.664  0.00  0.00    +0.155 HD
BRANCH  25  28
ATOM     27  O   UNL     1      33.714 -18.667 -23.466  0.00  0.00    -0.446 OA
ATOM     28  C   UNL     1      34.355 -17.829 -22.609  0.00  0.00    +0.199 C 
ATOM     29  C   UNL     1      34.447 -16.566 -23.147  0.00  0.00    +0.045 C 
ATOM     30  C   UNL     1      33.822 -16.632 -24.415  0.00  0.00    +0.044 C 
ATOM     31  C   UNL     1      33.392 -17.931 -24.562  0.00  0.00    +0.180 C 
ENDBRANCH  25  28
ENDBRANCH  20  24
ENDBRANCH   4  17
TORSDOF 4
ENDMDL
MODEL 3
REMARK VINA RESULT:     -11.0      4.867     11.920
REMARK  Name = 22479942
REMARK  4 active torsions:
REMARK  status: ('A' for Active; 'I' for Inactive)
REMARK    1  A    between atoms: C_4  and  C_17
REMARK    2  A    between atoms: C_7  and  C_14
REMARK    3  A    between atoms: C_20  and  N_24
REMARK    4  A    between atoms: C_25  and  C_28
REMARK                            x       y       z     vdW  Elec       q    Type
REMARK                         _______ _______ _______ _____ _____    ______ ____
ROOT
ATOM      1  N   UNL     1      31.192 -10.738 -20.231  0.00  0.00    -0.276 N 
ATOM      2  N   UNL     1      31.557 -11.908 -20.782  0.00  0.00    -0.173 NA
ATOM      3  C   UNL     1      31.874 -10.169 -22.236  0.00  0.00    +0.036 A 
ATOM      4  C   UNL     1      31.972 -11.558 -22.001  0.00  0.00    +0.102 A 
ATOM      5  C   UNL     1      31.357  -9.655 -21.053  0.00  0.00    +0.075 A 
ATOM      6  C   UNL     1      32.159  -9.297 -23.300  0.00  0.00    +0.006 C 
ATOM      7  C   UNL     1      31.910  -7.929 -23.126  0.00  0.00    +0.033 C 
ATOM      8  C   UNL     1      31.101  -8.296 -20.859  0.00  0.00    +0.019 C 
ATOM      9  C   UNL     1      31.390  -7.440 -21.926  0.00  0.00    +0.004 C 
ATOM     10  H   UNL     1      30.837 -10.666 -19.316  0.00  0.00    +0.189 HD
ENDROOT
BRANCH   7  14
ATOM     11  N   UNL     1      31.250  -6.590 -25.088  0.00  0.00    -0.218 N 
ATOM     12  N   UNL     1      33.352  -6.469 -24.503  0.00  0.00    -0.206 NA
ATOM     13  N   UNL     1      31.772  -5.748 -25.992  0.00  0.00    -0.157 NA
ATOM     14  C   UNL     1      32.195  -7.014 -24.206  0.00  0.00    +0.149 C 
ATOM     15  C   UNL     1      33.046  -5.708 -25.594  0.00  0.00    +0.218 C 
ATOM     16  H   UNL     1      30.305  -6.865 -25.066  0.00  0.00    +0.176 HD
ENDBRANCH   7  14
BRANCH   4  17
ATOM     17  C   UNL     1      32.455 -12.561 -22.916  0.00  0.00    +0.021 C 
ATOM     18  C   UNL     1      33.070 -13.714 -22.425  0.00  0.00    +0.016 C 
ATOM     19  C   UNL     1      32.308 -12.381 -24.290  0.00  0.00    +0.002 C 
ATOM     20  C   UNL     1      33.537 -14.685 -23.310  0.00  0.00    +0.051 C 
ATOM     21  C   UNL     1      32.776 -13.352 -25.176  0.00  0.00    +0.001 C 
ATOM     22  C   UNL     1      33.390 -14.504 -24.686  0.00  0.00    +0.015 C 
BRANCH  20  24
ATOM     23  O   UNL     1      34.248 -15.428 -20.530  0.00  0.00    -0.266 OA
ATOM     24  N   UNL     1      34.151 -15.839 -22.821  0.00  0.00    -0.278 N 
ATOM     25  C   UNL     1      34.476 -16.162 -21.488  0.00  0.00    +0.284 C 
ATOM     26  H   UNL     1      34.387 -16.516 -23.496  0.00  0.00    +0.155 HD
BRANCH  25  28
ATOM     27  O   UNL     1      34.522 -18.419 -20.598  0.00  0.00    -0.446 OA
ATOM     28  C   UNL     1      35.162 -17.453 -21.308  0.00  0.00    +0.199 C 
ATOM     29  C   UNL     1      36.389 -17.902 -21.737  0.00  0.00    +0.045 C 
ATOM     30  C   UNL     1      36.511 -19.229 -21.261  0.00  0.00    +0.044 C 
ATOM     31  C   UNL     1      35.348 -19.497 -20.575  0.00  0.00    +0.180 C 
ENDBRANCH  25  28
ENDBRANCH  20  24
ENDBRANCH   4  17
TORSDOF 4
ENDMDL
MODEL 4
REMARK VINA RESULT:     -11.0      4.752      8.584
REMARK  Name = 22479942
REMARK  4 active torsions:
REMARK  status: ('A' for Active; 'I' for Inactive)
REMARK    1  A    between atoms: C_4  and  C_17
REMARK    2  A    between atoms: C_7  and  C_14
REMARK    3  A    between atoms: C_20  and  N_24
REMARK    4  A    between atoms: C_25  and  C_28
REMARK                            x       y       z     vdW  Elec       q    Type
REMARK                         _______ _______ _______ _____ _____    ______ ____
ROOT
ATOM      1  N   UNL     1      32.614 -13.630 -25.432  0.00  0.00    -0.276 N 
ATOM      2  N   UNL     1      32.156 -12.654 -24.630  0.00  0.00    -0.173 NA
ATOM      3  C   UNL     1      33.229 -14.278 -23.429  0.00  0.00    +0.036 A 
ATOM      4  C   UNL     1      32.532 -13.051 -23.414  0.00  0.00    +0.102 A 
ATOM      5  C   UNL     1      33.268 -14.636 -24.772  0.00  0.00    +0.075 A 
ATOM      6  C   UNL     1      33.825 -15.120 -22.475  0.00  0.00    +0.006 C 
ATOM      7  C   UNL     1      34.443 -16.298 -22.915  0.00  0.00    +0.033 C 
ATOM      8  C   UNL     1      33.877 -15.805 -25.232  0.00  0.00    +0.019 C 
ATOM      9  C   UNL     1      34.467 -16.632 -24.271  0.00  0.00    +0.004 C 
ATOM     10  H   UNL     1      32.491 -13.622 -26.408  0.00  0.00    +0.189 HD
ENDROOT
BRANCH   7  14
ATOM     11  N   UNL     1      36.359 -17.574 -22.035  0.00  0.00    -0.218 N 
ATOM     12  N   UNL     1      34.501 -17.715 -20.893  0.00  0.00    -0.206 NA
ATOM     13  N   UNL     1      36.684 -18.389 -21.020  0.00  0.00    -0.157 NA
ATOM     14  C   UNL     1      35.061 -17.178 -21.953  0.00  0.00    +0.149 C 
ATOM     15  C   UNL     1      35.526 -18.442 -20.358  0.00  0.00    +0.218 C 
ATOM     16  H   UNL     1      36.981 -17.299 -22.748  0.00  0.00    +0.176 HD
ENDBRANCH   7  14
BRANCH   4  17
ATOM     17  C   UNL     1      32.217 -12.246 -22.260  0.00  0.00    +0.021 C 
ATOM     18  C   UNL     1      31.918 -10.892 -22.416  0.00  0.00    +0.016 C 
ATOM     19  C   UNL     1      32.210 -12.820 -20.990  0.00  0.00    +0.002 C 
ATOM     20  C   UNL     1      31.614 -10.113 -21.301  0.00  0.00    +0.051 C 
ATOM     21  C   UNL     1      31.905 -12.040 -19.874  0.00  0.00    +0.001 C 
ATOM     22  C   UNL     1      31.607 -10.687 -20.029  0.00  0.00    +0.015 C 
BRANCH  20  24
ATOM     23  O   UNL     1      32.251  -7.812 -19.544  0.00  0.00    -0.266 OA
ATOM     24  N   UNL     1      31.314  -8.758 -21.455  0.00  0.00    -0.278 N 
ATOM     25  C   UNL     1      31.633  -7.686 -20.598  0.00  0.00    +0.284 C 
ATOM     26  H   UNL     1      30.815  -8.522 -22.270  0.00  0.00    +0.155 HD
BRANCH  25  28
ATOM     27  O   UNL     1      30.424  -6.308 -22.188  0.00  0.00    -0.446 OA
ATOM     28  C   UNL     1      31.133  -6.370 -21.030  0.00  0.00    +0.199 C 
ATOM     29  C   UNL     1      31.244  -5.121 -20.466  0.00  0.00    +0.045 C 
ATOM     30  C   UNL     1      30.561  -4.235 -21.332  0.00  0.00    +0.044 C 
ATOM     31  C   UNL     1      30.079  -5.006 -22.364  0.00  0.00    +0.180 C 
ENDBRANCH  25  28
ENDBRANCH  20  24
ENDBRANCH   4  17
TORSDOF 4
ENDMDL
MODEL 5
REMARK VINA RESULT:     -10.7      1.903      3.102
REMARK  Name = 22479942
REMARK  4 active torsions:
REMARK  status: ('A' for Active; 'I' for Inactive)
REMARK    1  A    between atoms: C_4  and  C_17
REMARK    2  A    between atoms: C_7  and  C_14
REMARK    3  A    between atoms: C_20  and  N_24
REMARK    4  A    between atoms: C_25  and  C_28
REMARK                            x       y       z     vdW  Elec       q    Type
REMARK                         _______ _______ _______ _____ _____    ______ ____
ROOT
ATOM      1  N   UNL     1      30.783 -22.496 -16.259  0.00  0.00    -0.276 N 
ATOM      2  N   UNL     1      31.173 -22.077 -17.475  0.00  0.00    -0.173 NA
ATOM      3  C   UNL     1      32.973 -22.565 -16.149  0.00  0.00    +0.036 A 
ATOM      4  C   UNL     1      32.505 -22.121 -17.404  0.00  0.00    +0.102 A 
ATOM      5  C   UNL     1      31.816 -22.804 -15.415  0.00  0.00    +0.075 A 
ATOM      6  C   UNL     1      34.225 -22.790 -15.553  0.00  0.00    +0.006 C 
ATOM      7  C   UNL     1      34.263 -23.252 -14.231  0.00  0.00    +0.033 C 
ATOM      8  C   UNL     1      31.832 -23.264 -14.096  0.00  0.00    +0.019 C 
ATOM      9  C   UNL     1      33.086 -23.484 -13.517  0.00  0.00    +0.004 C 
ATOM     10  H   UNL     1      29.838 -22.575 -15.998  0.00  0.00    +0.189 HD
ENDROOT
BRANCH   7  14
ATOM     11  N   UNL     1      36.452 -24.374 -14.079  0.00  0.00    -0.218 N 
ATOM     12  N   UNL     1      36.005 -22.919 -12.511  0.00  0.00    -0.206 NA
ATOM     13  N   UNL     1      37.551 -24.406 -13.309  0.00  0.00    -0.157 NA
ATOM     14  C   UNL     1      35.539 -23.488 -13.599  0.00  0.00    +0.149 C 
ATOM     15  C   UNL     1      37.230 -23.508 -12.375  0.00  0.00    +0.218 C 
ATOM     16  H   UNL     1      36.325 -24.921 -14.888  0.00  0.00    +0.176 HD
ENDBRANCH   7  14
BRANCH   4  17
ATOM     17  C   UNL     1      33.302 -21.737 -18.542  0.00  0.00    +0.021 C 
ATOM     18  C   UNL     1      33.220 -20.438 -19.044  0.00  0.00    +0.016 C 
ATOM     19  C   UNL     1      34.155 -22.664 -19.139  0.00  0.00    +0.002 C 
ATOM     20  C   UNL     1      33.992 -20.067 -20.145  0.00  0.00    +0.051 C 
ATOM     21  C   UNL     1      34.926 -22.292 -20.241  0.00  0.00    +0.001 C 
ATOM     22  C   UNL     1      34.845 -20.994 -20.744  0.00  0.00    +0.015 C 
BRANCH  20  24
ATOM     23  O   UNL     1      36.145 -18.104 -20.689  0.00  0.00    -0.266 OA
ATOM     24  N   UNL     1      33.912 -18.768 -20.649  0.00  0.00    -0.278 N 
ATOM     25  C   UNL     1      34.959 -17.857 -20.896  0.00  0.00    +0.284 C 
ATOM     26  H   UNL     1      33.005 -18.446 -20.859  0.00  0.00    +0.155 HD
BRANCH  25  28
ATOM     27  O   UNL     1      34.325 -15.552 -20.484  0.00  0.00    -0.446 OA
ATOM     28  C   UNL     1      34.535 -16.538 -21.395  0.00  0.00    +0.199 C 
ATOM     29  C   UNL     1      34.295 -16.078 -22.669  0.00  0.00    +0.045 C 
ATOM     30  C   UNL     1      33.914 -14.721 -22.532  0.00  0.00    +0.044 C 
ATOM     31  C   UNL     1      33.949 -14.449 -21.184  0.00  0.00    +0.180 C 
ENDBRANCH  25  28
ENDBRANCH  20  24
ENDBRANCH   4  17
TORSDOF 4
ENDMDL
