MODEL 1
REMARK VINA RESULT:     -13.1      0.000      0.000
REMARK  Name = 54713659
REMARK  4 active torsions:
REMARK  status: ('A' for Active; 'I' for Inactive)
REMARK    1  A    between atoms: C_14  and  O_30
REMARK    2  A    between atoms: C_15  and  C_19
REMARK    3  A    between atoms: N_18  and  C_21
REMARK    4  A    between atoms: C_21  and  C_24
REMARK                            x       y       z     vdW  Elec       q    Type
REMARK                         _______ _______ _______ _____ _____    ______ ____
ROOT
ATOM      1  O   UNL     1      31.941 -11.849 -19.750  0.00  0.00    -0.334 OA
ATOM      2  O   UNL     1      32.556 -11.947 -24.298  0.00  0.00    -0.268 OA
ATOM      3  O   UNL     1      34.075 -16.767 -25.136  0.00  0.00    -0.283 OA
ATOM      4  N   UNL     1      32.160 -12.049 -22.034  0.00  0.00    -0.251 N 
ATOM      5  N   UNL     1      33.557 -14.430 -21.860  0.00  0.00    -0.275 N 
ATOM      6  C   UNL     1      32.117 -12.801 -20.808  0.00  0.00    +0.215 C 
ATOM      7  C   UNL     1      31.734 -10.691 -21.800  0.00  0.00    +0.107 C 
ATOM      8  C   UNL     1      33.396 -13.598 -20.662  0.00  0.00    +0.147 C 
ATOM      9  C   UNL     1      32.076 -10.534 -20.328  0.00  0.00    +0.164 C 
ATOM     10  C   UNL     1      32.592 -12.566 -23.237  0.00  0.00    +0.268 C 
ATOM     11  C   UNL     1      33.178 -13.959 -23.131  0.00  0.00    +0.143 C 
ATOM     12  C   UNL     1      30.244 -10.526 -22.075  0.00  0.00    +0.024 C 
ATOM     13  C   UNL     1      34.143 -15.684 -21.764  0.00  0.00    +0.074 C 
ATOM     14  C   UNL     1      33.329 -14.689 -24.256  0.00  0.00    +0.191 C 
ATOM     15  C   UNL     1      34.353 -16.512 -22.795  0.00  0.00    +0.110 C 
ATOM     16  C   UNL     1      33.932 -16.056 -24.146  0.00  0.00    +0.236 C 
ENDROOT
BRANCH  15  19
ATOM     17  O   UNL     1      35.293 -18.560 -23.459  0.00  0.00    -0.270 OA
ATOM     18  N   UNL     1      35.157 -18.063 -21.185  0.00  0.00    -0.297 N 
ATOM     19  C   UNL     1      34.979 -17.808 -22.535  0.00  0.00    +0.251 C 
ATOM     20  H   UNL     1      34.863 -17.380 -20.539  0.00  0.00    +0.150 HD
BRANCH  18  21
ATOM     21  C   UNL     1      35.752 -19.277 -20.674  0.00  0.00    +0.119 C 
BRANCH  21  24
ATOM     22  F   UNL     1      36.502 -21.232 -18.772  0.00  0.00    -0.204 F 
ATOM     23  F   UNL     1      32.011 -22.456 -17.916  0.00  0.00    -0.204 F 
ATOM     24  C   UNL     1      34.756 -20.125 -19.938  0.00  0.00    +0.025 C 
ATOM     25  C   UNL     1      35.193 -21.073 -19.012  0.00  0.00    +0.140 C 
ATOM     26  C   UNL     1      33.391 -19.965 -20.181  0.00  0.00    +0.002 C 
ATOM     27  C   UNL     1      34.267 -21.860 -18.329  0.00  0.00    +0.059 C 
ATOM     28  C   UNL     1      32.465 -20.753 -19.498  0.00  0.00    +0.030 C 
ATOM     29  C   UNL     1      32.902 -21.700 -18.572  0.00  0.00    +0.142 C 
ENDBRANCH  21  24
ENDBRANCH  18  21
ENDBRANCH  15  19
BRANCH  14  30
ATOM     30  O   UNL     1      32.952 -14.260 -25.509  0.00  0.00    -0.502 OA
ATOM     31  H   UNL     1      32.254 -13.642 -25.603  0.00  0.00    +0.292 HD
ENDBRANCH  14  30
TORSDOF 4
ENDMDL
MODEL 2
REMARK VINA RESULT:     -12.6      6.538     11.586
REMARK  Name = 54713659
REMARK  4 active torsions:
REMARK  status: ('A' for Active; 'I' for Inactive)
REMARK    1  A    between atoms: C_14  and  O_30
REMARK    2  A    between atoms: C_15  and  C_19
REMARK    3  A    between atoms: N_18  and  C_21
REMARK    4  A    between atoms: C_21  and  C_24
REMARK                            x       y       z     vdW  Elec       q    Type
REMARK                         _______ _______ _______ _____ _____    ______ ____
ROOT
ATOM      1  O   UNL     1      38.293 -23.702 -13.749  0.00  0.00    -0.334 OA
ATOM      2  O   UNL     1      34.310 -24.444 -11.592  0.00  0.00    -0.268 OA
ATOM      3  O   UNL     1      30.851 -23.661 -15.289  0.00  0.00    -0.283 OA
ATOM      4  N   UNL     1      36.247 -24.173 -12.803  0.00  0.00    -0.251 N 
ATOM      5  N   UNL     1      34.833 -23.000 -14.872  0.00  0.00    -0.275 N 
ATOM      6  C   UNL     1      36.911 -23.924 -14.056  0.00  0.00    +0.215 C 
ATOM      7  C   UNL     1      37.219 -24.392 -11.761  0.00  0.00    +0.107 C 
ATOM      8  C   UNL     1      36.270 -22.733 -14.736  0.00  0.00    +0.147 C 
ATOM      9  C   UNL     1      38.408 -23.626 -12.314  0.00  0.00    +0.164 C 
ATOM     10  C   UNL     1      34.877 -24.156 -12.643  0.00  0.00    +0.268 C 
ATOM     11  C   UNL     1      34.122 -23.689 -13.870  0.00  0.00    +0.143 C 
ATOM     12  C   UNL     1      37.512 -25.878 -11.584  0.00  0.00    +0.024 C 
ATOM     13  C   UNL     1      34.136 -22.524 -15.972  0.00  0.00    +0.074 C 
ATOM     14  C   UNL     1      32.797 -23.935 -13.953  0.00  0.00    +0.191 C 
ATOM     15  C   UNL     1      32.825 -22.695 -16.181  0.00  0.00    +0.110 C 
ATOM     16  C   UNL     1      32.053 -23.448 -15.158  0.00  0.00    +0.236 C 
ENDROOT
BRANCH  15  19
ATOM     17  O   UNL     1      31.010 -22.040 -17.521  0.00  0.00    -0.270 OA
ATOM     18  N   UNL     1      33.176 -21.756 -18.335  0.00  0.00    -0.297 N 
ATOM     19  C   UNL     1      32.231 -22.137 -17.396  0.00  0.00    +0.251 C 
ATOM     20  H   UNL     1      34.127 -21.885 -18.118  0.00  0.00    +0.150 HD
BRANCH  18  21
ATOM     21  C   UNL     1      32.839 -21.180 -19.617  0.00  0.00    +0.119 C 
BRANCH  21  24
ATOM     22  F   UNL     1      32.506 -19.421 -21.809  0.00  0.00    -0.204 F 
ATOM     23  F   UNL     1      37.026 -18.027 -21.674  0.00  0.00    -0.204 F 
ATOM     24  C   UNL     1      33.954 -20.339 -20.167  0.00  0.00    +0.025 C 
ATOM     25  C   UNL     1      33.723 -19.492 -21.251  0.00  0.00    +0.140 C 
ATOM     26  C   UNL     1      35.224 -20.404 -19.592  0.00  0.00    +0.002 C 
ATOM     27  C   UNL     1      34.760 -18.711 -21.760  0.00  0.00    +0.059 C 
ATOM     28  C   UNL     1      36.261 -19.624 -20.102  0.00  0.00    +0.030 C 
ATOM     29  C   UNL     1      36.030 -18.776 -21.185  0.00  0.00    +0.142 C 
ENDBRANCH  21  24
ENDBRANCH  18  21
ENDBRANCH  15  19
BRANCH  14  30
ATOM     30  O   UNL     1      32.081 -24.620 -12.998  0.00  0.00    -0.502 OA
ATOM     31  H   UNL     1      31.748 -25.476 -13.185  0.00  0.00    +0.292 HD
ENDBRANCH  14  30
TORSDOF 4
ENDMDL
MODEL 3
REMARK VINA RESULT:     -12.6      2.881      5.223
REMARK  Name = 54713659
REMARK  4 active torsions:
REMARK  status: ('A' for Active; 'I' for Inactive)
REMARK    1  A    between atoms: C_14  and  O_30
REMARK    2  A    between atoms: C_15  and  C_19
REMARK    3  A    between atoms: N_18  and  C_21
REMARK    4  A    between atoms: C_21  and  C_24
REMARK                            x       y       z     vdW  Elec       q    Type
REMARK                         _______ _______ _______ _____ _____    ______ ____
ROOT
ATOM      1  O   UNL     1      32.248  -6.282 -23.010  0.00  0.00    -0.334 OA
ATOM      2  O   UNL     1      30.730  -9.061 -19.686  0.00  0.00    -0.268 OA
ATOM      3  O   UNL     1      32.342 -13.670 -21.233  0.00  0.00    -0.283 OA
ATOM      4  N   UNL     1      31.645  -7.750 -21.340  0.00  0.00    -0.251 N 
ATOM      5  N   UNL     1      32.101  -9.983 -22.909  0.00  0.00    -0.275 N 
ATOM      6  C   UNL     1      32.440  -7.620 -22.533  0.00  0.00    +0.215 C 
ATOM      7  C   UNL     1      31.189  -6.453 -20.904  0.00  0.00    +0.107 C 
ATOM      8  C   UNL     1      32.006  -8.662 -23.542  0.00  0.00    +0.147 C 
ATOM      9  C   UNL     1      31.198  -5.691 -22.218  0.00  0.00    +0.164 C 
ATOM     10  C   UNL     1      31.343  -8.957 -20.746  0.00  0.00    +0.268 C 
ATOM     11  C   UNL     1      31.784 -10.163 -21.549  0.00  0.00    +0.143 C 
ATOM     12  C   UNL     1      32.138  -5.853 -19.873  0.00  0.00    +0.024 C 
ATOM     13  C   UNL     1      32.454 -11.094 -23.661  0.00  0.00    +0.074 C 
ATOM     14  C   UNL     1      31.843 -11.366 -20.938  0.00  0.00    +0.191 C 
ATOM     15  C   UNL     1      32.552 -12.341 -23.185  0.00  0.00    +0.110 C 
ATOM     16  C   UNL     1      32.256 -12.558 -21.745  0.00  0.00    +0.236 C 
ENDROOT
BRANCH  15  19
ATOM     17  O   UNL     1      32.670 -13.349 -25.304  0.00  0.00    -0.270 OA
ATOM     18  N   UNL     1      33.617 -14.444 -23.477  0.00  0.00    -0.297 N 
ATOM     19  C   UNL     1      32.942 -13.411 -24.104  0.00  0.00    +0.251 C 
ATOM     20  H   UNL     1      33.775 -14.378 -22.508  0.00  0.00    +0.150 HD
BRANCH  18  21
ATOM     21  C   UNL     1      34.104 -15.616 -24.171  0.00  0.00    +0.119 C 
BRANCH  21  24
ATOM     22  F   UNL     1      33.371 -18.276 -24.798  0.00  0.00    -0.204 F 
ATOM     23  F   UNL     1      34.962 -19.935 -20.662  0.00  0.00    -0.204 F 
ATOM     24  C   UNL     1      34.332 -16.768 -23.236  0.00  0.00    +0.025 C 
ATOM     25  C   UNL     1      33.946 -18.057 -23.607  0.00  0.00    +0.140 C 
ATOM     26  C   UNL     1      34.930 -16.550 -21.994  0.00  0.00    +0.002 C 
ATOM     27  C   UNL     1      34.159 -19.126 -22.739  0.00  0.00    +0.059 C 
ATOM     28  C   UNL     1      35.142 -17.620 -21.125  0.00  0.00    +0.030 C 
ATOM     29  C   UNL     1      34.757 -18.908 -21.497  0.00  0.00    +0.142 C 
ENDBRANCH  21  24
ENDBRANCH  18  21
ENDBRANCH  15  19
BRANCH  14  30
ATOM     30  O   UNL     1      31.555 -11.568 -19.607  0.00  0.00    -0.502 OA
ATOM     31  H   UNL     1      31.367 -12.431 -19.294  0.00  0.00    +0.292 HD
ENDBRANCH  14  30
TORSDOF 4
ENDMDL
MODEL 4
REMARK VINA RESULT:     -11.5      2.051      3.794
REMARK  Name = 54713659
REMARK  4 active torsions:
REMARK  status: ('A' for Active; 'I' for Inactive)
REMARK    1  A    between atoms: C_14  and  O_30
REMARK    2  A    between atoms: C_15  and  C_19
REMARK    3  A    between atoms: N_18  and  C_21
REMARK    4  A    between atoms: C_21  and  C_24
REMARK                            x       y       z     vdW  Elec       q    Type
REMARK                         _______ _______ _______ _____ _____    ______ ____
ROOT
ATOM      1  O   UNL     1      32.119  -8.061 -23.878  0.00  0.00    -0.334 OA
ATOM      2  O   UNL     1      30.838 -10.398 -20.140  0.00  0.00    -0.268 OA
ATOM      3  O   UNL     1      33.307 -14.853 -20.682  0.00  0.00    -0.283 OA
ATOM      4  N   UNL     1      31.645  -9.276 -21.980  0.00  0.00    -0.251 N 
ATOM      5  N   UNL     1      32.583 -11.644 -23.058  0.00  0.00    -0.275 N 
ATOM      6  C   UNL     1      32.495  -9.231 -23.140  0.00  0.00    +0.215 C 
ATOM      7  C   UNL     1      30.948  -8.023 -21.827  0.00  0.00    +0.107 C 
ATOM      8  C   UNL     1      32.318 -10.503 -23.942  0.00  0.00    +0.147 C 
ATOM      9  C   UNL     1      30.928  -7.529 -23.263  0.00  0.00    +0.164 C 
ATOM     10  C   UNL     1      31.504 -10.385 -21.173  0.00  0.00    +0.268 C 
ATOM     11  C   UNL     1      32.199 -11.622 -21.704  0.00  0.00    +0.143 C 
ATOM     12  C   UNL     1      31.703  -7.082 -20.894  0.00  0.00    +0.024 C 
ATOM     13  C   UNL     1      33.173 -12.795 -23.562  0.00  0.00    +0.074 C 
ATOM     14  C   UNL     1      32.411 -12.660 -20.867  0.00  0.00    +0.191 C 
ATOM     15  C   UNL     1      33.440 -13.894 -22.847  0.00  0.00    +0.110 C 
ATOM     16  C   UNL     1      33.077 -13.888 -21.405  0.00  0.00    +0.236 C 
ENDROOT
BRANCH  15  19
ATOM     17  O   UNL     1      34.487 -14.932 -24.676  0.00  0.00    -0.270 OA
ATOM     18  N   UNL     1      34.133 -16.164 -22.728  0.00  0.00    -0.297 N 
ATOM     19  C   UNL     1      34.071 -15.030 -23.520  0.00  0.00    +0.251 C 
ATOM     20  H   UNL     1      33.765 -16.117 -21.816  0.00  0.00    +0.150 HD
BRANCH  18  21
ATOM     21  C   UNL     1      34.709 -17.414 -23.169  0.00  0.00    +0.119 C 
BRANCH  21  24
ATOM     22  F   UNL     1      37.195 -17.752 -21.862  0.00  0.00    -0.204 F 
ATOM     23  F   UNL     1      35.459 -21.011 -18.902  0.00  0.00    -0.204 F 
ATOM     24  C   UNL     1      34.910 -18.373 -22.031  0.00  0.00    +0.025 C 
ATOM     25  C   UNL     1      36.164 -18.491 -21.431  0.00  0.00    +0.140 C 
ATOM     26  C   UNL     1      33.842 -19.147 -21.575  0.00  0.00    +0.002 C 
ATOM     27  C   UNL     1      36.350 -19.382 -20.374  0.00  0.00    +0.059 C 
ATOM     28  C   UNL     1      34.029 -20.038 -20.519  0.00  0.00    +0.030 C 
ATOM     29  C   UNL     1      35.281 -20.155 -19.917  0.00  0.00    +0.142 C 
ENDBRANCH  21  24
ENDBRANCH  18  21
ENDBRANCH  15  19
BRANCH  14  30
ATOM     30  O   UNL     1      32.061 -12.659 -19.535  0.00  0.00    -0.502 OA
ATOM     31  H   UNL     1      32.293 -11.933 -18.990  0.00  0.00    +0.292 HD
ENDBRANCH  14  30
TORSDOF 4
ENDMDL
MODEL 5
REMARK VINA RESULT:     -11.5      1.751      2.597
REMARK  Name = 54713659
REMARK  4 active torsions:
REMARK  status: ('A' for Active; 'I' for Inactive)
REMARK    1  A    between atoms: C_14  and  O_30
REMARK    2  A    between atoms: C_15  and  C_19
REMARK    3  A    between atoms: N_18  and  C_21
REMARK    4  A    between atoms: C_21  and  C_24
REMARK                            x       y       z     vdW  Elec       q    Type
REMARK                         _______ _______ _______ _____ _____    ______ ____
ROOT
ATOM      1  O   UNL     1      33.092 -12.321 -21.989  0.00  0.00    -0.334 OA
ATOM      2  O   UNL     1      33.450 -15.211 -25.538  0.00  0.00    -0.268 OA
ATOM      3  O   UNL     1      34.587 -19.661 -23.271  0.00  0.00    -0.283 OA
ATOM      4  N   UNL     1      33.172 -13.884 -23.679  0.00  0.00    -0.251 N 
ATOM      5  N   UNL     1      34.410 -15.783 -22.093  0.00  0.00    -0.275 N 
ATOM      6  C   UNL     1      33.145 -13.730 -22.248  0.00  0.00    +0.215 C 
ATOM      7  C   UNL     1      32.854 -12.631 -24.319  0.00  0.00    +0.107 C 
ATOM      8  C   UNL     1      34.372 -14.384 -21.649  0.00  0.00    +0.147 C 
ATOM      9  C   UNL     1      33.286 -11.645 -23.248  0.00  0.00    +0.164 C 
ATOM     10  C   UNL     1      33.502 -15.060 -24.319  0.00  0.00    +0.268 C 
ATOM     11  C   UNL     1      33.996 -16.147 -23.388  0.00  0.00    +0.143 C 
ATOM     12  C   UNL     1      31.366 -12.537 -24.636  0.00  0.00    +0.024 C 
ATOM     13  C   UNL     1      34.913 -16.767 -21.255  0.00  0.00    +0.074 C 
ATOM     14  C   UNL     1      34.034 -17.420 -23.836  0.00  0.00    +0.191 C 
ATOM     15  C   UNL     1      35.009 -18.065 -21.569  0.00  0.00    +0.110 C 
ATOM     16  C   UNL     1      34.547 -18.486 -22.918  0.00  0.00    +0.236 C 
ENDROOT
BRANCH  15  19
ATOM     17  O   UNL     1      36.563 -18.696 -19.925  0.00  0.00    -0.270 OA
ATOM     18  N   UNL     1      34.835 -20.163 -20.468  0.00  0.00    -0.297 N 
ATOM     19  C   UNL     1      35.557 -18.986 -20.574  0.00  0.00    +0.251 C 
ATOM     20  H   UNL     1      34.045 -20.279 -21.044  0.00  0.00    +0.150 HD
BRANCH  18  21
ATOM     21  C   UNL     1      35.178 -21.231 -19.556  0.00  0.00    +0.119 C 
BRANCH  21  24
ATOM     22  F   UNL     1      35.543 -22.424 -17.017  0.00  0.00    -0.204 F 
ATOM     23  F   UNL     1      30.892 -22.555 -16.153  0.00  0.00    -0.204 F 
ATOM     24  C   UNL     1      34.037 -21.584 -18.648  0.00  0.00    +0.025 C 
ATOM     25  C   UNL     1      34.286 -22.172 -17.408  0.00  0.00    +0.140 C 
ATOM     26  C   UNL     1      32.724 -21.325 -19.045  0.00  0.00    +0.002 C 
ATOM     27  C   UNL     1      33.225 -22.500 -16.565  0.00  0.00    +0.059 C 
ATOM     28  C   UNL     1      31.663 -21.654 -18.203  0.00  0.00    +0.030 C 
ATOM     29  C   UNL     1      31.912 -22.240 -16.962  0.00  0.00    +0.142 C 
ENDBRANCH  21  24
ENDBRANCH  18  21
ENDBRANCH  15  19
BRANCH  14  30
ATOM     30  O   UNL     1      33.620 -17.808 -25.090  0.00  0.00    -0.502 OA
ATOM     31  H   UNL     1      33.940 -17.361 -25.849  0.00  0.00    +0.292 HD
ENDBRANCH  14  30
TORSDOF 4
ENDMDL
MODEL 6
REMARK VINA RESULT:     -11.2      4.712      7.984
REMARK  Name = 54713659
REMARK  4 active torsions:
REMARK  status: ('A' for Active; 'I' for Inactive)
REMARK    1  A    between atoms: C_14  and  O_30
REMARK    2  A    between atoms: C_15  and  C_19
REMARK    3  A    between atoms: N_18  and  C_21
REMARK    4  A    between atoms: C_21  and  C_24
REMARK                            x       y       z     vdW  Elec       q    Type
REMARK                         _______ _______ _______ _____ _____    ______ ____
ROOT
ATOM      1  O   UNL     1      37.173 -18.231 -20.940  0.00  0.00    -0.334 OA
ATOM      2  O   UNL     1      32.880 -19.636 -21.759  0.00  0.00    -0.268 OA
ATOM      3  O   UNL     1      31.744 -22.331 -17.554  0.00  0.00    -0.283 OA
ATOM      4  N   UNL     1      34.979 -18.885 -21.188  0.00  0.00    -0.251 N 
ATOM      5  N   UNL     1      35.122 -20.734 -19.135  0.00  0.00    -0.275 N 
ATOM      6  C   UNL     1      36.059 -18.800 -20.240  0.00  0.00    +0.215 C 
ATOM      7  C   UNL     1      35.298 -18.128 -22.373  0.00  0.00    +0.107 C 
ATOM      8  C   UNL     1      36.360 -20.181 -19.697  0.00  0.00    +0.147 C 
ATOM      9  C   UNL     1      36.816 -18.163 -22.335  0.00  0.00    +0.164 C 
ATOM     10  C   UNL     1      33.834 -19.626 -20.984  0.00  0.00    +0.268 C 
ATOM     11  C   UNL     1      33.874 -20.485 -19.737  0.00  0.00    +0.143 C 
ATOM     12  C   UNL     1      34.743 -16.710 -22.287  0.00  0.00    +0.024 C 
ATOM     13  C   UNL     1      35.170 -21.563 -18.024  0.00  0.00    +0.074 C 
ATOM     14  C   UNL     1      32.718 -20.992 -19.258  0.00  0.00    +0.191 C 
ATOM     15  C   UNL     1      34.105 -22.132 -17.447  0.00  0.00    +0.110 C 
ATOM     16  C   UNL     1      32.769 -21.860 -18.039  0.00  0.00    +0.236 C 
ENDROOT
BRANCH  15  19
ATOM     17  O   UNL     1      33.977 -24.164 -16.276  0.00  0.00    -0.270 OA
ATOM     18  N   UNL     1      34.911 -22.309 -15.218  0.00  0.00    -0.297 N 
ATOM     19  C   UNL     1      34.315 -22.980 -16.273  0.00  0.00    +0.251 C 
ATOM     20  H   UNL     1      35.135 -21.357 -15.338  0.00  0.00    +0.150 HD
BRANCH  18  21
ATOM     21  C   UNL     1      35.220 -22.930 -13.950  0.00  0.00    +0.119 C 
BRANCH  21  24
ATOM     22  F   UNL     1      35.837 -25.096 -12.239  0.00  0.00    -0.204 F 
ATOM     23  F   UNL     1      40.172 -25.607 -14.068  0.00  0.00    -0.204 F 
ATOM     24  C   UNL     1      36.539 -23.644 -13.981  0.00  0.00    +0.025 C 
ATOM     25  C   UNL     1      36.780 -24.706 -13.108  0.00  0.00    +0.140 C 
ATOM     26  C   UNL     1      37.527 -23.246 -14.883  0.00  0.00    +0.002 C 
ATOM     27  C   UNL     1      38.006 -25.369 -13.137  0.00  0.00    +0.059 C 
ATOM     28  C   UNL     1      38.753 -23.909 -14.911  0.00  0.00    +0.030 C 
ATOM     29  C   UNL     1      38.994 -24.971 -14.040  0.00  0.00    +0.142 C 
ENDBRANCH  21  24
ENDBRANCH  18  21
ENDBRANCH  15  19
BRANCH  14  30
ATOM     30  O   UNL     1      31.483 -20.751 -19.816  0.00  0.00    -0.502 OA
ATOM     31  H   UNL     1      30.713 -20.779 -19.282  0.00  0.00    +0.292 HD
ENDBRANCH  14  30
TORSDOF 4
ENDMDL
MODEL 7
REMARK VINA RESULT:     -11.0      4.391      9.358
REMARK  Name = 54713659
REMARK  4 active torsions:
REMARK  status: ('A' for Active; 'I' for Inactive)
REMARK    1  A    between atoms: C_14  and  O_30
REMARK    2  A    between atoms: C_15  and  C_19
REMARK    3  A    between atoms: N_18  and  C_21
REMARK    4  A    between atoms: C_21  and  C_24
REMARK                            x       y       z     vdW  Elec       q    Type
REMARK                         _______ _______ _______ _____ _____    ______ ____
ROOT
ATOM      1  O   UNL     1      33.888 -18.878 -24.402  0.00  0.00    -0.334 OA
ATOM      2  O   UNL     1      35.111 -16.885 -20.452  0.00  0.00    -0.268 OA
ATOM      3  O   UNL     1      33.219 -12.150 -20.933  0.00  0.00    -0.283 OA
ATOM      4  N   UNL     1      34.338 -17.817 -22.408  0.00  0.00    -0.251 N 
ATOM      5  N   UNL     1      33.768 -15.307 -23.421  0.00  0.00    -0.275 N 
ATOM      6  C   UNL     1      33.587 -17.707 -23.631  0.00  0.00    +0.215 C 
ATOM      7  C   UNL     1      34.873 -19.149 -22.272  0.00  0.00    +0.107 C 
ATOM      8  C   UNL     1      33.974 -16.429 -24.345  0.00  0.00    +0.147 C 
ATOM      9  C   UNL     1      34.955 -19.575 -23.727  0.00  0.00    +0.164 C 
ATOM     10  C   UNL     1      34.537 -16.771 -21.532  0.00  0.00    +0.268 C 
ATOM     11  C   UNL     1      34.033 -15.438 -22.045  0.00  0.00    +0.143 C 
ATOM     12  C   UNL     1      33.940 -20.037 -21.454  0.00  0.00    +0.024 C 
ATOM     13  C   UNL     1      33.357 -14.073 -23.904  0.00  0.00    +0.074 C 
ATOM     14  C   UNL     1      33.872 -14.422 -21.170  0.00  0.00    +0.191 C 
ATOM     15  C   UNL     1      33.158 -12.984 -23.152  0.00  0.00    +0.110 C 
ATOM     16  C   UNL     1      33.398 -13.100 -21.689  0.00  0.00    +0.236 C 
ENDROOT
BRANCH  15  19
ATOM     17  O   UNL     1      32.749 -11.639 -25.033  0.00  0.00    -0.270 OA
ATOM     18  N   UNL     1      32.290 -10.786 -22.913  0.00  0.00    -0.297 N 
ATOM     19  C   UNL     1      32.719 -11.752 -23.807  0.00  0.00    +0.251 C 
ATOM     20  H   UNL     1      32.313 -10.996 -21.952  0.00  0.00    +0.150 HD
BRANCH  18  21
ATOM     21  C   UNL     1      31.810  -9.483 -23.316  0.00  0.00    +0.119 C 
BRANCH  21  24
ATOM     22  F   UNL     1      30.564  -9.656 -20.782  0.00  0.00    -0.204 F 
ATOM     23  F   UNL     1      32.534  -5.624 -19.281  0.00  0.00    -0.204 F 
ATOM     24  C   UNL     1      32.002  -8.455 -22.240  0.00  0.00    +0.025 C 
ATOM     25  C   UNL     1      31.357  -8.600 -21.011  0.00  0.00    +0.140 C 
ATOM     26  C   UNL     1      32.826  -7.352 -22.468  0.00  0.00    +0.002 C 
ATOM     27  C   UNL     1      31.537  -7.645 -20.011  0.00  0.00    +0.059 C 
ATOM     28  C   UNL     1      33.005  -6.396 -21.469  0.00  0.00    +0.030 C 
ATOM     29  C   UNL     1      32.361  -6.542 -20.240  0.00  0.00    +0.142 C 
ENDBRANCH  21  24
ENDBRANCH  18  21
ENDBRANCH  15  19
BRANCH  14  30
ATOM     30  O   UNL     1      34.108 -14.526 -19.818  0.00  0.00    -0.502 OA
ATOM     31  H   UNL     1      34.588 -13.857 -19.372  0.00  0.00    +0.292 HD
ENDBRANCH  14  30
TORSDOF 4
ENDMDL
MODEL 8
REMARK VINA RESULT:     -10.9      4.927      9.673
REMARK  Name = 54713659
REMARK  4 active torsions:
REMARK  status: ('A' for Active; 'I' for Inactive)
REMARK    1  A    between atoms: C_14  and  O_30
REMARK    2  A    between atoms: C_15  and  C_19
REMARK    3  A    between atoms: N_18  and  C_21
REMARK    4  A    between atoms: C_21  and  C_24
REMARK                            x       y       z     vdW  Elec       q    Type
REMARK                         _______ _______ _______ _____ _____    ______ ____
ROOT
ATOM      1  O   UNL     1      34.779 -24.186 -13.658  0.00  0.00    -0.334 OA
ATOM      2  O   UNL     1      30.999 -22.292 -15.448  0.00  0.00    -0.268 OA
ATOM      3  O   UNL     1      32.565 -20.797 -20.090  0.00  0.00    -0.283 OA
ATOM      4  N   UNL     1      32.914 -23.327 -14.702  0.00  0.00    -0.251 N 
ATOM      5  N   UNL     1      34.385 -22.139 -16.722  0.00  0.00    -0.275 N 
ATOM      6  C   UNL     1      34.271 -23.752 -14.927  0.00  0.00    +0.215 C 
ATOM      7  C   UNL     1      32.472 -23.745 -13.395  0.00  0.00    +0.107 C 
ATOM      8  C   UNL     1      35.068 -22.604 -15.508  0.00  0.00    +0.147 C 
ATOM      9  C   UNL     1      33.798 -23.836 -12.660  0.00  0.00    +0.164 C 
ATOM     10  C   UNL     1      32.181 -22.588 -15.607  0.00  0.00    +0.268 C 
ATOM     11  C   UNL     1      32.980 -22.116 -16.804  0.00  0.00    +0.143 C 
ATOM     12  C   UNL     1      31.748 -25.086 -13.461  0.00  0.00    +0.024 C 
ATOM     13  C   UNL     1      35.122 -21.658 -17.794  0.00  0.00    +0.074 C 
ATOM     14  C   UNL     1      32.319 -21.678 -17.897  0.00  0.00    +0.191 C 
ATOM     15  C   UNL     1      34.598 -21.194 -18.936  0.00  0.00    +0.110 C 
ATOM     16  C   UNL     1      33.117 -21.190 -19.066  0.00  0.00    +0.236 C 
ENDROOT
BRANCH  15  19
ATOM     17  O   UNL     1      36.368 -21.466 -20.455  0.00  0.00    -0.270 OA
ATOM     18  N   UNL     1      35.280 -19.407 -20.345  0.00  0.00    -0.297 N 
ATOM     19  C   UNL     1      35.506 -20.724 -19.982  0.00  0.00    +0.251 C 
ATOM     20  H   UNL     1      34.558 -18.916 -19.891  0.00  0.00    +0.150 HD
BRANCH  18  21
ATOM     21  C   UNL     1      36.049 -18.715 -21.355  0.00  0.00    +0.119 C 
BRANCH  21  24
ATOM     22  F   UNL     1      34.580 -19.702 -23.561  0.00  0.00    -0.204 F 
ATOM     23  F   UNL     1      32.813 -15.434 -24.590  0.00  0.00    -0.204 F 
ATOM     24  C   UNL     1      35.186 -17.841 -22.218  0.00  0.00    +0.025 C 
ATOM     25  C   UNL     1      34.488 -18.392 -23.293  0.00  0.00    +0.140 C 
ATOM     26  C   UNL     1      35.083 -16.476 -21.945  0.00  0.00    +0.002 C 
ATOM     27  C   UNL     1      33.686 -17.580 -24.094  0.00  0.00    +0.059 C 
ATOM     28  C   UNL     1      34.282 -15.664 -22.747  0.00  0.00    +0.030 C 
ATOM     29  C   UNL     1      33.582 -16.215 -23.821  0.00  0.00    +0.142 C 
ENDBRANCH  21  24
ENDBRANCH  18  21
ENDBRANCH  15  19
BRANCH  14  30
ATOM     30  O   UNL     1      30.948 -21.661 -18.011  0.00  0.00    -0.502 OA
ATOM     31  H   UNL     1      30.424 -22.212 -17.463  0.00  0.00    +0.292 HD
ENDBRANCH  14  30
TORSDOF 4
ENDMDL
MODEL 9
REMARK VINA RESULT:     -10.9      5.507      8.538
REMARK  Name = 54713659
REMARK  4 active torsions:
REMARK  status: ('A' for Active; 'I' for Inactive)
REMARK    1  A    between atoms: C_14  and  O_30
REMARK    2  A    between atoms: C_15  and  C_19
REMARK    3  A    between atoms: N_18  and  C_21
REMARK    4  A    between atoms: C_21  and  C_24
REMARK                            x       y       z     vdW  Elec       q    Type
REMARK                         _______ _______ _______ _____ _____    ______ ____
ROOT
ATOM      1  O   UNL     1      29.914  -2.819 -23.931  0.00  0.00    -0.334 OA
ATOM      2  O   UNL     1      34.096  -4.484 -24.834  0.00  0.00    -0.268 OA
ATOM      3  O   UNL     1      33.768  -9.329 -23.203  0.00  0.00    -0.283 OA
ATOM      4  N   UNL     1      31.934  -3.795 -24.454  0.00  0.00    -0.251 N 
ATOM      5  N   UNL     1      31.475  -6.000 -22.847  0.00  0.00    -0.275 N 
ATOM      6  C   UNL     1      30.592  -4.080 -24.017  0.00  0.00    +0.215 C 
ATOM      7  C   UNL     1      32.028  -2.431 -24.912  0.00  0.00    +0.107 C 
ATOM      8  C   UNL     1      30.639  -4.804 -22.689  0.00  0.00    +0.147 C 
ATOM      9  C   UNL     1      30.901  -1.786 -24.124  0.00  0.00    +0.164 C 
ATOM     10  C   UNL     1      32.970  -4.702 -24.390  0.00  0.00    +0.268 C 
ATOM     11  C   UNL     1      32.619  -5.986 -23.667  0.00  0.00    +0.143 C 
ATOM     12  C   UNL     1      31.815  -2.340 -26.419  0.00  0.00    +0.024 C 
ATOM     13  C   UNL     1      31.179  -7.157 -22.141  0.00  0.00    +0.074 C 
ATOM     14  C   UNL     1      33.421  -7.061 -23.821  0.00  0.00    +0.191 C 
ATOM     15  C   UNL     1      31.886  -8.292 -22.199  0.00  0.00    +0.110 C 
ATOM     16  C   UNL     1      33.081  -8.318 -23.083  0.00  0.00    +0.236 C 
ENDROOT
BRANCH  15  19
ATOM     17  O   UNL     1      31.015  -9.277 -20.253  0.00  0.00    -0.270 OA
ATOM     18  N   UNL     1      31.569 -10.642 -22.060  0.00  0.00    -0.297 N 
ATOM     19  C   UNL     1      31.444  -9.433 -21.397  0.00  0.00    +0.251 C 
ATOM     20  H   UNL     1      31.927 -10.637 -22.977  0.00  0.00    +0.150 HD
BRANCH  18  21
ATOM     21  C   UNL     1      31.201 -11.913 -21.477  0.00  0.00    +0.119 C 
BRANCH  21  24
ATOM     22  F   UNL     1      32.070 -13.680 -19.445  0.00  0.00    -0.204 F 
ATOM     23  F   UNL     1      35.149 -15.839 -22.319  0.00  0.00    -0.204 F 
ATOM     24  C   UNL     1      32.253 -12.960 -21.700  0.00  0.00    +0.025 C 
ATOM     25  C   UNL     1      32.637 -13.800 -20.654  0.00  0.00    +0.140 C 
ATOM     26  C   UNL     1      32.849 -13.093 -22.955  0.00  0.00    +0.002 C 
ATOM     27  C   UNL     1      33.614 -14.772 -20.863  0.00  0.00    +0.059 C 
ATOM     28  C   UNL     1      33.827 -14.065 -23.163  0.00  0.00    +0.030 C 
ATOM     29  C   UNL     1      34.210 -14.905 -22.118  0.00  0.00    +0.142 C 
ENDBRANCH  21  24
ENDBRANCH  18  21
ENDBRANCH  15  19
BRANCH  14  30
ATOM     30  O   UNL     1      34.536  -7.080 -24.629  0.00  0.00    -0.502 OA
ATOM     31  H   UNL     1      34.946  -6.277 -24.881  0.00  0.00    +0.292 HD
ENDBRANCH  14  30
TORSDOF 4
ENDMDL
