MODEL 1
REMARK VINA RESULT:     -12.2      0.000      0.000
REMARK  Name = 11711595
REMARK  10 active torsions:
REMARK  status: ('A' for Active; 'I' for Inactive)
REMARK    1  A    between atoms: C_1  and  C_9
REMARK    2  A    between atoms: C_3  and  C_17
REMARK    3  A    between atoms: C_5  and  O_7
REMARK    4  A    between atoms: C_9  and  C_10
REMARK    5  A    between atoms: C_10  and  C_12
REMARK    6  A    between atoms: C_10  and  C_15
REMARK    7  A    between atoms: C_12  and  O_13
REMARK    8  A    between atoms: C_17  and  N_19
REMARK    9  A    between atoms: C_20  and  C_23
REMARK   10  A    between atoms: C_26  and  C_32
REMARK                            x       y       z     vdW  Elec       q    Type
REMARK                         _______ _______ _______ _____ _____    ______ ____
ROOT
ATOM      1  C   UNL     1      34.642 -23.633 -14.386  0.00  0.00    -0.022 C 
ATOM      2  C   UNL     1      33.921 -23.384 -15.554  0.00  0.00    -0.004 C 
ATOM      3  C   UNL     1      32.545 -23.161 -15.490  0.00  0.00    +0.031 C 
ATOM      4  C   UNL     1      33.988 -23.660 -13.154  0.00  0.00    -0.001 C 
ATOM      5  C   UNL     1      31.891 -23.188 -14.257  0.00  0.00    +0.136 C 
ATOM      6  C   UNL     1      32.612 -23.437 -13.090  0.00  0.00    +0.036 C 
ENDROOT
BRANCH   5   7
ATOM      7  O   UNL     1      30.548 -22.973 -14.177  0.00  0.00    -0.472 OA
ATOM      8  C   UNL     1      29.722 -24.114 -13.954  0.00  0.00    +0.252 C 
ENDBRANCH   5   7
BRANCH   1   9
ATOM      9  C   UNL     1      36.132 -23.874 -14.455  0.00  0.00    +0.037 C 
BRANCH   9  10
ATOM     10  C   UNL     1      36.579 -25.133 -13.689  0.00  0.00    +0.103 C 
BRANCH  10  12
ATOM     11  O   UNL     1      36.054 -26.571 -15.583  0.00  0.00    -0.250 OA
ATOM     12  C   UNL     1      36.819 -26.268 -14.675  0.00  0.00    +0.314 C 
BRANCH  12  13
ATOM     13  O   UNL     1      37.997 -26.908 -14.460  0.00  0.00    -0.480 OA
ATOM     14  H   UNL     1      38.693 -26.831 -15.083  0.00  0.00    +0.295 HD
ENDBRANCH  12  13
ENDBRANCH  10  12
BRANCH  10  15
ATOM     15  C   UNL     1      37.865 -24.842 -12.893  0.00  0.00    +0.011 C 
ATOM     16  C   UNL     1      37.644 -23.837 -11.769  0.00  0.00    +0.001 C 
ENDBRANCH  10  15
ENDBRANCH   9  10
ENDBRANCH   1   9
BRANCH   3  17
ATOM     17  C   UNL     1      31.789 -22.896 -16.749  0.00  0.00    +0.120 C 
BRANCH  17  19
ATOM     18  O   UNL     1      33.360 -23.431 -19.091  0.00  0.00    -0.270 OA
ATOM     19  N   UNL     1      32.445 -21.924 -17.585  0.00  0.00    -0.297 N 
ATOM     20  C   UNL     1      33.188 -22.279 -18.703  0.00  0.00    +0.248 C 
ATOM     21  H   UNL     1      32.365 -20.971 -17.354  0.00  0.00    +0.150 HD
BRANCH  20  23
ATOM     22  F   UNL     1      35.951 -21.715 -18.541  0.00  0.00    -0.204 F 
ATOM     23  C   UNL     1      33.825 -21.161 -19.445  0.00  0.00    +0.081 C 
ATOM     24  C   UNL     1      35.195 -20.932 -19.325  0.00  0.00    +0.144 C 
ATOM     25  C   UNL     1      33.050 -20.339 -20.263  0.00  0.00    +0.007 C 
ATOM     26  C   UNL     1      35.016 -19.061 -20.842  0.00  0.00    +0.074 C 
ATOM     27  C   UNL     1      35.792 -19.883 -20.024  0.00  0.00    +0.034 C 
ATOM     28  C   UNL     1      33.645 -19.289 -20.961  0.00  0.00    +0.004 C 
BRANCH  26  32
ATOM     29  F   UNL     1      35.259 -16.702 -21.162  0.00  0.00    -0.166 F 
ATOM     30  F   UNL     1      37.016 -17.927 -21.502  0.00  0.00    -0.166 F 
ATOM     31  F   UNL     1      35.373 -17.971 -22.925  0.00  0.00    -0.166 F 
ATOM     32  C   UNL     1      35.654 -17.939 -21.590  0.00  0.00    +0.419 C 
ENDBRANCH  26  32
ENDBRANCH  20  23
ENDBRANCH  17  19
ENDBRANCH   3  17
TORSDOF 10
ENDMDL
MODEL 2
REMARK VINA RESULT:     -12.1      1.445      2.020
REMARK  Name = 11711595
REMARK  10 active torsions:
REMARK  status: ('A' for Active; 'I' for Inactive)
REMARK    1  A    between atoms: C_1  and  C_9
REMARK    2  A    between atoms: C_3  and  C_17
REMARK    3  A    between atoms: C_5  and  O_7
REMARK    4  A    between atoms: C_9  and  C_10
REMARK    5  A    between atoms: C_10  and  C_12
REMARK    6  A    between atoms: C_10  and  C_15
REMARK    7  A    between atoms: C_12  and  O_13
REMARK    8  A    between atoms: C_17  and  N_19
REMARK    9  A    between atoms: C_20  and  C_23
REMARK   10  A    between atoms: C_26  and  C_32
REMARK                            x       y       z     vdW  Elec       q    Type
REMARK                         _______ _______ _______ _____ _____    ______ ____
ROOT
ATOM      1  C   UNL     1      35.783 -23.469 -14.058  0.00  0.00    -0.022 C 
ATOM      2  C   UNL     1      35.046 -23.390 -15.240  0.00  0.00    -0.004 C 
ATOM      3  C   UNL     1      33.652 -23.368 -15.192  0.00  0.00    +0.031 C 
ATOM      4  C   UNL     1      35.126 -23.526 -12.829  0.00  0.00    -0.001 C 
ATOM      5  C   UNL     1      32.995 -23.426 -13.962  0.00  0.00    +0.136 C 
ATOM      6  C   UNL     1      33.732 -23.504 -12.781  0.00  0.00    +0.036 C 
ENDROOT
BRANCH   5   7
ATOM      7  O   UNL     1      31.634 -23.406 -13.898  0.00  0.00    -0.472 OA
ATOM      8  C   UNL     1      30.985 -24.629 -13.556  0.00  0.00    +0.252 C 
ENDBRANCH   5   7
BRANCH   1   9
ATOM      9  C   UNL     1      37.293 -23.492 -14.110  0.00  0.00    +0.037 C 
BRANCH   9  10
ATOM     10  C   UNL     1      37.862 -24.830 -14.615  0.00  0.00    +0.103 C 
BRANCH  10  12
ATOM     11  O   UNL     1      40.086 -24.078 -13.969  0.00  0.00    -0.250 OA
ATOM     12  C   UNL     1      39.377 -24.727 -14.728  0.00  0.00    +0.314 C 
BRANCH  12  13
ATOM     13  O   UNL     1      39.876 -25.457 -15.758  0.00  0.00    -0.480 OA
ATOM     14  H   UNL     1      40.303 -25.028 -16.473  0.00  0.00    +0.295 HD
ENDBRANCH  12  13
ENDBRANCH  10  12
BRANCH  10  15
ATOM     15  C   UNL     1      37.479 -25.970 -13.653  0.00  0.00    +0.011 C 
ATOM     16  C   UNL     1      37.697 -25.600 -12.191  0.00  0.00    +0.001 C 
ENDBRANCH  10  15
ENDBRANCH   9  10
ENDBRANCH   1   9
BRANCH   3  17
ATOM     17  C   UNL     1      32.880 -23.284 -16.467  0.00  0.00    +0.120 C 
BRANCH  17  19
ATOM     18  O   UNL     1      33.368 -23.486 -19.289  0.00  0.00    -0.270 OA
ATOM     19  N   UNL     1      33.367 -22.240 -17.332  0.00  0.00    -0.297 N 
ATOM     20  C   UNL     1      33.573 -22.432 -18.691  0.00  0.00    +0.248 C 
ATOM     21  H   UNL     1      33.562 -21.357 -16.945  0.00  0.00    +0.150 HD
BRANCH  20  23
ATOM     22  F   UNL     1      31.909 -20.612 -20.068  0.00  0.00    -0.204 F 
ATOM     23  C   UNL     1      34.105 -21.265 -19.441  0.00  0.00    +0.081 C 
ATOM     24  C   UNL     1      33.233 -20.401 -20.101  0.00  0.00    +0.144 C 
ATOM     25  C   UNL     1      35.480 -21.035 -19.483  0.00  0.00    +0.007 C 
ATOM     26  C   UNL     1      35.109 -19.075 -20.845  0.00  0.00    +0.074 C 
ATOM     27  C   UNL     1      33.734 -19.305 -20.804  0.00  0.00    +0.034 C 
ATOM     28  C   UNL     1      35.982 -19.940 -20.186  0.00  0.00    +0.004 C 
BRANCH  26  32
ATOM     29  F   UNL     1      35.283 -17.883 -22.913  0.00  0.00    -0.166 F 
ATOM     30  F   UNL     1      35.238 -16.700 -21.096  0.00  0.00    -0.166 F 
ATOM     31  F   UNL     1      37.011 -17.857 -21.592  0.00  0.00    -0.166 F 
ATOM     32  C   UNL     1      35.646 -17.903 -21.596  0.00  0.00    +0.419 C 
ENDBRANCH  26  32
ENDBRANCH  20  23
ENDBRANCH  17  19
ENDBRANCH   3  17
TORSDOF 10
ENDMDL
MODEL 3
REMARK VINA RESULT:     -11.7      2.191      5.184
REMARK  Name = 11711595
REMARK  10 active torsions:
REMARK  status: ('A' for Active; 'I' for Inactive)
REMARK    1  A    between atoms: C_1  and  C_9
REMARK    2  A    between atoms: C_3  and  C_17
REMARK    3  A    between atoms: C_5  and  O_7
REMARK    4  A    between atoms: C_9  and  C_10
REMARK    5  A    between atoms: C_10  and  C_12
REMARK    6  A    between atoms: C_10  and  C_15
REMARK    7  A    between atoms: C_12  and  O_13
REMARK    8  A    between atoms: C_17  and  N_19
REMARK    9  A    between atoms: C_20  and  C_23
REMARK   10  A    between atoms: C_26  and  C_32
REMARK                            x       y       z     vdW  Elec       q    Type
REMARK                         _______ _______ _______ _____ _____    ______ ____
ROOT
ATOM      1  C   UNL     1      30.740 -22.431 -14.853  0.00  0.00    -0.022 C 
ATOM      2  C   UNL     1      31.783 -22.705 -15.740  0.00  0.00    -0.004 C 
ATOM      3  C   UNL     1      32.996 -23.198 -15.258  0.00  0.00    +0.031 C 
ATOM      4  C   UNL     1      30.911 -22.651 -13.487  0.00  0.00    -0.001 C 
ATOM      5  C   UNL     1      33.166 -23.418 -13.890  0.00  0.00    +0.136 C 
ATOM      6  C   UNL     1      32.124 -23.144 -13.005  0.00  0.00    +0.036 C 
ENDROOT
BRANCH   5   7
ATOM      7  O   UNL     1      34.345 -23.898 -13.404  0.00  0.00    -0.472 OA
ATOM      8  C   UNL     1      34.733 -23.465 -12.101  0.00  0.00    +0.252 C 
ENDBRANCH   5   7
BRANCH   1   9
ATOM      9  C   UNL     1      29.427 -21.898 -15.375  0.00  0.00    +0.037 C 
BRANCH   9  10
ATOM     10  C   UNL     1      28.317 -22.963 -15.429  0.00  0.00    +0.103 C 
BRANCH  10  12
ATOM     11  O   UNL     1      27.069 -23.558 -17.433  0.00  0.00    -0.250 OA
ATOM     12  C   UNL     1      27.421 -22.701 -16.631  0.00  0.00    +0.314 C 
BRANCH  12  13
ATOM     13  O   UNL     1      27.023 -21.407 -16.715  0.00  0.00    -0.480 OA
ATOM     14  H   UNL     1      26.524 -21.116 -17.454  0.00  0.00    +0.295 HD
ENDBRANCH  12  13
ENDBRANCH  10  12
BRANCH  10  15
ATOM     15  C   UNL     1      28.935 -24.371 -15.525  0.00  0.00    +0.011 C 
ATOM     16  C   UNL     1      28.581 -25.250 -14.332  0.00  0.00    +0.001 C 
ENDBRANCH  10  15
ENDBRANCH   9  10
ENDBRANCH   1   9
BRANCH   3  17
ATOM     17  C   UNL     1      34.101 -23.485 -16.220  0.00  0.00    +0.120 C 
BRANCH  17  19
ATOM     18  O   UNL     1      33.400 -23.393 -19.003  0.00  0.00    -0.270 OA
ATOM     19  N   UNL     1      34.330 -22.391 -17.129  0.00  0.00    -0.297 N 
ATOM     20  C   UNL     1      33.955 -22.438 -18.465  0.00  0.00    +0.248 C 
ATOM     21  H   UNL     1      34.771 -21.579 -16.790  0.00  0.00    +0.150 HD
BRANCH  20  23
ATOM     22  F   UNL     1      31.984 -20.843 -19.709  0.00  0.00    -0.204 F 
ATOM     23  C   UNL     1      34.286 -21.240 -19.278  0.00  0.00    +0.081 C 
ATOM     24  C   UNL     1      33.269 -20.491 -19.867  0.00  0.00    +0.144 C 
ATOM     25  C   UNL     1      35.618 -20.864 -19.450  0.00  0.00    +0.007 C 
ATOM     26  C   UNL     1      34.914 -18.989 -20.801  0.00  0.00    +0.074 C 
ATOM     27  C   UNL     1      33.582 -19.365 -20.629  0.00  0.00    +0.034 C 
ATOM     28  C   UNL     1      35.932 -19.739 -20.212  0.00  0.00    +0.004 C 
BRANCH  26  32
ATOM     29  F   UNL     1      36.566 -17.717 -21.975  0.00  0.00    -0.166 F 
ATOM     30  F   UNL     1      34.556 -17.709 -22.789  0.00  0.00    -0.166 F 
ATOM     31  F   UNL     1      34.988 -16.618 -20.958  0.00  0.00    -0.166 F 
ATOM     32  C   UNL     1      35.249 -17.785 -21.616  0.00  0.00    +0.419 C 
ENDBRANCH  26  32
ENDBRANCH  20  23
ENDBRANCH  17  19
ENDBRANCH   3  17
TORSDOF 10
ENDMDL
MODEL 4
REMARK VINA RESULT:     -11.6      1.745      2.337
REMARK  Name = 11711595
REMARK  10 active torsions:
REMARK  status: ('A' for Active; 'I' for Inactive)
REMARK    1  A    between atoms: C_1  and  C_9
REMARK    2  A    between atoms: C_3  and  C_17
REMARK    3  A    between atoms: C_5  and  O_7
REMARK    4  A    between atoms: C_9  and  C_10
REMARK    5  A    between atoms: C_10  and  C_12
REMARK    6  A    between atoms: C_10  and  C_15
REMARK    7  A    between atoms: C_12  and  O_13
REMARK    8  A    between atoms: C_17  and  N_19
REMARK    9  A    between atoms: C_20  and  C_23
REMARK   10  A    between atoms: C_26  and  C_32
REMARK                            x       y       z     vdW  Elec       q    Type
REMARK                         _______ _______ _______ _____ _____    ______ ____
ROOT
ATOM      1  C   UNL     1      34.058 -23.610 -14.158  0.00  0.00    -0.022 C 
ATOM      2  C   UNL     1      33.507 -23.470 -15.432  0.00  0.00    -0.004 C 
ATOM      3  C   UNL     1      32.166 -23.114 -15.576  0.00  0.00    +0.031 C 
ATOM      4  C   UNL     1      33.269 -23.393 -13.029  0.00  0.00    -0.001 C 
ATOM      5  C   UNL     1      31.376 -22.897 -14.446  0.00  0.00    +0.136 C 
ATOM      6  C   UNL     1      31.927 -23.037 -13.173  0.00  0.00    +0.036 C 
ENDROOT
BRANCH   5   7
ATOM      7  O   UNL     1      30.065 -22.548 -14.569  0.00  0.00    -0.472 OA
ATOM      8  C   UNL     1      29.110 -23.608 -14.561  0.00  0.00    +0.252 C 
ENDBRANCH   5   7
BRANCH   1   9
ATOM      9  C   UNL     1      35.510 -23.996 -14.002  0.00  0.00    +0.037 C 
BRANCH   9  10
ATOM     10  C   UNL     1      36.454 -22.783 -13.911  0.00  0.00    +0.103 C 
BRANCH  10  12
ATOM     11  O   UNL     1      38.249 -23.469 -12.415  0.00  0.00    -0.250 OA
ATOM     12  C   UNL     1      37.218 -22.832 -12.595  0.00  0.00    +0.314 C 
BRANCH  12  13
ATOM     13  O   UNL     1      36.647 -22.068 -11.629  0.00  0.00    -0.480 OA
ATOM     14  H   UNL     1      35.752 -22.207 -11.389  0.00  0.00    +0.295 HD
ENDBRANCH  12  13
ENDBRANCH  10  12
BRANCH  10  15
ATOM     15  C   UNL     1      37.439 -22.786 -15.095  0.00  0.00    +0.011 C 
ATOM     16  C   UNL     1      37.002 -21.859 -16.223  0.00  0.00    +0.001 C 
ENDBRANCH  10  15
ENDBRANCH   9  10
ENDBRANCH   1   9
BRANCH   3  17
ATOM     17  C   UNL     1      31.593 -22.969 -16.947  0.00  0.00    +0.120 C 
BRANCH  17  19
ATOM     18  O   UNL     1      33.359 -23.510 -19.145  0.00  0.00    -0.270 OA
ATOM     19  N   UNL     1      32.306 -21.998 -17.736  0.00  0.00    -0.297 N 
ATOM     20  C   UNL     1      33.142 -22.356 -18.785  0.00  0.00    +0.248 C 
ATOM     21  H   UNL     1      32.197 -21.043 -17.524  0.00  0.00    +0.150 HD
BRANCH  20  23
ATOM     22  F   UNL     1      31.761 -20.471 -20.372  0.00  0.00    -0.204 F 
ATOM     23  C   UNL     1      33.827 -21.238 -19.484  0.00  0.00    +0.081 C 
ATOM     24  C   UNL     1      33.091 -20.338 -20.254  0.00  0.00    +0.144 C 
ATOM     25  C   UNL     1      35.209 -21.090 -19.369  0.00  0.00    +0.007 C 
ATOM     26  C   UNL     1      35.117 -19.140 -20.792  0.00  0.00    +0.074 C 
ATOM     27  C   UNL     1      33.735 -19.288 -20.908  0.00  0.00    +0.034 C 
ATOM     28  C   UNL     1      35.854 -20.041 -20.023  0.00  0.00    +0.004 C 
BRANCH  26  32
ATOM     29  F   UNL     1      35.358 -16.782 -21.120  0.00  0.00    -0.166 F 
ATOM     30  F   UNL     1      37.156 -17.986 -21.277  0.00  0.00    -0.166 F 
ATOM     31  F   UNL     1      35.654 -18.071 -22.847  0.00  0.00    -0.166 F 
ATOM     32  C   UNL     1      35.808 -18.018 -21.492  0.00  0.00    +0.419 C 
ENDBRANCH  26  32
ENDBRANCH  20  23
ENDBRANCH  17  19
ENDBRANCH   3  17
TORSDOF 10
ENDMDL
MODEL 5
REMARK VINA RESULT:     -11.2      9.068     12.808
REMARK  Name = 11711595
REMARK  10 active torsions:
REMARK  status: ('A' for Active; 'I' for Inactive)
REMARK    1  A    between atoms: C_1  and  C_9
REMARK    2  A    between atoms: C_3  and  C_17
REMARK    3  A    between atoms: C_5  and  O_7
REMARK    4  A    between atoms: C_9  and  C_10
REMARK    5  A    between atoms: C_10  and  C_12
REMARK    6  A    between atoms: C_10  and  C_15
REMARK    7  A    between atoms: C_12  and  O_13
REMARK    8  A    between atoms: C_17  and  N_19
REMARK    9  A    between atoms: C_20  and  C_23
REMARK   10  A    between atoms: C_26  and  C_32
REMARK                            x       y       z     vdW  Elec       q    Type
REMARK                         _______ _______ _______ _____ _____    ______ ____
ROOT
ATOM      1  C   UNL     1      34.025 -15.271 -21.421  0.00  0.00    -0.022 C 
ATOM      2  C   UNL     1      33.225 -14.424 -20.652  0.00  0.00    -0.004 C 
ATOM      3  C   UNL     1      32.708 -13.255 -21.211  0.00  0.00    +0.031 C 
ATOM      4  C   UNL     1      34.307 -14.948 -22.748  0.00  0.00    -0.001 C 
ATOM      5  C   UNL     1      32.991 -12.933 -22.539  0.00  0.00    +0.136 C 
ATOM      6  C   UNL     1      33.790 -13.779 -23.307  0.00  0.00    +0.036 C 
ENDROOT
BRANCH   5   7
ATOM      7  O   UNL     1      32.495 -11.795 -23.100  0.00  0.00    -0.472 OA
ATOM      8  C   UNL     1      33.427 -10.933 -23.749  0.00  0.00    +0.252 C 
ENDBRANCH   5   7
BRANCH   1   9
ATOM      9  C   UNL     1      34.585 -16.536 -20.816  0.00  0.00    +0.037 C 
BRANCH   9  10
ATOM     10  C   UNL     1      35.228 -17.473 -21.855  0.00  0.00    +0.103 C 
BRANCH  10  12
ATOM     11  O   UNL     1      36.544 -18.608 -20.148  0.00  0.00    -0.250 OA
ATOM     12  C   UNL     1      36.481 -18.103 -21.263  0.00  0.00    +0.314 C 
BRANCH  12  13
ATOM     13  O   UNL     1      37.536 -18.072 -22.116  0.00  0.00    -0.480 OA
ATOM     14  H   UNL     1      37.434 -18.369 -22.999  0.00  0.00    +0.295 HD
ENDBRANCH  12  13
ENDBRANCH  10  12
BRANCH  10  15
ATOM     15  C   UNL     1      34.230 -18.570 -22.273  0.00  0.00    +0.011 C 
ATOM     16  C   UNL     1      33.758 -18.415 -23.713  0.00  0.00    +0.001 C 
ENDBRANCH  10  15
ENDBRANCH   9  10
ENDBRANCH   1   9
BRANCH   3  17
ATOM     17  C   UNL     1      31.855 -12.362 -20.374  0.00  0.00    +0.120 C 
BRANCH  17  19
ATOM     18  O   UNL     1      31.068 -10.031 -18.893  0.00  0.00    -0.270 OA
ATOM     19  N   UNL     1      31.865 -11.000 -20.844  0.00  0.00    -0.297 N 
ATOM     20  C   UNL     1      31.464  -9.933 -20.051  0.00  0.00    +0.248 C 
ATOM     21  H   UNL     1      32.167 -10.819 -21.763  0.00  0.00    +0.150 HD
BRANCH  20  23
ATOM     22  F   UNL     1      30.428  -9.438 -22.632  0.00  0.00    -0.204 F 
ATOM     23  C   UNL     1      31.507  -8.593 -20.691  0.00  0.00    +0.081 C 
ATOM     24  C   UNL     1      30.978  -8.410 -21.969  0.00  0.00    +0.144 C 
ATOM     25  C   UNL     1      32.077  -7.517 -20.011  0.00  0.00    +0.007 C 
ATOM     26  C   UNL     1      31.588  -6.075 -21.887  0.00  0.00    +0.074 C 
ATOM     27  C   UNL     1      31.018  -7.151 -22.567  0.00  0.00    +0.034 C 
ATOM     28  C   UNL     1      32.118  -6.257 -20.610  0.00  0.00    +0.004 C 
BRANCH  26  32
ATOM     29  F   UNL     1      32.760  -4.508 -23.265  0.00  0.00    -0.166 F 
ATOM     30  F   UNL     1      30.594  -4.496 -23.384  0.00  0.00    -0.166 F 
ATOM     31  F   UNL     1      31.587  -3.712 -21.615  0.00  0.00    -0.166 F 
ATOM     32  C   UNL     1      31.631  -4.727 -22.526  0.00  0.00    +0.419 C 
ENDBRANCH  26  32
ENDBRANCH  20  23
ENDBRANCH  17  19
ENDBRANCH   3  17
TORSDOF 10
ENDMDL
MODEL 6
REMARK VINA RESULT:     -10.9      9.710     14.542
REMARK  Name = 11711595
REMARK  10 active torsions:
REMARK  status: ('A' for Active; 'I' for Inactive)
REMARK    1  A    between atoms: C_1  and  C_9
REMARK    2  A    between atoms: C_3  and  C_17
REMARK    3  A    between atoms: C_5  and  O_7
REMARK    4  A    between atoms: C_9  and  C_10
REMARK    5  A    between atoms: C_10  and  C_12
REMARK    6  A    between atoms: C_10  and  C_15
REMARK    7  A    between atoms: C_12  and  O_13
REMARK    8  A    between atoms: C_17  and  N_19
REMARK    9  A    between atoms: C_20  and  C_23
REMARK   10  A    between atoms: C_26  and  C_32
REMARK                            x       y       z     vdW  Elec       q    Type
REMARK                         _______ _______ _______ _____ _____    ______ ____
ROOT
ATOM      1  C   UNL     1      31.965  -7.970 -21.331  0.00  0.00    -0.022 C 
ATOM      2  C   UNL     1      32.332  -8.693 -22.468  0.00  0.00    -0.004 C 
ATOM      3  C   UNL     1      32.060 -10.059 -22.542  0.00  0.00    +0.031 C 
ATOM      4  C   UNL     1      31.327  -8.613 -20.272  0.00  0.00    -0.001 C 
ATOM      5  C   UNL     1      31.422 -10.703 -21.481  0.00  0.00    +0.136 C 
ATOM      6  C   UNL     1      31.055  -9.980 -20.346  0.00  0.00    +0.036 C 
ENDROOT
BRANCH   5   7
ATOM      7  O   UNL     1      31.150 -12.036 -21.538  0.00  0.00    -0.472 OA
ATOM      8  C   UNL     1      31.596 -12.835 -20.444  0.00  0.00    +0.252 C 
ENDBRANCH   5   7
BRANCH   1   9
ATOM      9  C   UNL     1      32.259  -6.491 -21.250  0.00  0.00    +0.037 C 
BRANCH   9  10
ATOM     10  C   UNL     1      31.495  -5.661 -22.300  0.00  0.00    +0.103 C 
BRANCH  10  12
ATOM     11  O   UNL     1      29.401  -4.433 -22.099  0.00  0.00    -0.250 OA
ATOM     12  C   UNL     1      30.464  -4.785 -21.602  0.00  0.00    +0.314 C 
BRANCH  12  13
ATOM     13  O   UNL     1      30.834  -4.444 -20.341  0.00  0.00    -0.480 OA
ATOM     14  H   UNL     1      30.707  -5.047 -19.635  0.00  0.00    +0.295 HD
ENDBRANCH  12  13
ENDBRANCH  10  12
BRANCH  10  15
ATOM     15  C   UNL     1      32.476  -4.788 -23.104  0.00  0.00    +0.011 C 
ATOM     16  C   UNL     1      33.783  -5.506 -23.413  0.00  0.00    +0.001 C 
ENDBRANCH  10  15
ENDBRANCH   9  10
ENDBRANCH   1   9
BRANCH   3  17
ATOM     17  C   UNL     1      32.460 -10.816 -23.765  0.00  0.00    +0.120 C 
BRANCH  17  19
ATOM     18  O   UNL     1      32.498 -13.101 -25.503  0.00  0.00    -0.270 OA
ATOM     19  N   UNL     1      32.972 -12.126 -23.452  0.00  0.00    -0.297 N 
ATOM     20  C   UNL     1      32.947 -13.175 -24.362  0.00  0.00    +0.248 C 
ATOM     21  H   UNL     1      33.353 -12.284 -22.559  0.00  0.00    +0.150 HD
BRANCH  20  23
ATOM     22  F   UNL     1      34.209 -13.462 -21.851  0.00  0.00    -0.204 F 
ATOM     23  C   UNL     1      33.488 -14.471 -23.878  0.00  0.00    +0.081 C 
ATOM     24  C   UNL     1      34.100 -14.551 -22.627  0.00  0.00    +0.144 C 
ATOM     25  C   UNL     1      33.381 -15.609 -24.676  0.00  0.00    +0.007 C 
ATOM     26  C   UNL     1      34.499 -16.907 -22.973  0.00  0.00    +0.074 C 
ATOM     27  C   UNL     1      34.606 -15.769 -22.174  0.00  0.00    +0.034 C 
ATOM     28  C   UNL     1      33.887 -16.828 -24.224  0.00  0.00    +0.004 C 
BRANCH  26  32
ATOM     29  F   UNL     1      34.620 -19.284 -23.222  0.00  0.00    -0.166 F 
ATOM     30  F   UNL     1      36.404 -18.278 -22.509  0.00  0.00    -0.166 F 
ATOM     31  F   UNL     1      34.679 -18.483 -21.201  0.00  0.00    -0.166 F 
ATOM     32  C   UNL     1      35.040 -18.211 -22.489  0.00  0.00    +0.419 C 
ENDBRANCH  26  32
ENDBRANCH  20  23
ENDBRANCH  17  19
ENDBRANCH   3  17
TORSDOF 10
ENDMDL
MODEL 7
REMARK VINA RESULT:     -10.8      8.572     13.443
REMARK  Name = 11711595
REMARK  10 active torsions:
REMARK  status: ('A' for Active; 'I' for Inactive)
REMARK    1  A    between atoms: C_1  and  C_9
REMARK    2  A    between atoms: C_3  and  C_17
REMARK    3  A    between atoms: C_5  and  O_7
REMARK    4  A    between atoms: C_9  and  C_10
REMARK    5  A    between atoms: C_10  and  C_12
REMARK    6  A    between atoms: C_10  and  C_15
REMARK    7  A    between atoms: C_12  and  O_13
REMARK    8  A    between atoms: C_17  and  N_19
REMARK    9  A    between atoms: C_20  and  C_23
REMARK   10  A    between atoms: C_26  and  C_32
REMARK                            x       y       z     vdW  Elec       q    Type
REMARK                         _______ _______ _______ _____ _____    ______ ____
ROOT
ATOM      1  C   UNL     1      31.598  -9.475 -22.517  0.00  0.00    -0.022 C 
ATOM      2  C   UNL     1      32.319 -10.344 -23.337  0.00  0.00    -0.004 C 
ATOM      3  C   UNL     1      32.484 -11.679 -22.966  0.00  0.00    +0.031 C 
ATOM      4  C   UNL     1      31.043  -9.942 -21.326  0.00  0.00    -0.001 C 
ATOM      5  C   UNL     1      31.928 -12.145 -21.774  0.00  0.00    +0.136 C 
ATOM      6  C   UNL     1      31.208 -11.277 -20.954  0.00  0.00    +0.036 C 
ENDROOT
BRANCH   5   7
ATOM      7  O   UNL     1      32.080 -13.445 -21.396  0.00  0.00    -0.472 OA
ATOM      8  C   UNL     1      31.997 -13.728 -20.001  0.00  0.00    +0.252 C 
ENDBRANCH   5   7
BRANCH   1   9
ATOM      9  C   UNL     1      31.420  -8.031 -22.919  0.00  0.00    +0.037 C 
BRANCH   9  10
ATOM     10  C   UNL     1      31.252  -7.082 -21.717  0.00  0.00    +0.103 C 
BRANCH  10  12
ATOM     11  O   UNL     1      33.565  -6.322 -21.787  0.00  0.00    -0.250 OA
ATOM     12  C   UNL     1      32.620  -6.753 -21.136  0.00  0.00    +0.314 C 
BRANCH  12  13
ATOM     13  O   UNL     1      32.685  -6.963 -19.797  0.00  0.00    -0.480 OA
ATOM     14  H   UNL     1      33.253  -6.440 -19.266  0.00  0.00    +0.295 HD
ENDBRANCH  12  13
ENDBRANCH  10  12
BRANCH  10  15
ATOM     15  C   UNL     1      30.537  -5.791 -22.154  0.00  0.00    +0.011 C 
ATOM     16  C   UNL     1      30.387  -4.789 -21.016  0.00  0.00    +0.001 C 
ENDBRANCH  10  15
ENDBRANCH   9  10
ENDBRANCH   1   9
BRANCH   3  17
ATOM     17  C   UNL     1      33.258 -12.593 -23.856  0.00  0.00    +0.120 C 
BRANCH  17  19
ATOM     18  O   UNL     1      33.740 -15.122 -25.126  0.00  0.00    -0.270 OA
ATOM     19  N   UNL     1      33.595 -13.833 -23.204  0.00  0.00    -0.297 N 
ATOM     20  C   UNL     1      33.811 -15.012 -23.905  0.00  0.00    +0.248 C 
ATOM     21  H   UNL     1      33.675 -13.845 -22.223  0.00  0.00    +0.150 HD
BRANCH  20  23
ATOM     22  F   UNL     1      33.422 -17.648 -24.842  0.00  0.00    -0.204 F 
ATOM     23  C   UNL     1      34.123 -16.210 -23.085  0.00  0.00    +0.081 C 
ATOM     24  C   UNL     1      33.910 -17.488 -23.603  0.00  0.00    +0.144 C 
ATOM     25  C   UNL     1      34.631 -16.056 -21.795  0.00  0.00    +0.007 C 
ATOM     26  C   UNL     1      34.714 -18.457 -21.542  0.00  0.00    +0.074 C 
ATOM     27  C   UNL     1      34.206 -18.612 -22.832  0.00  0.00    +0.034 C 
ATOM     28  C   UNL     1      34.926 -17.180 -21.023  0.00  0.00    +0.004 C 
BRANCH  26  32
ATOM     29  F   UNL     1      35.097 -20.817 -21.439  0.00  0.00    -0.166 F 
ATOM     30  F   UNL     1      36.228 -19.576 -20.066  0.00  0.00    -0.166 F 
ATOM     31  F   UNL     1      34.100 -19.887 -19.744  0.00  0.00    -0.166 F 
ATOM     32  C   UNL     1      35.030 -19.659 -20.717  0.00  0.00    +0.419 C 
ENDBRANCH  26  32
ENDBRANCH  20  23
ENDBRANCH  17  19
ENDBRANCH   3  17
TORSDOF 10
ENDMDL
MODEL 8
REMARK VINA RESULT:     -10.8      9.792     14.647
REMARK  Name = 11711595
REMARK  10 active torsions:
REMARK  status: ('A' for Active; 'I' for Inactive)
REMARK    1  A    between atoms: C_1  and  C_9
REMARK    2  A    between atoms: C_3  and  C_17
REMARK    3  A    between atoms: C_5  and  O_7
REMARK    4  A    between atoms: C_9  and  C_10
REMARK    5  A    between atoms: C_10  and  C_12
REMARK    6  A    between atoms: C_10  and  C_15
REMARK    7  A    between atoms: C_12  and  O_13
REMARK    8  A    between atoms: C_17  and  N_19
REMARK    9  A    between atoms: C_20  and  C_23
REMARK   10  A    between atoms: C_26  and  C_32
REMARK                            x       y       z     vdW  Elec       q    Type
REMARK                         _______ _______ _______ _____ _____    ______ ____
ROOT
ATOM      1  C   UNL     1      31.947  -7.774 -21.310  0.00  0.00    -0.022 C 
ATOM      2  C   UNL     1      32.385  -8.546 -22.387  0.00  0.00    -0.004 C 
ATOM      3  C   UNL     1      32.092  -9.910 -22.431  0.00  0.00    +0.031 C 
ATOM      4  C   UNL     1      31.219  -8.365 -20.278  0.00  0.00    -0.001 C 
ATOM      5  C   UNL     1      31.363 -10.501 -21.398  0.00  0.00    +0.136 C 
ATOM      6  C   UNL     1      30.927  -9.729 -20.322  0.00  0.00    +0.036 C 
ENDROOT
BRANCH   5   7
ATOM      7  O   UNL     1      31.070 -11.831 -21.425  0.00  0.00    -0.472 OA
ATOM      8  C   UNL     1      31.575 -12.628 -20.355  0.00  0.00    +0.252 C 
ENDBRANCH   5   7
BRANCH   1   9
ATOM      9  C   UNL     1      32.264  -6.298 -21.262  0.00  0.00    +0.037 C 
BRANCH   9  10
ATOM     10  C   UNL     1      31.618  -5.501 -22.412  0.00  0.00    +0.103 C 
BRANCH  10  12
ATOM     11  O   UNL     1      29.674  -4.039 -22.518  0.00  0.00    -0.250 OA
ATOM     12  C   UNL     1      30.549  -4.575 -21.849  0.00  0.00    +0.314 C 
BRANCH  12  13
ATOM     13  O   UNL     1      30.648  -4.416 -20.505  0.00  0.00    -0.480 OA
ATOM     14  H   UNL     1      31.463  -4.581 -20.072  0.00  0.00    +0.295 HD
ENDBRANCH  12  13
ENDBRANCH  10  12
BRANCH  10  15
ATOM     15  C   UNL     1      32.688  -4.683 -23.159  0.00  0.00    +0.011 C 
ATOM     16  C   UNL     1      33.735  -5.563 -23.831  0.00  0.00    +0.001 C 
ENDBRANCH  10  15
ENDBRANCH   9  10
ENDBRANCH   1   9
BRANCH   3  17
ATOM     17  C   UNL     1      32.568 -10.721 -23.590  0.00  0.00    +0.120 C 
BRANCH  17  19
ATOM     18  O   UNL     1      32.541 -13.146 -25.126  0.00  0.00    -0.270 OA
ATOM     19  N   UNL     1      33.087 -12.002 -23.184  0.00  0.00    -0.297 N 
ATOM     20  C   UNL     1      33.028 -13.124 -23.999  0.00  0.00    +0.248 C 
ATOM     21  H   UNL     1      33.498 -12.085 -22.294  0.00  0.00    +0.150 HD
BRANCH  20  23
ATOM     22  F   UNL     1      33.387 -15.476 -25.521  0.00  0.00    -0.204 F 
ATOM     23  C   UNL     1      33.582 -14.377 -23.424  0.00  0.00    +0.081 C 
ATOM     24  C   UNL     1      33.736 -15.507 -24.226  0.00  0.00    +0.144 C 
ATOM     25  C   UNL     1      33.949 -14.421 -22.079  0.00  0.00    +0.007 C 
ATOM     26  C   UNL     1      34.625 -16.726 -22.340  0.00  0.00    +0.074 C 
ATOM     27  C   UNL     1      34.258 -16.682 -23.685  0.00  0.00    +0.034 C 
ATOM     28  C   UNL     1      34.470 -15.596 -21.537  0.00  0.00    +0.004 C 
BRANCH  26  32
ATOM     29  F   UNL     1      36.445 -17.839 -21.256  0.00  0.00    -0.166 F 
ATOM     30  F   UNL     1      34.442 -18.484 -20.728  0.00  0.00    -0.166 F 
ATOM     31  F   UNL     1      35.267 -18.990 -22.676  0.00  0.00    -0.166 F 
ATOM     32  C   UNL     1      35.183 -17.982 -21.760  0.00  0.00    +0.419 C 
ENDBRANCH  26  32
ENDBRANCH  20  23
ENDBRANCH  17  19
ENDBRANCH   3  17
TORSDOF 10
ENDMDL
MODEL 9
REMARK VINA RESULT:     -10.7      2.029      4.807
REMARK  Name = 11711595
REMARK  10 active torsions:
REMARK  status: ('A' for Active; 'I' for Inactive)
REMARK    1  A    between atoms: C_1  and  C_9
REMARK    2  A    between atoms: C_3  and  C_17
REMARK    3  A    between atoms: C_5  and  O_7
REMARK    4  A    between atoms: C_9  and  C_10
REMARK    5  A    between atoms: C_10  and  C_12
REMARK    6  A    between atoms: C_10  and  C_15
REMARK    7  A    between atoms: C_12  and  O_13
REMARK    8  A    between atoms: C_17  and  N_19
REMARK    9  A    between atoms: C_20  and  C_23
REMARK   10  A    between atoms: C_26  and  C_32
REMARK                            x       y       z     vdW  Elec       q    Type
REMARK                         _______ _______ _______ _____ _____    ______ ____
ROOT
ATOM      1  C   UNL     1      30.800 -22.589 -14.693  0.00  0.00    -0.022 C 
ATOM      2  C   UNL     1      31.811 -22.839 -15.622  0.00  0.00    -0.004 C 
ATOM      3  C   UNL     1      33.101 -23.140 -15.184  0.00  0.00    +0.031 C 
ATOM      4  C   UNL     1      31.080 -22.640 -13.327  0.00  0.00    -0.001 C 
ATOM      5  C   UNL     1      33.380 -23.191 -13.818  0.00  0.00    +0.136 C 
ATOM      6  C   UNL     1      32.370 -22.941 -12.890  0.00  0.00    +0.036 C 
ENDROOT
BRANCH   5   7
ATOM      7  O   UNL     1      34.635 -23.483 -13.374  0.00  0.00    -0.472 OA
ATOM      8  C   UNL     1      34.824 -23.546 -11.962  0.00  0.00    +0.252 C 
ENDBRANCH   5   7
BRANCH   1   9
ATOM      9  C   UNL     1      29.404 -22.262 -15.166  0.00  0.00    +0.037 C 
BRANCH   9  10
ATOM     10  C   UNL     1      28.756 -23.401 -15.976  0.00  0.00    +0.103 C 
BRANCH  10  12
ATOM     11  O   UNL     1      27.970 -24.810 -14.153  0.00  0.00    -0.250 OA
ATOM     12  C   UNL     1      28.700 -24.662 -15.125  0.00  0.00    +0.314 C 
BRANCH  12  13
ATOM     13  O   UNL     1      29.538 -25.632 -15.571  0.00  0.00    -0.480 OA
ATOM     14  H   UNL     1      29.629 -26.431 -15.089  0.00  0.00    +0.295 HD
ENDBRANCH  12  13
ENDBRANCH  10  12
BRANCH  10  15
ATOM     15  C   UNL     1      27.337 -22.998 -16.420  0.00  0.00    +0.011 C 
ATOM     16  C   UNL     1      26.732 -21.914 -15.536  0.00  0.00    +0.001 C 
ENDBRANCH  10  15
ENDBRANCH   9  10
ENDBRANCH   1   9
BRANCH   3  17
ATOM     17  C   UNL     1      34.170 -23.404 -16.192  0.00  0.00    +0.120 C 
BRANCH  17  19
ATOM     18  O   UNL     1      33.381 -23.408 -18.952  0.00  0.00    -0.270 OA
ATOM     19  N   UNL     1      34.316 -22.320 -17.129  0.00  0.00    -0.297 N 
ATOM     20  C   UNL     1      33.903 -22.415 -18.452  0.00  0.00    +0.248 C 
ATOM     21  H   UNL     1      34.725 -21.480 -16.821  0.00  0.00    +0.150 HD
BRANCH  20  23
ATOM     22  F   UNL     1      36.496 -21.445 -19.013  0.00  0.00    -0.204 F 
ATOM     23  C   UNL     1      34.148 -21.219 -19.299  0.00  0.00    +0.081 C 
ATOM     24  C   UNL     1      35.452 -20.788 -19.541  0.00  0.00    +0.144 C 
ATOM     25  C   UNL     1      33.071 -20.528 -19.853  0.00  0.00    +0.007 C 
ATOM     26  C   UNL     1      34.603 -18.976 -20.892  0.00  0.00    +0.074 C 
ATOM     27  C   UNL     1      35.680 -19.667 -20.338  0.00  0.00    +0.034 C 
ATOM     28  C   UNL     1      33.298 -19.406 -20.649  0.00  0.00    +0.004 C 
BRANCH  26  32
ATOM     29  F   UNL     1      34.649 -16.592 -21.092  0.00  0.00    -0.166 F 
ATOM     30  F   UNL     1      36.117 -17.704 -22.237  0.00  0.00    -0.166 F 
ATOM     31  F   UNL     1      34.027 -17.733 -22.836  0.00  0.00    -0.166 F 
ATOM     32  C   UNL     1      34.846 -17.776 -21.745  0.00  0.00    +0.419 C 
ENDBRANCH  26  32
ENDBRANCH  20  23
ENDBRANCH  17  19
ENDBRANCH   3  17
TORSDOF 10
ENDMDL
