MODEL 1
REMARK VINA RESULT:     -11.6      0.000      0.000
REMARK  Name = 5042
REMARK  6 active torsions:
REMARK  status: ('A' for Active; 'I' for Inactive)
REMARK    1  A    between atoms: CA_1  and  N_3
REMARK    2  A    between atoms: CA_1  and  C_14
REMARK    3  A    between atoms: CA_1  and  C_17
REMARK    4  A    between atoms: C_4  and  C_7
REMARK    5  A    between atoms: C_14  and  O_15
REMARK    6  A    between atoms: C_17  and  C_20
REMARK                            x       y       z     vdW  Elec       q    Type
REMARK                         _______ _______ _______ _____ _____    ______ ____
ROOT
ATOM      1  CA  UNL     1      32.970 -23.171 -15.955  0.00  0.00    +0.176 C 
ENDROOT
BRANCH   1   3
ATOM      2  O   UNL     1      33.172 -23.493 -18.784  0.00  0.00    -0.270 OA
ATOM      3  N   UNL     1      33.510 -22.217 -16.890  0.00  0.00    -0.293 N 
ATOM      4  C   UNL     1      33.578 -22.444 -18.282  0.00  0.00    +0.246 C 
ATOM      5  H   UNL     1      33.850 -21.361 -16.541  0.00  0.00    +0.150 HD
BRANCH   4   7
ATOM      6 CL   UNL     1      35.815 -18.044 -21.631  0.00  0.00    -0.082 Cl
ATOM      7  C   UNL     1      34.129 -21.362 -19.107  0.00  0.00    +0.053 C 
ATOM      8  C   UNL     1      33.274 -20.589 -19.879  0.00  0.00    +0.005 C 
ATOM      9  C   UNL     1      35.497 -21.127 -19.102  0.00  0.00    +0.005 C 
ATOM     10  C   UNL     1      33.797 -19.560 -20.662  0.00  0.00    +0.012 C 
ATOM     11  C   UNL     1      36.020 -20.098 -19.885  0.00  0.00    +0.012 C 
ATOM     12  C   UNL     1      35.169 -19.314 -20.664  0.00  0.00    +0.058 C 
ENDBRANCH   4   7
ENDBRANCH   1   3
BRANCH   1  14
ATOM     13  OXT UNL     1      30.869 -23.408 -14.779  0.00  0.00    -0.248 OA
ATOM     14  C   UNL     1      31.466 -23.020 -15.777  0.00  0.00    +0.332 C 
BRANCH  14  15
ATOM     15  O   UNL     1      30.836 -22.410 -16.810  0.00  0.00    -0.479 OA
ATOM     16  H   UNL     1      30.141 -22.850 -17.260  0.00  0.00    +0.295 HD
ENDBRANCH  14  15
ENDBRANCH   1  14
BRANCH   1  17
ATOM     17  C   UNL     1      33.716 -23.126 -14.619  0.00  0.00    +0.058 C 
BRANCH  17  20
ATOM     18  O   UNL     1      36.099 -27.087 -16.019  0.00  0.00    -0.270 OA
ATOM     19  N   UNL     1      37.034 -25.871 -14.305  0.00  0.00    -0.280 N 
ATOM     20  C   UNL     1      34.867 -24.085 -14.518  0.00  0.00    -0.014 C 
ATOM     21  C   UNL     1      35.928 -23.855 -13.513  0.00  0.00    +0.010 C 
ATOM     22  C   UNL     1      36.991 -24.767 -13.436  0.00  0.00    +0.050 C 
ATOM     23  C   UNL     1      34.947 -25.153 -15.328  0.00  0.00    +0.054 C 
ATOM     24  C   UNL     1      35.922 -22.767 -12.629  0.00  0.00    +0.001 C 
ATOM     25  C   UNL     1      36.069 -26.124 -15.255  0.00  0.00    +0.249 C 
ATOM     26  C   UNL     1      38.023 -24.600 -12.506  0.00  0.00    +0.015 C 
ATOM     27  C   UNL     1      36.952 -22.598 -11.698  0.00  0.00    +0.000 C 
ATOM     28  C   UNL     1      38.000 -23.513 -11.636  0.00  0.00    +0.001 C 
ATOM     29  H   UNL     1      37.791 -26.495 -14.231  0.00  0.00    +0.155 HD
ENDBRANCH  17  20
ENDBRANCH   1  17
TORSDOF 6
ENDMDL
MODEL 2
REMARK VINA RESULT:     -11.5      1.870      2.556
REMARK  Name = 5042
REMARK  6 active torsions:
REMARK  status: ('A' for Active; 'I' for Inactive)
REMARK    1  A    between atoms: CA_1  and  N_3
REMARK    2  A    between atoms: CA_1  and  C_14
REMARK    3  A    between atoms: CA_1  and  C_17
REMARK    4  A    between atoms: C_4  and  C_7
REMARK    5  A    between atoms: C_14  and  O_15
REMARK    6  A    between atoms: C_17  and  C_20
REMARK                            x       y       z     vdW  Elec       q    Type
REMARK                         _______ _______ _______ _____ _____    ______ ____
ROOT
ATOM      1  CA  UNL     1      32.818 -23.171 -16.431  0.00  0.00    +0.176 C 
ENDROOT
BRANCH   1   3
ATOM      2  O   UNL     1      33.375 -23.457 -19.216  0.00  0.00    -0.270 OA
ATOM      3  N   UNL     1      33.332 -22.153 -17.312  0.00  0.00    -0.293 N 
ATOM      4  C   UNL     1      33.584 -22.366 -18.684  0.00  0.00    +0.246 C 
ATOM      5  H   UNL     1      33.517 -21.261 -16.937  0.00  0.00    +0.150 HD
BRANCH   4   7
ATOM      6 CL   UNL     1      35.602 -17.713 -21.824  0.00  0.00    -0.082 Cl
ATOM      7  C   UNL     1      34.080 -21.220 -19.456  0.00  0.00    +0.053 C 
ATOM      8  C   UNL     1      35.446 -20.986 -19.529  0.00  0.00    +0.005 C 
ATOM      9  C   UNL     1      33.177 -20.388 -20.102  0.00  0.00    +0.005 C 
ATOM     10  C   UNL     1      35.918 -19.898 -20.263  0.00  0.00    +0.012 C 
ATOM     11  C   UNL     1      33.649 -19.300 -20.837  0.00  0.00    +0.012 C 
ATOM     12  C   UNL     1      35.019 -19.056 -20.918  0.00  0.00    +0.058 C 
ENDBRANCH   4   7
ENDBRANCH   1   3
BRANCH   1  14
ATOM     13  OXT UNL     1      30.736 -23.627 -15.284  0.00  0.00    -0.248 OA
ATOM     14  C   UNL     1      31.331 -23.002 -16.156  0.00  0.00    +0.332 C 
BRANCH  14  15
ATOM     15  O   UNL     1      30.711 -22.093 -16.946  0.00  0.00    -0.479 OA
ATOM     16  H   UNL     1      31.164 -21.723 -17.679  0.00  0.00    +0.295 HD
ENDBRANCH  14  15
ENDBRANCH   1  14
BRANCH   1  17
ATOM     17  C   UNL     1      33.637 -23.258 -15.141  0.00  0.00    +0.058 C 
BRANCH  17  20
ATOM     18  O   UNL     1      37.321 -20.480 -16.569  0.00  0.00    -0.270 OA
ATOM     19  N   UNL     1      37.860 -22.515 -15.642  0.00  0.00    -0.280 N 
ATOM     20  C   UNL     1      35.104 -22.990 -15.318  0.00  0.00    -0.014 C 
ATOM     21  C   UNL     1      36.092 -24.001 -14.883  0.00  0.00    +0.010 C 
ATOM     22  C   UNL     1      37.457 -23.729 -15.061  0.00  0.00    +0.050 C 
ATOM     23  C   UNL     1      35.533 -21.844 -15.869  0.00  0.00    +0.054 C 
ATOM     24  C   UNL     1      35.731 -25.224 -14.300  0.00  0.00    +0.001 C 
ATOM     25  C   UNL     1      36.976 -21.545 -16.061  0.00  0.00    +0.249 C 
ATOM     26  C   UNL     1      38.436 -24.648 -14.668  0.00  0.00    +0.015 C 
ATOM     27  C   UNL     1      36.708 -26.145 -13.907  0.00  0.00    +0.000 C 
ATOM     28  C   UNL     1      38.058 -25.857 -14.091  0.00  0.00    +0.001 C 
ATOM     29  H   UNL     1      38.823 -22.347 -15.755  0.00  0.00    +0.155 HD
ENDBRANCH  17  20
ENDBRANCH   1  17
TORSDOF 6
ENDMDL
MODEL 3
REMARK VINA RESULT:     -11.4      5.642     10.545
REMARK  Name = 5042
REMARK  6 active torsions:
REMARK  status: ('A' for Active; 'I' for Inactive)
REMARK    1  A    between atoms: CA_1  and  N_3
REMARK    2  A    between atoms: CA_1  and  C_14
REMARK    3  A    between atoms: CA_1  and  C_17
REMARK    4  A    between atoms: C_4  and  C_7
REMARK    5  A    between atoms: C_14  and  O_15
REMARK    6  A    between atoms: C_17  and  C_20
REMARK                            x       y       z     vdW  Elec       q    Type
REMARK                         _______ _______ _______ _____ _____    ______ ____
ROOT
ATOM      1  CA  UNL     1      34.917 -17.769 -21.363  0.00  0.00    +0.176 C 
ENDROOT
BRANCH   1   3
ATOM      2  O   UNL     1      35.253 -20.597 -21.180  0.00  0.00    -0.270 OA
ATOM      3  N   UNL     1      34.249 -18.654 -20.442  0.00  0.00    -0.293 N 
ATOM      4  C   UNL     1      34.466 -20.048 -20.408  0.00  0.00    +0.246 C 
ATOM      5  H   UNL     1      33.609 -18.266 -19.802  0.00  0.00    +0.150 HD
BRANCH   4   7
ATOM      6 CL   UNL     1      31.480 -23.153 -16.282  0.00  0.00    -0.082 Cl
ATOM      7  C   UNL     1      33.732 -20.812 -19.391  0.00  0.00    +0.053 C 
ATOM      8  C   UNL     1      32.356 -20.662 -19.287  0.00  0.00    +0.005 C 
ATOM      9  C   UNL     1      34.423 -21.672 -18.550  0.00  0.00    +0.005 C 
ATOM     10  C   UNL     1      31.657 -21.389 -18.323  0.00  0.00    +0.012 C 
ATOM     11  C   UNL     1      33.725 -22.398 -17.586  0.00  0.00    +0.012 C 
ATOM     12  C   UNL     1      32.342 -22.257 -17.472  0.00  0.00    +0.058 C 
ENDBRANCH   4   7
ENDBRANCH   1   3
BRANCH   1  14
ATOM     13  OXT UNL     1      36.974 -18.137 -22.582  0.00  0.00    -0.248 OA
ATOM     14  C   UNL     1      36.399 -18.085 -21.500  0.00  0.00    +0.332 C 
BRANCH  14  15
ATOM     15  O   UNL     1      37.041 -18.296 -20.326  0.00  0.00    -0.479 OA
ATOM     16  H   UNL     1      37.375 -19.148 -20.121  0.00  0.00    +0.295 HD
ENDBRANCH  14  15
ENDBRANCH   1  14
BRANCH   1  17
ATOM     17  C   UNL     1      34.671 -16.301 -21.002  0.00  0.00    +0.058 C 
BRANCH  17  20
ATOM     18  O   UNL     1      33.667 -15.450 -25.649  0.00  0.00    -0.270 OA
ATOM     19  N   UNL     1      32.818 -13.958 -24.119  0.00  0.00    -0.280 N 
ATOM     20  C   UNL     1      34.029 -15.493 -22.093  0.00  0.00    -0.014 C 
ATOM     21  C   UNL     1      33.255 -14.281 -21.749  0.00  0.00    +0.010 C 
ATOM     22  C   UNL     1      32.666 -13.541 -22.785  0.00  0.00    +0.050 C 
ATOM     23  C   UNL     1      34.150 -15.855 -23.380  0.00  0.00    +0.054 C 
ATOM     24  C   UNL     1      33.080 -13.832 -20.432  0.00  0.00    +0.001 C 
ATOM     25  C   UNL     1      33.529 -15.079 -24.485  0.00  0.00    +0.249 C 
ATOM     26  C   UNL     1      31.922 -12.386 -22.519  0.00  0.00    +0.015 C 
ATOM     27  C   UNL     1      32.337 -12.677 -20.164  0.00  0.00    +0.000 C 
ATOM     28  C   UNL     1      31.759 -11.956 -21.205  0.00  0.00    +0.001 C 
ATOM     29  H   UNL     1      32.395 -13.422 -24.827  0.00  0.00    +0.155 HD
ENDBRANCH  17  20
ENDBRANCH   1  17
TORSDOF 6
ENDMDL
MODEL 4
REMARK VINA RESULT:     -11.3      5.619     10.578
REMARK  Name = 5042
REMARK  6 active torsions:
REMARK  status: ('A' for Active; 'I' for Inactive)
REMARK    1  A    between atoms: CA_1  and  N_3
REMARK    2  A    between atoms: CA_1  and  C_14
REMARK    3  A    between atoms: CA_1  and  C_17
REMARK    4  A    between atoms: C_4  and  C_7
REMARK    5  A    between atoms: C_14  and  O_15
REMARK    6  A    between atoms: C_17  and  C_20
REMARK                            x       y       z     vdW  Elec       q    Type
REMARK                         _______ _______ _______ _____ _____    ______ ____
ROOT
ATOM      1  CA  UNL     1      34.057 -18.223 -22.515  0.00  0.00    +0.176 C 
ENDROOT
BRANCH   1   3
ATOM      2  O   UNL     1      32.435 -19.995 -20.974  0.00  0.00    -0.270 OA
ATOM      3  N   UNL     1      34.473 -18.985 -21.365  0.00  0.00    -0.293 N 
ATOM      4  C   UNL     1      33.613 -19.846 -20.649  0.00  0.00    +0.246 C 
ATOM      5  H   UNL     1      35.406 -18.902 -21.062  0.00  0.00    +0.150 HD
BRANCH   4   7
ATOM      6 CL   UNL     1      35.978 -22.809 -16.044  0.00  0.00    -0.082 Cl
ATOM      7  C   UNL     1      34.195 -20.577 -19.516  0.00  0.00    +0.053 C 
ATOM      8  C   UNL     1      35.551 -20.452 -19.248  0.00  0.00    +0.005 C 
ATOM      9  C   UNL     1      33.381 -21.379 -18.730  0.00  0.00    +0.005 C 
ATOM     10  C   UNL     1      36.104 -21.145 -18.171  0.00  0.00    +0.012 C 
ATOM     11  C   UNL     1      33.934 -22.072 -17.653  0.00  0.00    +0.012 C 
ATOM     12  C   UNL     1      35.296 -21.954 -17.373  0.00  0.00    +0.058 C 
ENDBRANCH   4   7
ENDBRANCH   1   3
BRANCH   1  14
ATOM     13  OXT UNL     1      34.800 -19.973 -24.012  0.00  0.00    -0.248 OA
ATOM     14  C   UNL     1      34.008 -19.065 -23.782  0.00  0.00    +0.332 C 
BRANCH  14  15
ATOM     15  O   UNL     1      33.008 -18.740 -24.636  0.00  0.00    -0.479 OA
ATOM     16  H   UNL     1      32.803 -19.306 -25.354  0.00  0.00    +0.295 HD
ENDBRANCH  14  15
ENDBRANCH   1  14
BRANCH   1  17
ATOM     17  C   UNL     1      34.913 -16.966 -22.691  0.00  0.00    +0.058 C 
BRANCH  17  20
ATOM     18  O   UNL     1      33.090 -14.364 -26.329  0.00  0.00    -0.270 OA
ATOM     19  N   UNL     1      32.771 -13.537 -24.207  0.00  0.00    -0.280 N 
ATOM     20  C   UNL     1      34.168 -15.777 -23.227  0.00  0.00    -0.014 C 
ATOM     21  C   UNL     1      33.642 -14.759 -22.293  0.00  0.00    +0.010 C 
ATOM     22  C   UNL     1      32.951 -13.656 -22.818  0.00  0.00    +0.050 C 
ATOM     23  C   UNL     1      33.974 -15.624 -24.547  0.00  0.00    +0.054 C 
ATOM     24  C   UNL     1      33.800 -14.840 -20.902  0.00  0.00    +0.001 C 
ATOM     25  C   UNL     1      33.244 -14.461 -25.113  0.00  0.00    +0.249 C 
ATOM     26  C   UNL     1      32.431 -12.662 -21.982  0.00  0.00    +0.015 C 
ATOM     27  C   UNL     1      33.281 -13.847 -20.065  0.00  0.00    +0.000 C 
ATOM     28  C   UNL     1      32.598 -12.760 -20.604  0.00  0.00    +0.001 C 
ATOM     29  H   UNL     1      32.283 -12.755 -24.550  0.00  0.00    +0.155 HD
ENDBRANCH  17  20
ENDBRANCH   1  17
TORSDOF 6
ENDMDL
MODEL 5
REMARK VINA RESULT:     -10.9      1.651      2.043
REMARK  Name = 5042
REMARK  6 active torsions:
REMARK  status: ('A' for Active; 'I' for Inactive)
REMARK    1  A    between atoms: CA_1  and  N_3
REMARK    2  A    between atoms: CA_1  and  C_14
REMARK    3  A    between atoms: CA_1  and  C_17
REMARK    4  A    between atoms: C_4  and  C_7
REMARK    5  A    between atoms: C_14  and  O_15
REMARK    6  A    between atoms: C_17  and  C_20
REMARK                            x       y       z     vdW  Elec       q    Type
REMARK                         _______ _______ _______ _____ _____    ______ ____
ROOT
ATOM      1  CA  UNL     1      32.390 -23.059 -16.069  0.00  0.00    +0.176 C 
ENDROOT
BRANCH   1   3
ATOM      2  O   UNL     1      33.249 -23.634 -18.730  0.00  0.00    -0.270 OA
ATOM      3  N   UNL     1      32.908 -22.114 -17.026  0.00  0.00    -0.293 N 
ATOM      4  C   UNL     1      33.315 -22.471 -18.330  0.00  0.00    +0.246 C 
ATOM      5  H   UNL     1      32.983 -21.169 -16.758  0.00  0.00    +0.150 HD
BRANCH   4   7
ATOM      6 CL   UNL     1      35.265 -18.076 -21.860  0.00  0.00    -0.082 Cl
ATOM      7  C   UNL     1      33.795 -21.388 -19.198  0.00  0.00    +0.053 C 
ATOM      8  C   UNL     1      35.159 -21.173 -19.330  0.00  0.00    +0.005 C 
ATOM      9  C   UNL     1      32.877 -20.597 -19.874  0.00  0.00    +0.005 C 
ATOM     10  C   UNL     1      35.615 -20.146 -20.156  0.00  0.00    +0.012 C 
ATOM     11  C   UNL     1      33.333 -19.569 -20.700  0.00  0.00    +0.012 C 
ATOM     12  C   UNL     1      34.702 -19.344 -20.841  0.00  0.00    +0.058 C 
ENDBRANCH   4   7
ENDBRANCH   1   3
BRANCH   1  14
ATOM     13  OXT UNL     1      30.225 -23.902 -15.392  0.00  0.00    -0.248 OA
ATOM     14  C   UNL     1      30.869 -23.104 -16.066  0.00  0.00    +0.332 C 
BRANCH  14  15
ATOM     15  O   UNL     1      30.276 -22.182 -16.862  0.00  0.00    -0.479 OA
ATOM     16  H   UNL     1      29.372 -22.273 -17.093  0.00  0.00    +0.295 HD
ENDBRANCH  14  15
ENDBRANCH   1  14
BRANCH   1  17
ATOM     17  C   UNL     1      32.963 -22.808 -14.672  0.00  0.00    +0.058 C 
BRANCH  17  20
ATOM     18  O   UNL     1      37.295 -21.890 -16.600  0.00  0.00    -0.270 OA
ATOM     19  N   UNL     1      37.275 -22.762 -14.472  0.00  0.00    -0.280 N 
ATOM     20  C   UNL     1      34.463 -22.787 -14.611  0.00  0.00    -0.014 C 
ATOM     21  C   UNL     1      35.154 -23.265 -13.394  0.00  0.00    +0.010 C 
ATOM     22  C   UNL     1      36.557 -23.238 -13.362  0.00  0.00    +0.050 C 
ATOM     23  C   UNL     1      35.189 -22.342 -15.649  0.00  0.00    +0.054 C 
ATOM     24  C   UNL     1      34.475 -23.747 -12.266  0.00  0.00    +0.001 C 
ATOM     25  C   UNL     1      36.674 -22.308 -15.625  0.00  0.00    +0.249 C 
ATOM     26  C   UNL     1      37.264 -23.677 -12.237  0.00  0.00    +0.015 C 
ATOM     27  C   UNL     1      35.180 -24.187 -11.141  0.00  0.00    +0.000 C 
ATOM     28  C   UNL     1      36.572 -24.152 -11.127  0.00  0.00    +0.001 C 
ATOM     29  H   UNL     1      38.258 -22.753 -14.424  0.00  0.00    +0.155 HD
ENDBRANCH  17  20
ENDBRANCH   1  17
TORSDOF 6
ENDMDL
MODEL 6
REMARK VINA RESULT:     -10.9      1.603      1.882
REMARK  Name = 5042
REMARK  6 active torsions:
REMARK  status: ('A' for Active; 'I' for Inactive)
REMARK    1  A    between atoms: CA_1  and  N_3
REMARK    2  A    between atoms: CA_1  and  C_14
REMARK    3  A    between atoms: CA_1  and  C_17
REMARK    4  A    between atoms: C_4  and  C_7
REMARK    5  A    between atoms: C_14  and  O_15
REMARK    6  A    between atoms: C_17  and  C_20
REMARK                            x       y       z     vdW  Elec       q    Type
REMARK                         _______ _______ _______ _____ _____    ______ ____
ROOT
ATOM      1  CA  UNL     1      32.303 -23.096 -16.319  0.00  0.00    +0.176 C 
ENDROOT
BRANCH   1   3
ATOM      2  O   UNL     1      33.351 -23.616 -18.922  0.00  0.00    -0.270 OA
ATOM      3  N   UNL     1      32.857 -22.127 -17.230  0.00  0.00    -0.293 N 
ATOM      4  C   UNL     1      33.359 -22.457 -18.507  0.00  0.00    +0.246 C 
ATOM      5  H   UNL     1      32.888 -21.184 -16.947  0.00  0.00    +0.150 HD
BRANCH   4   7
ATOM      6 CL   UNL     1      35.411 -17.959 -21.845  0.00  0.00    -0.082 Cl
ATOM      7  C   UNL     1      33.865 -21.350 -19.330  0.00  0.00    +0.053 C 
ATOM      8  C   UNL     1      32.966 -20.533 -20.001  0.00  0.00    +0.005 C 
ATOM      9  C   UNL     1      35.233 -21.138 -19.423  0.00  0.00    +0.005 C 
ATOM     10  C   UNL     1      33.446 -19.481 -20.781  0.00  0.00    +0.012 C 
ATOM     11  C   UNL     1      35.712 -20.086 -20.203  0.00  0.00    +0.012 C 
ATOM     12  C   UNL     1      34.819 -19.257 -20.882  0.00  0.00    +0.058 C 
ENDBRANCH   4   7
ENDBRANCH   1   3
BRANCH   1  14
ATOM     13  OXT UNL     1      30.129 -23.653 -15.412  0.00  0.00    -0.248 OA
ATOM     14  C   UNL     1      30.796 -22.950 -16.164  0.00  0.00    +0.332 C 
BRANCH  14  15
ATOM     15  O   UNL     1      30.245 -21.968 -16.917  0.00  0.00    -0.479 OA
ATOM     16  H   UNL     1      30.099 -21.119 -16.548  0.00  0.00    +0.295 HD
ENDBRANCH  14  15
ENDBRANCH   1  14
BRANCH   1  17
ATOM     17  C   UNL     1      33.027 -23.073 -14.971  0.00  0.00    +0.058 C 
BRANCH  17  20
ATOM     18  O   UNL     1      35.980 -26.845 -14.356  0.00  0.00    -0.270 OA
ATOM     19  N   UNL     1      36.953 -24.869 -15.018  0.00  0.00    -0.280 N 
ATOM     20  C   UNL     1      34.388 -23.706 -14.986  0.00  0.00    -0.014 C 
ATOM     21  C   UNL     1      35.569 -22.899 -15.362  0.00  0.00    +0.010 C 
ATOM     22  C   UNL     1      36.831 -23.512 -15.366  0.00  0.00    +0.050 C 
ATOM     23  C   UNL     1      34.550 -24.999 -14.659  0.00  0.00    +0.054 C 
ATOM     24  C   UNL     1      35.490 -21.544 -15.716  0.00  0.00    +0.001 C 
ATOM     25  C   UNL     1      35.881 -25.658 -14.661  0.00  0.00    +0.249 C 
ATOM     26  C   UNL     1      37.982 -22.798 -15.714  0.00  0.00    +0.015 C 
ATOM     27  C   UNL     1      36.640 -20.828 -16.063  0.00  0.00    +0.000 C 
ATOM     28  C   UNL     1      37.884 -21.455 -16.062  0.00  0.00    +0.001 C 
ATOM     29  H   UNL     1      37.848 -25.276 -15.029  0.00  0.00    +0.155 HD
ENDBRANCH  17  20
ENDBRANCH   1  17
TORSDOF 6
ENDMDL
MODEL 7
REMARK VINA RESULT:     -10.8      1.922      2.628
REMARK  Name = 5042
REMARK  6 active torsions:
REMARK  status: ('A' for Active; 'I' for Inactive)
REMARK    1  A    between atoms: CA_1  and  N_3
REMARK    2  A    between atoms: CA_1  and  C_14
REMARK    3  A    between atoms: CA_1  and  C_17
REMARK    4  A    between atoms: C_4  and  C_7
REMARK    5  A    between atoms: C_14  and  O_15
REMARK    6  A    between atoms: C_17  and  C_20
REMARK                            x       y       z     vdW  Elec       q    Type
REMARK                         _______ _______ _______ _____ _____    ______ ____
ROOT
ATOM      1  CA  UNL     1      34.452 -22.858 -15.338  0.00  0.00    +0.176 C 
ENDROOT
BRANCH   1   3
ATOM      2  O   UNL     1      33.241 -23.476 -17.847  0.00  0.00    -0.270 OA
ATOM      3  N   UNL     1      34.472 -22.040 -16.524  0.00  0.00    -0.293 N 
ATOM      4  C   UNL     1      33.849 -22.410 -17.735  0.00  0.00    +0.246 C 
ATOM      5  H   UNL     1      34.945 -21.177 -16.489  0.00  0.00    +0.150 HD
BRANCH   4   7
ATOM      6 CL   UNL     1      34.194 -18.534 -22.255  0.00  0.00    -0.082 Cl
ATOM      7  C   UNL     1      33.933 -21.455 -18.847  0.00  0.00    +0.053 C 
ATOM      8  C   UNL     1      35.178 -21.067 -19.319  0.00  0.00    +0.005 C 
ATOM      9  C   UNL     1      32.767 -20.956 -19.409  0.00  0.00    +0.005 C 
ATOM     10  C   UNL     1      35.259 -20.160 -20.377  0.00  0.00    +0.012 C 
ATOM     11  C   UNL     1      32.848 -20.049 -20.466  0.00  0.00    +0.012 C 
ATOM     12  C   UNL     1      34.094 -19.652 -20.950  0.00  0.00    +0.058 C 
ENDBRANCH   4   7
ENDBRANCH   1   3
BRANCH   1  14
ATOM     13  OXT UNL     1      32.597 -24.239 -14.626  0.00  0.00    -0.248 OA
ATOM     14  C   UNL     1      33.039 -23.114 -14.835  0.00  0.00    +0.332 C 
BRANCH  14  15
ATOM     15  O   UNL     1      32.304 -21.996 -14.624  0.00  0.00    -0.479 OA
ATOM     16  H   UNL     1      32.732 -21.173 -14.488  0.00  0.00    +0.295 HD
ENDBRANCH  14  15
ENDBRANCH   1  14
BRANCH   1  17
ATOM     17  C   UNL     1      35.357 -22.280 -14.246  0.00  0.00    +0.058 C 
BRANCH  17  20
ATOM     18  O   UNL     1      35.319 -24.944 -10.217  0.00  0.00    -0.270 OA
ATOM     19  N   UNL     1      37.111 -25.232 -11.629  0.00  0.00    -0.280 N 
ATOM     20  C   UNL     1      35.959 -23.307 -13.331  0.00  0.00    -0.014 C 
ATOM     21  C   UNL     1      37.242 -23.948 -13.690  0.00  0.00    +0.010 C 
ATOM     22  C   UNL     1      37.786 -24.902 -12.817  0.00  0.00    +0.050 C 
ATOM     23  C   UNL     1      35.348 -23.650 -12.185  0.00  0.00    +0.054 C 
ATOM     24  C   UNL     1      37.946 -23.648 -14.866  0.00  0.00    +0.001 C 
ATOM     25  C   UNL     1      35.915 -24.660 -11.255  0.00  0.00    +0.249 C 
ATOM     26  C   UNL     1      38.996 -25.542 -13.106  0.00  0.00    +0.015 C 
ATOM     27  C   UNL     1      39.156 -24.285 -15.156  0.00  0.00    +0.000 C 
ATOM     28  C   UNL     1      39.680 -25.231 -14.278  0.00  0.00    +0.001 C 
ATOM     29  H   UNL     1      37.513 -25.905 -11.034  0.00  0.00    +0.155 HD
ENDBRANCH  17  20
ENDBRANCH   1  17
TORSDOF 6
ENDMDL
MODEL 8
REMARK VINA RESULT:     -10.2      8.524     11.905
REMARK  Name = 5042
REMARK  6 active torsions:
REMARK  status: ('A' for Active; 'I' for Inactive)
REMARK    1  A    between atoms: CA_1  and  N_3
REMARK    2  A    between atoms: CA_1  and  C_14
REMARK    3  A    between atoms: CA_1  and  C_17
REMARK    4  A    between atoms: C_4  and  C_7
REMARK    5  A    between atoms: C_14  and  O_15
REMARK    6  A    between atoms: C_17  and  C_20
REMARK                            x       y       z     vdW  Elec       q    Type
REMARK                         _______ _______ _______ _____ _____    ______ ____
ROOT
ATOM      1  CA  UNL     1      33.329 -13.721 -22.492  0.00  0.00    +0.176 C 
ENDROOT
BRANCH   1   3
ATOM      2  O   UNL     1      31.343 -11.673 -22.429  0.00  0.00    -0.270 OA
ATOM      3  N   UNL     1      33.526 -12.326 -22.795  0.00  0.00    -0.293 N 
ATOM      4  C   UNL     1      32.494 -11.366 -22.743  0.00  0.00    +0.246 C 
ATOM      5  H   UNL     1      34.429 -12.027 -23.052  0.00  0.00    +0.150 HD
BRANCH   4   7
ATOM      6 CL   UNL     1      33.980  -5.725 -23.991  0.00  0.00    -0.082 Cl
ATOM      7  C   UNL     1      32.860  -9.977 -23.051  0.00  0.00    +0.053 C 
ATOM      8  C   UNL     1      31.925  -8.968 -22.867  0.00  0.00    +0.005 C 
ATOM      9  C   UNL     1      34.134  -9.695 -23.521  0.00  0.00    +0.005 C 
ATOM     10  C   UNL     1      32.273  -7.649 -23.159  0.00  0.00    +0.012 C 
ATOM     11  C   UNL     1      34.482  -8.376 -23.812  0.00  0.00    +0.012 C 
ATOM     12  C   UNL     1      33.551  -7.353 -23.630  0.00  0.00    +0.058 C 
ENDBRANCH   4   7
ENDBRANCH   1   3
BRANCH   1  14
ATOM     13  OXT UNL     1      34.202 -14.390 -20.336  0.00  0.00    -0.248 OA
ATOM     14  C   UNL     1      33.251 -13.983 -20.995  0.00  0.00    +0.332 C 
BRANCH  14  15
ATOM     15  O   UNL     1      32.044 -13.720 -20.439  0.00  0.00    -0.479 OA
ATOM     16  H   UNL     1      31.790 -12.835 -20.266  0.00  0.00    +0.295 HD
ENDBRANCH  14  15
ENDBRANCH   1  14
BRANCH   1  17
ATOM     17  C   UNL     1      34.384 -14.595 -23.176  0.00  0.00    +0.058 C 
BRANCH  17  20
ATOM     18  O   UNL     1      31.748 -17.829 -25.610  0.00  0.00    -0.270 OA
ATOM     19  N   UNL     1      33.118 -18.648 -23.955  0.00  0.00    -0.280 N 
ATOM     20  C   UNL     1      33.939 -16.002 -23.455  0.00  0.00    -0.014 C 
ATOM     21  C   UNL     1      34.495 -17.118 -22.660  0.00  0.00    +0.010 C 
ATOM     22  C   UNL     1      34.062 -18.424 -22.938  0.00  0.00    +0.050 C 
ATOM     23  C   UNL     1      33.038 -16.262 -24.416  0.00  0.00    +0.054 C 
ATOM     24  C   UNL     1      35.438 -16.936 -21.638  0.00  0.00    +0.001 C 
ATOM     25  C   UNL     1      32.574 -17.640 -24.719  0.00  0.00    +0.249 C 
ATOM     26  C   UNL     1      34.554 -19.518 -22.219  0.00  0.00    +0.015 C 
ATOM     27  C   UNL     1      35.931 -18.029 -20.919  0.00  0.00    +0.000 C 
ATOM     28  C   UNL     1      35.490 -19.318 -21.209  0.00  0.00    +0.001 C 
ATOM     29  H   UNL     1      32.831 -19.573 -24.130  0.00  0.00    +0.155 HD
ENDBRANCH  17  20
ENDBRANCH   1  17
TORSDOF 6
ENDMDL
MODEL 9
REMARK VINA RESULT:     -10.1      9.449     13.099
REMARK  Name = 5042
REMARK  6 active torsions:
REMARK  status: ('A' for Active; 'I' for Inactive)
REMARK    1  A    between atoms: CA_1  and  N_3
REMARK    2  A    between atoms: CA_1  and  C_14
REMARK    3  A    between atoms: CA_1  and  C_17
REMARK    4  A    between atoms: C_4  and  C_7
REMARK    5  A    between atoms: C_14  and  O_15
REMARK    6  A    between atoms: C_17  and  C_20
REMARK                            x       y       z     vdW  Elec       q    Type
REMARK                         _______ _______ _______ _____ _____    ______ ____
ROOT
ATOM      1  CA  UNL     1      32.513 -12.344 -21.643  0.00  0.00    +0.176 C 
ENDROOT
BRANCH   1   3
ATOM      2  O   UNL     1      30.566 -10.420 -22.452  0.00  0.00    -0.270 OA
ATOM      3  N   UNL     1      32.770 -10.992 -22.072  0.00  0.00    -0.293 N 
ATOM      4  C   UNL     1      31.753 -10.093 -22.459  0.00  0.00    +0.246 C 
ATOM      5  H   UNL     1      33.703 -10.679 -22.097  0.00  0.00    +0.150 HD
BRANCH   4   7
ATOM      6 CL   UNL     1      33.459  -4.597 -24.028  0.00  0.00    -0.082 Cl
ATOM      7  C   UNL     1      32.173  -8.739 -22.844  0.00  0.00    +0.053 C 
ATOM      8  C   UNL     1      33.483  -8.519 -23.245  0.00  0.00    +0.005 C 
ATOM      9  C   UNL     1      31.254  -7.701 -22.803  0.00  0.00    +0.005 C 
ATOM     10  C   UNL     1      33.882  -7.234 -23.613  0.00  0.00    +0.012 C 
ATOM     11  C   UNL     1      31.653  -6.415 -23.170  0.00  0.00    +0.012 C 
ATOM     12  C   UNL     1      32.967  -6.183 -23.576  0.00  0.00    +0.058 C 
ENDBRANCH   4   7
ENDBRANCH   1   3
BRANCH   1  14
ATOM     13  OXT UNL     1      31.623 -11.403 -19.598  0.00  0.00    -0.248 OA
ATOM     14  C   UNL     1      31.840 -12.400 -20.279  0.00  0.00    +0.332 C 
BRANCH  14  15
ATOM     15  O   UNL     1      31.488 -13.645 -19.876  0.00  0.00    -0.479 OA
ATOM     16  H   UNL     1      31.782 -14.394 -20.356  0.00  0.00    +0.295 HD
ENDBRANCH  14  15
ENDBRANCH   1  14
BRANCH   1  17
ATOM     17  C   UNL     1      33.783 -13.196 -21.695  0.00  0.00    +0.058 C 
BRANCH  17  20
ATOM     18  O   UNL     1      33.059 -14.640 -26.247  0.00  0.00    -0.270 OA
ATOM     19  N   UNL     1      33.784 -16.237 -24.760  0.00  0.00    -0.280 N 
ATOM     20  C   UNL     1      33.782 -14.247 -22.768  0.00  0.00    -0.014 C 
ATOM     21  C   UNL     1      34.185 -15.631 -22.440  0.00  0.00    +0.010 C 
ATOM     22  C   UNL     1      34.173 -16.596 -23.458  0.00  0.00    +0.050 C 
ATOM     23  C   UNL     1      33.415 -13.948 -24.025  0.00  0.00    +0.054 C 
ATOM     24  C   UNL     1      34.581 -16.030 -21.155  0.00  0.00    +0.001 C 
ATOM     25  C   UNL     1      33.400 -14.962 -25.111  0.00  0.00    +0.249 C 
ATOM     26  C   UNL     1      34.546 -17.921 -23.206  0.00  0.00    +0.015 C 
ATOM     27  C   UNL     1      34.953 -17.354 -20.900  0.00  0.00    +0.000 C 
ATOM     28  C   UNL     1      34.936 -18.297 -21.924  0.00  0.00    +0.001 C 
ATOM     29  H   UNL     1      33.784 -16.932 -25.457  0.00  0.00    +0.155 HD
ENDBRANCH  17  20
ENDBRANCH   1  17
TORSDOF 6
ENDMDL
