MODEL 1
REMARK VINA RESULT:     -13.0      0.000      0.000
REMARK  Name = 24812718
REMARK  6 active torsions:
REMARK  status: ('A' for Active; 'I' for Inactive)
REMARK    1  A    between atoms: C_1  and  C_10
REMARK    2  A    between atoms: C_4  and  C_21
REMARK    3  A    between atoms: N_9  and  C_12
REMARK    4  A    between atoms: C_12  and  C_13
REMARK    5  A    between atoms: C_13  and  C_14
REMARK    6  A    between atoms: N_20  and  C_25
REMARK                            x       y       z     vdW  Elec       q    Type
REMARK                         _______ _______ _______ _____ _____    ______ ____
ROOT
ATOM      1  C   UNL     1      34.141 -20.562 -19.759  0.00  0.00    +0.053 C 
ATOM      2  C   UNL     1      33.719 -19.761 -20.819  0.00  0.00    +0.009 C 
ATOM      3  C   UNL     1      35.484 -20.564 -19.379  0.00  0.00    +0.004 C 
ATOM      4  C   UNL     1      34.637 -18.962 -21.499  0.00  0.00    +0.050 C 
ATOM      5  C   UNL     1      35.979 -18.963 -21.118  0.00  0.00    -0.017 C 
ATOM      6  C   UNL     1      36.403 -19.765 -20.058  0.00  0.00    -0.004 C 
ATOM      7  C   UNL     1      36.984 -18.117 -21.830  0.00  0.00    +0.031 C 
ENDROOT
BRANCH   1  10
ATOM      8  O   UNL     1      32.002 -21.467 -19.432  0.00  0.00    -0.270 OA
ATOM      9  N   UNL     1      33.658 -22.125 -17.947  0.00  0.00    -0.301 N 
ATOM     10  C   UNL     1      33.163 -21.415 -19.035  0.00  0.00    +0.246 C 
ATOM     11  H   UNL     1      34.607 -22.017 -17.705  0.00  0.00    +0.150 HD
BRANCH   9  12
ATOM     12  C   UNL     1      32.843 -23.011 -17.162  0.00  0.00    +0.090 C 
BRANCH  12  13
ATOM     13  C   UNL     1      33.262 -23.036 -15.695  0.00  0.00    +0.021 C 
BRANCH  13  14
ATOM     14  C   UNL     1      32.114 -22.729 -14.749  0.00  0.00    +0.002 C 
ATOM     15  C   UNL     1      31.846 -23.845 -13.745  0.00  0.00    +0.000 C 
ATOM     16  C   UNL     1      30.769 -22.598 -15.457  0.00  0.00    +0.000 C 
ATOM     17  C   UNL     1      30.441 -23.547 -13.231  0.00  0.00    +0.000 C 
ATOM     18  C   UNL     1      29.744 -22.755 -14.338  0.00  0.00    +0.000 C 
ENDBRANCH  13  14
ENDBRANCH  12  13
ENDBRANCH   9  12
ENDBRANCH   1  10
BRANCH   4  21
ATOM     19  O   UNL     1      33.722 -18.686 -23.620  0.00  0.00    -0.270 OA
ATOM     20  N   UNL     1      34.243 -16.750 -22.402  0.00  0.00    -0.279 N 
ATOM     21  C   UNL     1      34.168 -18.134 -22.603  0.00  0.00    +0.249 C 
ATOM     22  H   UNL     1      34.623 -16.462 -21.539  0.00  0.00    +0.155 HD
BRANCH  20  25
ATOM     23  N   UNL     1      33.234 -15.012 -25.509  0.00  0.00    -0.228 NA
ATOM     24  N   UNL     1      32.664 -12.733 -25.909  0.00  0.00    -0.343 N 
ATOM     25  C   UNL     1      33.842 -15.710 -23.276  0.00  0.00    +0.070 C 
ATOM     26  C   UNL     1      33.660 -14.412 -22.813  0.00  0.00    +0.019 C 
ATOM     27  C   UNL     1      33.619 -15.957 -24.622  0.00  0.00    +0.115 C 
ATOM     28  C   UNL     1      33.264 -13.414 -23.696  0.00  0.00    +0.035 C 
ATOM     29  C   UNL     1      33.066 -13.763 -25.022  0.00  0.00    +0.125 C 
ATOM     30  H   UNL     1      32.512 -12.936 -26.861  0.00  0.00    +0.144 HD
ATOM     31  H   UNL     1      32.537 -11.816 -25.575  0.00  0.00    +0.144 HD
ENDBRANCH  20  25
ENDBRANCH   4  21
TORSDOF 6
ENDMDL
MODEL 2
REMARK VINA RESULT:     -12.7      1.274      2.225
REMARK  Name = 24812718
REMARK  6 active torsions:
REMARK  status: ('A' for Active; 'I' for Inactive)
REMARK    1  A    between atoms: C_1  and  C_10
REMARK    2  A    between atoms: C_4  and  C_21
REMARK    3  A    between atoms: N_9  and  C_12
REMARK    4  A    between atoms: C_12  and  C_13
REMARK    5  A    between atoms: C_13  and  C_14
REMARK    6  A    between atoms: N_20  and  C_25
REMARK                            x       y       z     vdW  Elec       q    Type
REMARK                         _______ _______ _______ _____ _____    ______ ____
ROOT
ATOM      1  C   UNL     1      34.097 -20.552 -19.744  0.00  0.00    +0.053 C 
ATOM      2  C   UNL     1      33.689 -19.754 -20.812  0.00  0.00    +0.009 C 
ATOM      3  C   UNL     1      35.436 -20.562 -19.352  0.00  0.00    +0.004 C 
ATOM      4  C   UNL     1      34.618 -18.965 -21.488  0.00  0.00    +0.050 C 
ATOM      5  C   UNL     1      35.957 -18.974 -21.096  0.00  0.00    -0.017 C 
ATOM      6  C   UNL     1      36.366 -19.773 -20.028  0.00  0.00    -0.004 C 
ATOM      7  C   UNL     1      36.974 -18.138 -21.803  0.00  0.00    +0.031 C 
ENDROOT
BRANCH   1  10
ATOM      8  O   UNL     1      31.956 -21.464 -19.448  0.00  0.00    -0.270 OA
ATOM      9  N   UNL     1      33.579 -22.076 -17.907  0.00  0.00    -0.301 N 
ATOM     10  C   UNL     1      33.107 -21.394 -19.024  0.00  0.00    +0.246 C 
ATOM     11  H   UNL     1      34.521 -21.956 -17.645  0.00  0.00    +0.150 HD
BRANCH   9  12
ATOM     12  C   UNL     1      32.750 -22.948 -17.122  0.00  0.00    +0.090 C 
BRANCH  12  13
ATOM     13  C   UNL     1      33.252 -23.088 -15.688  0.00  0.00    +0.021 C 
BRANCH  13  14
ATOM     14  C   UNL     1      34.757 -23.279 -15.606  0.00  0.00    +0.002 C 
ATOM     15  C   UNL     1      35.166 -24.459 -14.731  0.00  0.00    +0.000 C 
ATOM     16  C   UNL     1      35.476 -22.112 -14.936  0.00  0.00    +0.000 C 
ATOM     17  C   UNL     1      36.639 -24.199 -14.429  0.00  0.00    +0.000 C 
ATOM     18  C   UNL     1      36.835 -22.687 -14.550  0.00  0.00    +0.000 C 
ENDBRANCH  13  14
ENDBRANCH  12  13
ENDBRANCH   9  12
ENDBRANCH   1  10
BRANCH   4  21
ATOM     19  O   UNL     1      33.742 -18.694 -23.626  0.00  0.00    -0.270 OA
ATOM     20  N   UNL     1      34.226 -16.755 -22.396  0.00  0.00    -0.279 N 
ATOM     21  C   UNL     1      34.165 -18.139 -22.600  0.00  0.00    +0.249 C 
ATOM     22  H   UNL     1      34.587 -16.466 -21.526  0.00  0.00    +0.155 HD
BRANCH  20  25
ATOM     23  N   UNL     1      33.280 -15.017 -25.523  0.00  0.00    -0.228 NA
ATOM     24  N   UNL     1      32.687 -12.746 -25.930  0.00  0.00    -0.343 N 
ATOM     25  C   UNL     1      33.835 -15.717 -23.277  0.00  0.00    +0.070 C 
ATOM     26  C   UNL     1      33.618 -14.424 -22.813  0.00  0.00    +0.019 C 
ATOM     27  C   UNL     1      33.654 -15.960 -24.630  0.00  0.00    +0.115 C 
ATOM     28  C   UNL     1      33.233 -13.428 -23.703  0.00  0.00    +0.035 C 
ATOM     29  C   UNL     1      33.079 -13.773 -25.036  0.00  0.00    +0.125 C 
ATOM     30  H   UNL     1      32.566 -12.946 -26.886  0.00  0.00    +0.144 HD
ATOM     31  H   UNL     1      32.535 -11.833 -25.595  0.00  0.00    +0.144 HD
ENDBRANCH  20  25
ENDBRANCH   4  21
TORSDOF 6
ENDMDL
MODEL 3
REMARK VINA RESULT:     -12.7      3.414      6.498
REMARK  Name = 24812718
REMARK  6 active torsions:
REMARK  status: ('A' for Active; 'I' for Inactive)
REMARK    1  A    between atoms: C_1  and  C_10
REMARK    2  A    between atoms: C_4  and  C_21
REMARK    3  A    between atoms: N_9  and  C_12
REMARK    4  A    between atoms: C_12  and  C_13
REMARK    5  A    between atoms: C_13  and  C_14
REMARK    6  A    between atoms: N_20  and  C_25
REMARK                            x       y       z     vdW  Elec       q    Type
REMARK                         _______ _______ _______ _____ _____    ______ ____
ROOT
ATOM      1  C   UNL     1      34.307 -15.660 -22.565  0.00  0.00    +0.053 C 
ATOM      2  C   UNL     1      33.872 -14.369 -22.267  0.00  0.00    +0.009 C 
ATOM      3  C   UNL     1      34.182 -16.155 -23.863  0.00  0.00    +0.004 C 
ATOM      4  C   UNL     1      33.313 -13.572 -23.266  0.00  0.00    +0.050 C 
ATOM      5  C   UNL     1      33.189 -14.068 -24.564  0.00  0.00    -0.017 C 
ATOM      6  C   UNL     1      33.623 -15.359 -24.863  0.00  0.00    -0.004 C 
ATOM      7  C   UNL     1      32.594 -13.236 -25.654  0.00  0.00    +0.031 C 
ENDROOT
BRANCH   1  10
ATOM      8  O   UNL     1      34.593 -16.306 -20.329  0.00  0.00    -0.270 OA
ATOM      9  N   UNL     1      35.767 -17.510 -21.928  0.00  0.00    -0.301 N 
ATOM     10  C   UNL     1      34.901 -16.509 -21.501  0.00  0.00    +0.246 C 
ATOM     11  H   UNL     1      35.952 -17.594 -22.891  0.00  0.00    +0.150 HD
BRANCH   9  12
ATOM     12  C   UNL     1      36.401 -18.427 -21.021  0.00  0.00    +0.090 C 
BRANCH  12  13
ATOM     13  C   UNL     1      35.783 -19.821 -21.081  0.00  0.00    +0.021 C 
BRANCH  13  14
ATOM     14  C   UNL     1      34.710 -20.036 -20.028  0.00  0.00    +0.002 C 
ATOM     15  C   UNL     1      34.677 -21.460 -19.483  0.00  0.00    +0.000 C 
ATOM     16  C   UNL     1      33.293 -19.861 -20.567  0.00  0.00    +0.000 C 
ATOM     17  C   UNL     1      33.307 -21.569 -18.822  0.00  0.00    +0.000 C 
ATOM     18  C   UNL     1      32.414 -20.548 -19.528  0.00  0.00    +0.000 C 
ENDBRANCH  13  14
ENDBRANCH  12  13
ENDBRANCH   9  12
ENDBRANCH   1  10
BRANCH   4  21
ATOM     19  O   UNL     1      31.932 -12.089 -22.124  0.00  0.00    -0.270 OA
ATOM     20  N   UNL     1      33.571 -11.180 -23.537  0.00  0.00    -0.279 N 
ATOM     21  C   UNL     1      32.868 -12.227 -22.928  0.00  0.00    +0.249 C 
ATOM     22  H   UNL     1      34.290 -11.450 -24.154  0.00  0.00    +0.155 HD
BRANCH  20  25
ATOM     23  N   UNL     1      31.928  -7.956 -22.761  0.00  0.00    -0.228 NA
ATOM     24  N   UNL     1      32.739  -5.719 -22.891  0.00  0.00    -0.343 N 
ATOM     25  C   UNL     1      33.382  -9.785 -23.382  0.00  0.00    +0.070 C 
ATOM     26  C   UNL     1      34.402  -8.886 -23.672  0.00  0.00    +0.019 C 
ATOM     27  C   UNL     1      32.174  -9.274 -22.934  0.00  0.00    +0.115 C 
ATOM     28  C   UNL     1      34.186  -7.522 -23.507  0.00  0.00    +0.035 C 
ATOM     29  C   UNL     1      32.943  -7.113 -23.053  0.00  0.00    +0.125 C 
ATOM     30  H   UNL     1      31.871  -5.383 -22.571  0.00  0.00    +0.144 HD
ATOM     31  H   UNL     1      33.466  -5.088 -23.099  0.00  0.00    +0.144 HD
ENDBRANCH  20  25
ENDBRANCH   4  21
TORSDOF 6
ENDMDL
MODEL 4
REMARK VINA RESULT:     -12.4      3.058      9.934
REMARK  Name = 24812718
REMARK  6 active torsions:
REMARK  status: ('A' for Active; 'I' for Inactive)
REMARK    1  A    between atoms: C_1  and  C_10
REMARK    2  A    between atoms: C_4  and  C_21
REMARK    3  A    between atoms: N_9  and  C_12
REMARK    4  A    between atoms: C_12  and  C_13
REMARK    5  A    between atoms: C_13  and  C_14
REMARK    6  A    between atoms: N_20  and  C_25
REMARK                            x       y       z     vdW  Elec       q    Type
REMARK                         _______ _______ _______ _____ _____    ______ ____
ROOT
ATOM      1  C   UNL     1      33.998 -14.660 -22.704  0.00  0.00    +0.053 C 
ATOM      2  C   UNL     1      34.245 -15.655 -21.759  0.00  0.00    +0.009 C 
ATOM      3  C   UNL     1      33.903 -14.990 -24.056  0.00  0.00    +0.004 C 
ATOM      4  C   UNL     1      34.396 -16.981 -22.165  0.00  0.00    +0.050 C 
ATOM      5  C   UNL     1      34.299 -17.311 -23.517  0.00  0.00    -0.017 C 
ATOM      6  C   UNL     1      34.053 -16.316 -24.463  0.00  0.00    -0.004 C 
ATOM      7  C   UNL     1      34.457 -18.723 -23.980  0.00  0.00    +0.031 C 
ENDROOT
BRANCH   1  10
ATOM      8  O   UNL     1      34.010 -12.958 -21.091  0.00  0.00    -0.270 OA
ATOM      9  N   UNL     1      33.522 -12.333 -23.271  0.00  0.00    -0.301 N 
ATOM     10  C   UNL     1      33.839 -13.247 -22.272  0.00  0.00    +0.246 C 
ATOM     11  H   UNL     1      33.405 -12.662 -24.192  0.00  0.00    +0.150 HD
BRANCH   9  12
ATOM     12  C   UNL     1      33.360 -10.928 -23.016  0.00  0.00    +0.090 C 
BRANCH  12  13
ATOM     13  C   UNL     1      31.947 -10.443 -23.323  0.00  0.00    +0.021 C 
BRANCH  13  14
ATOM     14  C   UNL     1      31.260  -9.826 -22.117  0.00  0.00    +0.002 C 
ATOM     15  C   UNL     1      31.920  -8.536 -21.642  0.00  0.00    +0.000 C 
ATOM     16  C   UNL     1      31.328 -10.705 -20.872  0.00  0.00    +0.000 C 
ATOM     17  C   UNL     1      31.387  -8.350 -20.225  0.00  0.00    +0.000 C 
ATOM     18  C   UNL     1      31.017  -9.748 -19.725  0.00  0.00    +0.000 C 
ENDBRANCH  13  14
ENDBRANCH  12  13
ENDBRANCH   9  12
ENDBRANCH   1  10
BRANCH   4  21
ATOM     19  O   UNL     1      35.713 -17.957 -20.515  0.00  0.00    -0.270 OA
ATOM     20  N   UNL     1      33.640 -18.952 -20.981  0.00  0.00    -0.279 N 
ATOM     21  C   UNL     1      34.652 -18.001 -21.157  0.00  0.00    +0.249 C 
ATOM     22  H   UNL     1      32.855 -18.856 -21.568  0.00  0.00    +0.155 HD
BRANCH  20  25
ATOM     23  N   UNL     1      32.280 -21.529 -18.699  0.00  0.00    -0.228 NA
ATOM     24  N   UNL     1      33.375 -23.199 -17.399  0.00  0.00    -0.343 N 
ATOM     25  C   UNL     1      33.598 -20.034 -20.068  0.00  0.00    +0.070 C 
ATOM     26  C   UNL     1      34.764 -20.664 -19.645  0.00  0.00    +0.019 C 
ATOM     27  C   UNL     1      32.391 -20.501 -19.570  0.00  0.00    +0.115 C 
ATOM     28  C   UNL     1      34.688 -21.725 -18.750  0.00  0.00    +0.035 C 
ATOM     29  C   UNL     1      33.434 -22.116 -18.311  0.00  0.00    +0.125 C 
ATOM     30  H   UNL     1      32.504 -23.509 -17.060  0.00  0.00    +0.144 HD
ATOM     31  H   UNL     1      34.204 -23.639 -17.104  0.00  0.00    +0.144 HD
ENDBRANCH  20  25
ENDBRANCH   4  21
TORSDOF 6
ENDMDL
MODEL 5
REMARK VINA RESULT:     -12.3      3.871      7.143
REMARK  Name = 24812718
REMARK  6 active torsions:
REMARK  status: ('A' for Active; 'I' for Inactive)
REMARK    1  A    between atoms: C_1  and  C_10
REMARK    2  A    between atoms: C_4  and  C_21
REMARK    3  A    between atoms: N_9  and  C_12
REMARK    4  A    between atoms: C_12  and  C_13
REMARK    5  A    between atoms: C_13  and  C_14
REMARK    6  A    between atoms: N_20  and  C_25
REMARK                            x       y       z     vdW  Elec       q    Type
REMARK                         _______ _______ _______ _____ _____    ______ ____
ROOT
ATOM      1  C   UNL     1      33.932 -14.857 -22.873  0.00  0.00    +0.053 C 
ATOM      2  C   UNL     1      33.831 -13.481 -22.673  0.00  0.00    +0.009 C 
ATOM      3  C   UNL     1      33.522 -15.418 -24.082  0.00  0.00    +0.004 C 
ATOM      4  C   UNL     1      33.320 -12.664 -23.681  0.00  0.00    +0.050 C 
ATOM      5  C   UNL     1      32.910 -13.225 -24.891  0.00  0.00    -0.017 C 
ATOM      6  C   UNL     1      33.010 -14.602 -25.092  0.00  0.00    -0.004 C 
ATOM      7  C   UNL     1      32.359 -12.374 -25.989  0.00  0.00    +0.031 C 
ENDROOT
BRANCH   1  10
ATOM      8  O   UNL     1      34.280 -15.424 -20.624  0.00  0.00    -0.270 OA
ATOM      9  N   UNL     1      35.162 -16.861 -22.217  0.00  0.00    -0.301 N 
ATOM     10  C   UNL     1      34.476 -15.727 -21.798  0.00  0.00    +0.246 C 
ATOM     11  H   UNL     1      35.267 -17.019 -23.183  0.00  0.00    +0.150 HD
BRANCH   9  12
ATOM     12  C   UNL     1      35.724 -17.812 -21.298  0.00  0.00    +0.090 C 
BRANCH  12  13
ATOM     13  C   UNL     1      35.129 -19.206 -21.471  0.00  0.00    +0.021 C 
BRANCH  13  14
ATOM     14  C   UNL     1      34.561 -19.769 -20.179  0.00  0.00    +0.002 C 
ATOM     15  C   UNL     1      35.231 -21.068 -19.742  0.00  0.00    +0.000 C 
ATOM     16  C   UNL     1      33.097 -20.182 -20.296  0.00  0.00    +0.000 C 
ATOM     17  C   UNL     1      34.251 -21.667 -18.739  0.00  0.00    +0.000 C 
ATOM     18  C   UNL     1      32.876 -21.106 -19.103  0.00  0.00    +0.000 C 
ENDBRANCH  13  14
ENDBRANCH  12  13
ENDBRANCH   9  12
ENDBRANCH   1  10
BRANCH   4  21
ATOM     19  O   UNL     1      34.176 -10.504 -23.778  0.00  0.00    -0.270 OA
ATOM     20  N   UNL     1      32.029 -10.782 -22.874  0.00  0.00    -0.279 N 
ATOM     21  C   UNL     1      33.226 -11.229 -23.446  0.00  0.00    +0.249 C 
ATOM     22  H   UNL     1      31.367 -11.481 -22.665  0.00  0.00    +0.155 HD
BRANCH  20  25
ATOM     23  N   UNL     1      30.836  -7.306 -23.310  0.00  0.00    -0.228 NA
ATOM     24  N   UNL     1      30.500  -5.560 -21.724  0.00  0.00    -0.343 N 
ATOM     25  C   UNL     1      31.646  -9.456 -22.557  0.00  0.00    +0.070 C 
ATOM     26  C   UNL     1      31.686  -8.990 -21.247  0.00  0.00    +0.019 C 
ATOM     27  C   UNL     1      31.218  -8.582 -23.544  0.00  0.00    +0.115 C 
ATOM     28  C   UNL     1      31.301  -7.684 -20.968  0.00  0.00    +0.035 C 
ATOM     29  C   UNL     1      30.888  -6.889 -22.026  0.00  0.00    +0.125 C 
ATOM     30  H   UNL     1      30.200  -4.960 -22.445  0.00  0.00    +0.144 HD
ATOM     31  H   UNL     1      30.531  -5.237 -20.795  0.00  0.00    +0.144 HD
ENDBRANCH  20  25
ENDBRANCH   4  21
TORSDOF 6
ENDMDL
MODEL 6
REMARK VINA RESULT:     -12.3      2.962      4.807
REMARK  Name = 24812718
REMARK  6 active torsions:
REMARK  status: ('A' for Active; 'I' for Inactive)
REMARK    1  A    between atoms: C_1  and  C_10
REMARK    2  A    between atoms: C_4  and  C_21
REMARK    3  A    between atoms: N_9  and  C_12
REMARK    4  A    between atoms: C_12  and  C_13
REMARK    5  A    between atoms: C_13  and  C_14
REMARK    6  A    between atoms: N_20  and  C_25
REMARK                            x       y       z     vdW  Elec       q    Type
REMARK                         _______ _______ _______ _____ _____    ______ ____
ROOT
ATOM      1  C   UNL     1      34.837 -17.436 -21.884  0.00  0.00    +0.053 C 
ATOM      2  C   UNL     1      34.522 -16.160 -21.418  0.00  0.00    +0.009 C 
ATOM      3  C   UNL     1      34.647 -17.753 -23.229  0.00  0.00    +0.004 C 
ATOM      4  C   UNL     1      34.018 -15.201 -22.296  0.00  0.00    +0.050 C 
ATOM      5  C   UNL     1      33.829 -15.518 -23.641  0.00  0.00    -0.017 C 
ATOM      6  C   UNL     1      34.143 -16.794 -24.108  0.00  0.00    -0.004 C 
ATOM      7  C   UNL     1      33.291 -14.510 -24.603  0.00  0.00    +0.031 C 
ENDROOT
BRANCH   1  10
ATOM      8  O   UNL     1      36.450 -18.259 -20.393  0.00  0.00    -0.270 OA
ATOM      9  N   UNL     1      34.580 -19.584 -20.752  0.00  0.00    -0.301 N 
ATOM     10  C   UNL     1      35.373 -18.459 -20.949  0.00  0.00    +0.246 C 
ATOM     11  H   UNL     1      33.730 -19.654 -21.245  0.00  0.00    +0.150 HD
BRANCH   9  12
ATOM     12  C   UNL     1      34.949 -20.648 -19.860  0.00  0.00    +0.090 C 
BRANCH  12  13
ATOM     13  C   UNL     1      33.736 -21.310 -19.215  0.00  0.00    +0.021 C 
BRANCH  13  14
ATOM     14  C   UNL     1      34.111 -22.254 -18.084  0.00  0.00    +0.002 C 
ATOM     15  C   UNL     1      32.972 -22.495 -17.099  0.00  0.00    +0.000 C 
ATOM     16  C   UNL     1      35.212 -21.704 -17.182  0.00  0.00    +0.000 C 
ATOM     17  C   UNL     1      33.668 -23.063 -15.866  0.00  0.00    +0.000 C 
ATOM     18  C   UNL     1      35.106 -22.545 -15.914  0.00  0.00    +0.000 C 
ENDBRANCH  13  14
ENDBRANCH  12  13
ENDBRANCH   9  12
ENDBRANCH   1  10
BRANCH   4  21
ATOM     19  O   UNL     1      34.276 -13.472 -20.761  0.00  0.00    -0.270 OA
ATOM     20  N   UNL     1      32.760 -13.145 -22.521  0.00  0.00    -0.279 N 
ATOM     21  C   UNL     1      33.699 -13.875 -21.782  0.00  0.00    +0.249 C 
ATOM     22  H   UNL     1      32.388 -13.601 -23.311  0.00  0.00    +0.155 HD
BRANCH  20  25
ATOM     23  N   UNL     1      32.181  -9.516 -22.959  0.00  0.00    -0.228 NA
ATOM     24  N   UNL     1      30.908  -7.971 -21.666  0.00  0.00    -0.343 N 
ATOM     25  C   UNL     1      32.278 -11.835 -22.282  0.00  0.00    +0.070 C 
ATOM     26  C   UNL     1      31.456 -11.559 -21.194  0.00  0.00    +0.019 C 
ATOM     27  C   UNL     1      32.608 -10.788 -23.128  0.00  0.00    +0.115 C 
ATOM     28  C   UNL     1      30.997 -10.263 -20.988  0.00  0.00    +0.035 C 
ATOM     29  C   UNL     1      31.385  -9.287 -21.891  0.00  0.00    +0.125 C 
ATOM     30  H   UNL     1      31.159  -7.245 -22.283  0.00  0.00    +0.144 HD
ATOM     31  H   UNL     1      30.328  -7.783 -20.894  0.00  0.00    +0.144 HD
ENDBRANCH  20  25
ENDBRANCH   4  21
TORSDOF 6
ENDMDL
MODEL 7
REMARK VINA RESULT:     -12.3      3.842     10.681
REMARK  Name = 24812718
REMARK  6 active torsions:
REMARK  status: ('A' for Active; 'I' for Inactive)
REMARK    1  A    between atoms: C_1  and  C_10
REMARK    2  A    between atoms: C_4  and  C_21
REMARK    3  A    between atoms: N_9  and  C_12
REMARK    4  A    between atoms: C_12  and  C_13
REMARK    5  A    between atoms: C_13  and  C_14
REMARK    6  A    between atoms: N_20  and  C_25
REMARK                            x       y       z     vdW  Elec       q    Type
REMARK                         _______ _______ _______ _____ _____    ______ ____
ROOT
ATOM      1  C   UNL     1      32.874 -22.048 -17.595  0.00  0.00    +0.053 C 
ATOM      2  C   UNL     1      34.045 -22.348 -16.900  0.00  0.00    +0.009 C 
ATOM      3  C   UNL     1      31.632 -22.288 -17.006  0.00  0.00    +0.004 C 
ATOM      4  C   UNL     1      33.975 -22.886 -15.615  0.00  0.00    +0.050 C 
ATOM      5  C   UNL     1      32.733 -23.125 -15.026  0.00  0.00    -0.017 C 
ATOM      6  C   UNL     1      31.561 -22.827 -15.722  0.00  0.00    -0.004 C 
ATOM      7  C   UNL     1      32.629 -23.701 -13.651  0.00  0.00    +0.031 C 
ENDROOT
BRANCH   1  10
ATOM      8  O   UNL     1      31.998 -21.625 -19.730  0.00  0.00    -0.270 OA
ATOM      9  N   UNL     1      34.108 -20.774 -19.273  0.00  0.00    -0.301 N 
ATOM     10  C   UNL     1      32.947 -21.475 -18.964  0.00  0.00    +0.246 C 
ATOM     11  H   UNL     1      34.815 -20.708 -18.591  0.00  0.00    +0.150 HD
BRANCH   9  12
ATOM     12  C   UNL     1      34.317 -20.142 -20.547  0.00  0.00    +0.090 C 
BRANCH  12  13
ATOM     13  C   UNL     1      35.607 -19.328 -20.584  0.00  0.00    +0.021 C 
BRANCH  13  14
ATOM     14  C   UNL     1      35.555 -18.185 -21.583  0.00  0.00    +0.002 C 
ATOM     15  C   UNL     1      34.888 -16.931 -21.029  0.00  0.00    +0.000 C 
ATOM     16  C   UNL     1      34.699 -18.496 -22.807  0.00  0.00    +0.000 C 
ATOM     17  C   UNL     1      34.544 -16.118 -22.273  0.00  0.00    +0.000 C 
ATOM     18  C   UNL     1      34.411 -17.127 -23.415  0.00  0.00    +0.000 C 
ENDBRANCH  13  14
ENDBRANCH  12  13
ENDBRANCH   9  12
ENDBRANCH   1  10
BRANCH   4  21
ATOM     19  O   UNL     1      35.485 -22.558 -13.877  0.00  0.00    -0.270 OA
ATOM     20  N   UNL     1      35.997 -24.209 -15.464  0.00  0.00    -0.279 N 
ATOM     21  C   UNL     1      35.214 -23.188 -14.910  0.00  0.00    +0.249 C 
ATOM     22  H   UNL     1      35.648 -24.616 -16.291  0.00  0.00    +0.155 HD
BRANCH  20  25
ATOM     23  N   UNL     1      38.467 -26.613 -14.118  0.00  0.00    -0.228 NA
ATOM     24  N   UNL     1      40.777 -26.351 -13.595  0.00  0.00    -0.343 N 
ATOM     25  C   UNL     1      37.225 -24.731 -14.991  0.00  0.00    +0.070 C 
ATOM     26  C   UNL     1      38.366 -23.939 -14.926  0.00  0.00    +0.019 C 
ATOM     27  C   UNL     1      37.327 -26.050 -14.578  0.00  0.00    +0.115 C 
ATOM     28  C   UNL     1      39.558 -24.483 -14.459  0.00  0.00    +0.035 C 
ATOM     29  C   UNL     1      39.555 -25.812 -14.070  0.00  0.00    +0.125 C 
ATOM     30  H   UNL     1      40.821 -27.292 -13.308  0.00  0.00    +0.144 HD
ATOM     31  H   UNL     1      41.581 -25.785 -13.552  0.00  0.00    +0.144 HD
ENDBRANCH  20  25
ENDBRANCH   4  21
TORSDOF 6
ENDMDL
MODEL 8
REMARK VINA RESULT:     -12.2      3.012     10.199
REMARK  Name = 24812718
REMARK  6 active torsions:
REMARK  status: ('A' for Active; 'I' for Inactive)
REMARK    1  A    between atoms: C_1  and  C_10
REMARK    2  A    between atoms: C_4  and  C_21
REMARK    3  A    between atoms: N_9  and  C_12
REMARK    4  A    between atoms: C_12  and  C_13
REMARK    5  A    between atoms: C_13  and  C_14
REMARK    6  A    between atoms: N_20  and  C_25
REMARK                            x       y       z     vdW  Elec       q    Type
REMARK                         _______ _______ _______ _____ _____    ______ ____
ROOT
ATOM      1  C   UNL     1      35.710 -21.064 -18.141  0.00  0.00    +0.053 C 
ATOM      2  C   UNL     1      34.783 -21.954 -17.600  0.00  0.00    +0.009 C 
ATOM      3  C   UNL     1      36.821 -20.674 -17.393  0.00  0.00    +0.004 C 
ATOM      4  C   UNL     1      34.967 -22.455 -16.311  0.00  0.00    +0.050 C 
ATOM      5  C   UNL     1      36.078 -22.066 -15.564  0.00  0.00    -0.017 C 
ATOM      6  C   UNL     1      37.006 -21.175 -16.104  0.00  0.00    -0.004 C 
ATOM      7  C   UNL     1      36.300 -22.587 -14.181  0.00  0.00    +0.031 C 
ENDROOT
BRANCH   1  10
ATOM      8  O   UNL     1      34.760 -21.117 -20.285  0.00  0.00    -0.270 OA
ATOM      9  N   UNL     1      36.200 -19.359 -19.818  0.00  0.00    -0.301 N 
ATOM     10  C   UNL     1      35.514 -20.530 -19.513  0.00  0.00    +0.246 C 
ATOM     11  H   UNL     1      36.783 -18.961 -19.131  0.00  0.00    +0.150 HD
BRANCH   9  12
ATOM     12  C   UNL     1      36.094 -18.707 -21.094  0.00  0.00    +0.090 C 
BRANCH  12  13
ATOM     13  C   UNL     1      34.883 -17.783 -21.173  0.00  0.00    +0.021 C 
BRANCH  13  14
ATOM     14  C   UNL     1      34.998 -16.753 -22.284  0.00  0.00    +0.002 C 
ATOM     15  C   UNL     1      34.331 -15.424 -21.944  0.00  0.00    +0.000 C 
ATOM     16  C   UNL     1      34.273 -17.164 -23.562  0.00  0.00    +0.000 C 
ATOM     17  C   UNL     1      34.169 -14.738 -23.297  0.00  0.00    +0.000 C 
ATOM     18  C   UNL     1      34.120 -15.858 -24.336  0.00  0.00    +0.000 C 
ENDBRANCH  13  14
ENDBRANCH  12  13
ENDBRANCH   9  12
ENDBRANCH   1  10
BRANCH   4  21
ATOM     19  O   UNL     1      34.340 -24.539 -15.488  0.00  0.00    -0.270 OA
ATOM     20  N   UNL     1      32.693 -22.870 -15.588  0.00  0.00    -0.279 N 
ATOM     21  C   UNL     1      33.983 -23.384 -15.770  0.00  0.00    +0.249 C 
ATOM     22  H   UNL     1      32.564 -21.932 -15.861  0.00  0.00    +0.155 HD
BRANCH  20  25
ATOM     23  N   UNL     1      29.276 -24.276 -15.384  0.00  0.00    -0.228 NA
ATOM     24  N   UNL     1      28.162 -25.421 -13.616  0.00  0.00    -0.343 N 
ATOM     25  C   UNL     1      31.551 -23.523 -15.064  0.00  0.00    +0.070 C 
ATOM     26  C   UNL     1      31.550 -24.044 -13.775  0.00  0.00    +0.019 C 
ATOM     27  C   UNL     1      30.399 -23.663 -15.822  0.00  0.00    +0.115 C 
ATOM     28  C   UNL     1      30.413 -24.681 -13.290  0.00  0.00    +0.035 C 
ATOM     29  C   UNL     1      29.313 -24.769 -14.126  0.00  0.00    +0.125 C 
ATOM     30  H   UNL     1      27.357 -25.507 -14.176  0.00  0.00    +0.144 HD
ATOM     31  H   UNL     1      28.168 -25.788 -12.703  0.00  0.00    +0.144 HD
ENDBRANCH  20  25
ENDBRANCH   4  21
TORSDOF 6
ENDMDL
MODEL 9
REMARK VINA RESULT:     -12.1      2.113      9.763
REMARK  Name = 24812718
REMARK  6 active torsions:
REMARK  status: ('A' for Active; 'I' for Inactive)
REMARK    1  A    between atoms: C_1  and  C_10
REMARK    2  A    between atoms: C_4  and  C_21
REMARK    3  A    between atoms: N_9  and  C_12
REMARK    4  A    between atoms: C_12  and  C_13
REMARK    5  A    between atoms: C_13  and  C_14
REMARK    6  A    between atoms: N_20  and  C_25
REMARK                            x       y       z     vdW  Elec       q    Type
REMARK                         _______ _______ _______ _____ _____    ______ ____
ROOT
ATOM      1  C   UNL     1      34.558 -19.863 -20.445  0.00  0.00    +0.053 C 
ATOM      2  C   UNL     1      33.744 -20.795 -19.803  0.00  0.00    +0.009 C 
ATOM      3  C   UNL     1      35.855 -19.636 -19.984  0.00  0.00    +0.004 C 
ATOM      4  C   UNL     1      34.225 -21.502 -18.701  0.00  0.00    +0.050 C 
ATOM      5  C   UNL     1      35.523 -21.275 -18.241  0.00  0.00    -0.017 C 
ATOM      6  C   UNL     1      36.338 -20.342 -18.882  0.00  0.00    -0.004 C 
ATOM      7  C   UNL     1      36.064 -22.018 -17.063  0.00  0.00    +0.031 C 
ENDROOT
BRANCH   1  10
ATOM      8  O   UNL     1      32.987 -19.456 -22.138  0.00  0.00    -0.270 OA
ATOM      9  N   UNL     1      34.811 -18.025 -22.032  0.00  0.00    -0.301 N 
ATOM     10  C   UNL     1      34.045 -19.109 -21.618  0.00  0.00    +0.246 C 
ATOM     11  H   UNL     1      35.646 -17.825 -21.549  0.00  0.00    +0.150 HD
BRANCH   9  12
ATOM     12  C   UNL     1      34.434 -17.184 -23.135  0.00  0.00    +0.090 C 
BRANCH  12  13
ATOM     13  C   UNL     1      34.848 -15.732 -22.923  0.00  0.00    +0.021 C 
BRANCH  13  14
ATOM     14  C   UNL     1      33.711 -14.862 -22.414  0.00  0.00    +0.002 C 
ATOM     15  C   UNL     1      33.633 -13.506 -23.106  0.00  0.00    +0.000 C 
ATOM     16  C   UNL     1      33.863 -14.472 -20.947  0.00  0.00    +0.000 C 
ATOM     17  C   UNL     1      32.767 -12.666 -22.173  0.00  0.00    +0.000 C 
ATOM     18  C   UNL     1      32.924 -13.281 -20.782  0.00  0.00    +0.000 C 
ENDBRANCH  13  14
ENDBRANCH  12  13
ENDBRANCH   9  12
ENDBRANCH   1  10
BRANCH   4  21
ATOM     19  O   UNL     1      33.183 -23.578 -18.585  0.00  0.00    -0.270 OA
ATOM     20  N   UNL     1      32.792 -22.066 -16.834  0.00  0.00    -0.279 N 
ATOM     21  C   UNL     1      33.354 -22.471 -18.050  0.00  0.00    +0.249 C 
ATOM     22  H   UNL     1      33.022 -21.154 -16.539  0.00  0.00    +0.155 HD
BRANCH  20  25
ATOM     23  N   UNL     1      31.675 -24.163 -13.997  0.00  0.00    -0.228 NA
ATOM     24  N   UNL     1      29.508 -24.948 -13.393  0.00  0.00    -0.343 N 
ATOM     25  C   UNL     1      31.936 -22.795 -15.973  0.00  0.00    +0.070 C 
ATOM     26  C   UNL     1      30.569 -22.873 -16.216  0.00  0.00    +0.019 C 
ATOM     27  C   UNL     1      32.436 -23.452 -14.859  0.00  0.00    +0.115 C 
ATOM     28  C   UNL     1      29.755 -23.595 -15.350  0.00  0.00    +0.035 C 
ATOM     29  C   UNL     1      30.352 -24.216 -14.265  0.00  0.00    +0.125 C 
ATOM     30  H   UNL     1      29.890 -25.406 -12.609  0.00  0.00    +0.144 HD
ATOM     31  H   UNL     1      28.542 -25.000 -13.571  0.00  0.00    +0.144 HD
ENDBRANCH  20  25
ENDBRANCH   4  21
TORSDOF 6
ENDMDL
