MODEL 1
REMARK VINA RESULT:     -13.1      0.000      0.000
REMARK  Name = 5243
REMARK  7 active torsions:
REMARK  status: ('A' for Active; 'I' for Inactive)
REMARK    1  A    between atoms: C_1  and  C_3
REMARK    2  A    between atoms: C_1  and  C_8
REMARK    3  A    between atoms: C_1  and  C_19
REMARK    4  A    between atoms: C_13  and  O_14
REMARK    5  A    between atoms: O_14  and  S_15
REMARK    6  A    between atoms: C_24  and  O_25
REMARK    7  A    between atoms: O_25  and  S_26
REMARK                            x       y       z     vdW  Elec       q    Type
REMARK                         _______ _______ _______ _____ _____    ______ ____
ROOT
ATOM      1  C   UNL     1      33.488 -22.870 -16.960  0.00  0.00    +0.085 C 
ENDROOT
BRANCH   1   3
ATOM      2  N   UNL     1      31.071 -22.732 -16.993  0.00  0.00    -0.248 NA
ATOM      3  C   UNL     1      32.148 -22.664 -16.218  0.00  0.00    +0.067 C 
ATOM      4  C   UNL     1      32.204 -22.437 -14.878  0.00  0.00    +0.015 C 
ATOM      5  C   UNL     1      30.982 -22.256 -14.239  0.00  0.00    +0.003 C 
ATOM      6  C   UNL     1      29.902 -22.549 -16.338  0.00  0.00    +0.098 C 
ATOM      7  C   UNL     1      29.804 -22.311 -14.977  0.00  0.00    +0.021 C 
ENDBRANCH   1   3
BRANCH   1   8
ATOM      8  C   UNL     1      34.683 -23.065 -16.091  0.00  0.00    -0.013 C 
ATOM      9  C   UNL     1      34.812 -24.228 -15.331  0.00  0.00    -0.000 C 
ATOM     10  C   UNL     1      35.673 -22.083 -16.037  0.00  0.00    -0.000 C 
ATOM     11  C   UNL     1      35.930 -24.409 -14.518  0.00  0.00    +0.040 C 
ATOM     12  C   UNL     1      36.792 -22.264 -15.223  0.00  0.00    +0.040 C 
ATOM     13  C   UNL     1      36.920 -23.428 -14.463  0.00  0.00    +0.176 C 
BRANCH  13  14
ATOM     14  O   UNL     1      38.010 -23.605 -13.669  0.00  0.00    -0.322 OA
BRANCH  14  15
ATOM     15  S   UNL     1      39.039 -24.847 -13.993  0.00  0.00    +0.282 S 
ATOM     16  O   UNL     1      40.520 -24.179 -13.838  0.00  0.00    -0.105 OA
ATOM     17  O   UNL     1      38.896 -25.859 -12.962  0.00  0.00    -0.012 OA
ATOM     18  O   UNL     1      38.869 -25.206 -15.389  0.00  0.00    -0.105 OA
ENDBRANCH  14  15
ENDBRANCH  13  14
ENDBRANCH   1   8
BRANCH   1  19
ATOM     19  C   UNL     1      33.671 -21.878 -18.132  0.00  0.00    -0.013 C 
ATOM     20  C   UNL     1      32.555 -21.264 -18.635  0.00  0.00    -0.000 C 
ATOM     21  C   UNL     1      34.938 -21.669 -18.605  0.00  0.00    -0.000 C 
ATOM     22  C   UNL     1      32.720 -20.370 -19.693  0.00  0.00    +0.040 C 
ATOM     23  C   UNL     1      35.103 -20.775 -19.663  0.00  0.00    +0.040 C 
ATOM     24  C   UNL     1      33.994 -20.125 -20.207  0.00  0.00    +0.176 C 
BRANCH  24  25
ATOM     25  O   UNL     1      34.154 -19.253 -21.239  0.00  0.00    -0.322 OA
BRANCH  25  26
ATOM     26  S   UNL     1      35.394 -18.174 -21.185  0.00  0.00    +0.282 S 
ATOM     27  O   UNL     1      34.703 -16.814 -20.604  0.00  0.00    -0.105 OA
ATOM     28  O   UNL     1      36.372 -18.627 -20.213  0.00  0.00    -0.012 OA
ATOM     29  O   UNL     1      35.803 -17.904 -22.551  0.00  0.00    -0.105 OA
ENDBRANCH  25  26
ENDBRANCH  24  25
ENDBRANCH   1  19
TORSDOF 7
ENDMDL
MODEL 2
REMARK VINA RESULT:     -12.7      1.014      1.715
REMARK  Name = 5243
REMARK  7 active torsions:
REMARK  status: ('A' for Active; 'I' for Inactive)
REMARK    1  A    between atoms: C_1  and  C_3
REMARK    2  A    between atoms: C_1  and  C_8
REMARK    3  A    between atoms: C_1  and  C_19
REMARK    4  A    between atoms: C_13  and  O_14
REMARK    5  A    between atoms: O_14  and  S_15
REMARK    6  A    between atoms: C_24  and  O_25
REMARK    7  A    between atoms: O_25  and  S_26
REMARK                            x       y       z     vdW  Elec       q    Type
REMARK                         _______ _______ _______ _____ _____    ______ ____
ROOT
ATOM      1  C   UNL     1      33.366 -22.888 -16.927  0.00  0.00    +0.085 C 
ENDROOT
BRANCH   1   3
ATOM      2  N   UNL     1      30.953 -22.708 -17.020  0.00  0.00    -0.248 NA
ATOM      3  C   UNL     1      32.012 -22.661 -16.218  0.00  0.00    +0.067 C 
ATOM      4  C   UNL     1      32.037 -22.441 -14.876  0.00  0.00    +0.015 C 
ATOM      5  C   UNL     1      30.803 -22.241 -14.268  0.00  0.00    +0.003 C 
ATOM      6  C   UNL     1      29.771 -22.508 -16.395  0.00  0.00    +0.098 C 
ATOM      7  C   UNL     1      29.643 -22.273 -15.035  0.00  0.00    +0.021 C 
ENDBRANCH   1   3
BRANCH   1   8
ATOM      8  C   UNL     1      34.538 -23.093 -16.029  0.00  0.00    -0.013 C 
ATOM      9  C   UNL     1      35.501 -22.093 -15.899  0.00  0.00    -0.000 C 
ATOM     10  C   UNL     1      34.670 -24.286 -15.318  0.00  0.00    -0.000 C 
ATOM     11  C   UNL     1      36.598 -22.286 -15.059  0.00  0.00    +0.040 C 
ATOM     12  C   UNL     1      35.767 -24.479 -14.477  0.00  0.00    +0.040 C 
ATOM     13  C   UNL     1      36.731 -23.479 -14.348  0.00  0.00    +0.176 C 
BRANCH  13  14
ATOM     14  O   UNL     1      37.801 -23.667 -13.529  0.00  0.00    -0.322 OA
BRANCH  14  15
ATOM     15  S   UNL     1      37.600 -23.502 -11.905  0.00  0.00    +0.282 S 
ATOM     16  O   UNL     1      36.304 -22.520 -11.769  0.00  0.00    -0.105 OA
ATOM     17  O   UNL     1      37.245 -24.791 -11.341  0.00  0.00    -0.012 OA
ATOM     18  O   UNL     1      38.749 -22.778 -11.391  0.00  0.00    -0.105 OA
ENDBRANCH  14  15
ENDBRANCH  13  14
ENDBRANCH   1   8
BRANCH   1  19
ATOM     19  C   UNL     1      33.589 -21.904 -18.100  0.00  0.00    -0.013 C 
ATOM     20  C   UNL     1      32.497 -21.258 -18.613  0.00  0.00    -0.000 C 
ATOM     21  C   UNL     1      34.865 -21.734 -18.562  0.00  0.00    -0.000 C 
ATOM     22  C   UNL     1      32.698 -20.372 -19.671  0.00  0.00    +0.040 C 
ATOM     23  C   UNL     1      35.066 -20.848 -19.620  0.00  0.00    +0.040 C 
ATOM     24  C   UNL     1      33.983 -20.166 -20.174  0.00  0.00    +0.176 C 
BRANCH  24  25
ATOM     25  O   UNL     1      34.178 -19.301 -21.207  0.00  0.00    -0.322 OA
BRANCH  25  26
ATOM     26  S   UNL     1      35.429 -18.237 -21.129  0.00  0.00    +0.282 S 
ATOM     27  O   UNL     1      34.738 -16.862 -20.586  0.00  0.00    -0.105 OA
ATOM     28  O   UNL     1      36.372 -18.690 -20.122  0.00  0.00    -0.012 OA
ATOM     29  O   UNL     1      35.883 -17.990 -22.485  0.00  0.00    -0.105 OA
ENDBRANCH  25  26
ENDBRANCH  24  25
ENDBRANCH   1  19
TORSDOF 7
ENDMDL
MODEL 3
REMARK VINA RESULT:     -12.7      4.159      6.225
REMARK  Name = 5243
REMARK  7 active torsions:
REMARK  status: ('A' for Active; 'I' for Inactive)
REMARK    1  A    between atoms: C_1  and  C_3
REMARK    2  A    between atoms: C_1  and  C_8
REMARK    3  A    between atoms: C_1  and  C_19
REMARK    4  A    between atoms: C_13  and  O_14
REMARK    5  A    between atoms: O_14  and  S_15
REMARK    6  A    between atoms: C_24  and  O_25
REMARK    7  A    between atoms: O_25  and  S_26
REMARK                            x       y       z     vdW  Elec       q    Type
REMARK                         _______ _______ _______ _____ _____    ______ ____
ROOT
ATOM      1  C   UNL     1      34.096 -22.545 -15.295  0.00  0.00    +0.085 C 
ENDROOT
BRANCH   1   3
ATOM      2  N   UNL     1      35.045 -24.764 -15.483  0.00  0.00    -0.248 NA
ATOM      3  C   UNL     1      34.983 -23.674 -14.724  0.00  0.00    +0.067 C 
ATOM      4  C   UNL     1      35.595 -23.447 -13.531  0.00  0.00    +0.015 C 
ATOM      5  C   UNL     1      36.385 -24.483 -13.045  0.00  0.00    +0.003 C 
ATOM      6  C   UNL     1      35.821 -25.749 -14.978  0.00  0.00    +0.098 C 
ATOM      7  C   UNL     1      36.506 -25.659 -13.776  0.00  0.00    +0.021 C 
ENDBRANCH   1   3
BRANCH   1   8
ATOM      8  C   UNL     1      32.625 -22.768 -15.197  0.00  0.00    -0.013 C 
ATOM      9  C   UNL     1      31.968 -22.567 -13.983  0.00  0.00    -0.000 C 
ATOM     10  C   UNL     1      31.906 -23.179 -16.319  0.00  0.00    -0.000 C 
ATOM     11  C   UNL     1      30.593 -22.776 -13.891  0.00  0.00    +0.040 C 
ATOM     12  C   UNL     1      30.529 -23.389 -16.228  0.00  0.00    +0.040 C 
ATOM     13  C   UNL     1      29.873 -23.187 -15.013  0.00  0.00    +0.176 C 
BRANCH  13  14
ATOM     14  O   UNL     1      28.531 -23.392 -14.923  0.00  0.00    -0.322 OA
BRANCH  14  15
ATOM     15  S   UNL     1      27.536 -22.640 -15.995  0.00  0.00    +0.282 S 
ATOM     16  O   UNL     1      27.213 -23.794 -17.103  0.00  0.00    -0.105 OA
ATOM     17  O   UNL     1      26.293 -22.301 -15.328  0.00  0.00    -0.012 OA
ATOM     18  O   UNL     1      28.308 -21.605 -16.660  0.00  0.00    -0.105 OA
ENDBRANCH  14  15
ENDBRANCH  13  14
ENDBRANCH   1   8
BRANCH   1  19
ATOM     19  C   UNL     1      34.602 -22.033 -16.664  0.00  0.00    -0.013 C 
ATOM     20  C   UNL     1      33.765 -22.146 -17.741  0.00  0.00    -0.000 C 
ATOM     21  C   UNL     1      35.859 -21.495 -16.724  0.00  0.00    -0.000 C 
ATOM     22  C   UNL     1      34.222 -21.685 -18.976  0.00  0.00    +0.040 C 
ATOM     23  C   UNL     1      36.315 -21.034 -17.959  0.00  0.00    +0.040 C 
ATOM     24  C   UNL     1      35.496 -21.129 -19.085  0.00  0.00    +0.176 C 
BRANCH  24  25
ATOM     25  O   UNL     1      35.941 -20.679 -20.291  0.00  0.00    -0.322 OA
BRANCH  25  26
ATOM     26  S   UNL     1      35.574 -19.144 -20.753  0.00  0.00    +0.282 S 
ATOM     27  O   UNL     1      35.757 -19.171 -22.375  0.00  0.00    -0.105 OA
ATOM     28  O   UNL     1      34.175 -18.887 -20.466  0.00  0.00    -0.012 OA
ATOM     29  O   UNL     1      36.596 -18.266 -20.215  0.00  0.00    -0.105 OA
ENDBRANCH  25  26
ENDBRANCH  24  25
ENDBRANCH   1  19
TORSDOF 7
ENDMDL
MODEL 4
REMARK VINA RESULT:     -12.6      1.503      7.440
REMARK  Name = 5243
REMARK  7 active torsions:
REMARK  status: ('A' for Active; 'I' for Inactive)
REMARK    1  A    between atoms: C_1  and  C_3
REMARK    2  A    between atoms: C_1  and  C_8
REMARK    3  A    between atoms: C_1  and  C_19
REMARK    4  A    between atoms: C_13  and  O_14
REMARK    5  A    between atoms: O_14  and  S_15
REMARK    6  A    between atoms: C_24  and  O_25
REMARK    7  A    between atoms: O_25  and  S_26
REMARK                            x       y       z     vdW  Elec       q    Type
REMARK                         _______ _______ _______ _____ _____    ______ ____
ROOT
ATOM      1  C   UNL     1      34.360 -22.668 -15.228  0.00  0.00    +0.085 C 
ENDROOT
BRANCH   1   3
ATOM      2  N   UNL     1      33.008 -24.111 -13.832  0.00  0.00    -0.248 NA
ATOM      3  C   UNL     1      32.978 -23.233 -14.829  0.00  0.00    +0.067 C 
ATOM      4  C   UNL     1      31.896 -22.788 -15.522  0.00  0.00    +0.015 C 
ATOM      5  C   UNL     1      30.668 -23.316 -15.139  0.00  0.00    +0.003 C 
ATOM      6  C   UNL     1      31.797 -24.604 -13.488  0.00  0.00    +0.098 C 
ATOM      7  C   UNL     1      30.609 -24.242 -14.103  0.00  0.00    +0.021 C 
ENDBRANCH   1   3
BRANCH   1   8
ATOM      8  C   UNL     1      34.487 -22.214 -16.643  0.00  0.00    -0.013 C 
ATOM      9  C   UNL     1      35.658 -21.593 -17.074  0.00  0.00    -0.000 C 
ATOM     10  C   UNL     1      33.432 -22.411 -17.535  0.00  0.00    -0.000 C 
ATOM     11  C   UNL     1      35.775 -21.168 -18.397  0.00  0.00    +0.040 C 
ATOM     12  C   UNL     1      33.550 -21.986 -18.859  0.00  0.00    +0.040 C 
ATOM     13  C   UNL     1      34.722 -21.364 -19.290  0.00  0.00    +0.176 C 
BRANCH  13  14
ATOM     14  O   UNL     1      34.837 -20.949 -20.580  0.00  0.00    -0.322 OA
BRANCH  14  15
ATOM     15  S   UNL     1      34.421 -19.404 -20.961  0.00  0.00    +0.282 S 
ATOM     16  O   UNL     1      34.496 -19.369 -22.591  0.00  0.00    -0.105 OA
ATOM     17  O   UNL     1      33.042 -19.177 -20.572  0.00  0.00    -0.012 OA
ATOM     18  O   UNL     1      35.468 -18.531 -20.460  0.00  0.00    -0.105 OA
ENDBRANCH  14  15
ENDBRANCH  13  14
ENDBRANCH   1   8
BRANCH   1  19
ATOM     19  C   UNL     1      35.527 -23.533 -14.699  0.00  0.00    -0.013 C 
ATOM     20  C   UNL     1      36.391 -22.967 -13.802  0.00  0.00    -0.000 C 
ATOM     21  C   UNL     1      35.632 -24.819 -15.156  0.00  0.00    -0.000 C 
ATOM     22  C   UNL     1      37.445 -23.747 -13.325  0.00  0.00    +0.040 C 
ATOM     23  C   UNL     1      36.685 -25.599 -14.679  0.00  0.00    +0.040 C 
ATOM     24  C   UNL     1      37.592 -25.064 -13.763  0.00  0.00    +0.176 C 
BRANCH  24  25
ATOM     25  O   UNL     1      38.619 -25.825 -13.297  0.00  0.00    -0.322 OA
BRANCH  25  26
ATOM     26  S   UNL     1      40.093 -25.698 -14.016  0.00  0.00    +0.282 S 
ATOM     27  O   UNL     1      40.573 -24.180 -13.658  0.00  0.00    -0.105 OA
ATOM     28  O   UNL     1      41.012 -26.620 -13.374  0.00  0.00    -0.012 OA
ATOM     29  O   UNL     1      39.890 -25.762 -15.451  0.00  0.00    -0.105 OA
ENDBRANCH  25  26
ENDBRANCH  24  25
ENDBRANCH   1  19
TORSDOF 7
ENDMDL
MODEL 5
REMARK VINA RESULT:     -12.3      4.190      7.297
REMARK  Name = 5243
REMARK  7 active torsions:
REMARK  status: ('A' for Active; 'I' for Inactive)
REMARK    1  A    between atoms: C_1  and  C_3
REMARK    2  A    between atoms: C_1  and  C_8
REMARK    3  A    between atoms: C_1  and  C_19
REMARK    4  A    between atoms: C_13  and  O_14
REMARK    5  A    between atoms: O_14  and  S_15
REMARK    6  A    between atoms: C_24  and  O_25
REMARK    7  A    between atoms: O_25  and  S_26
REMARK                            x       y       z     vdW  Elec       q    Type
REMARK                         _______ _______ _______ _____ _____    ______ ____
ROOT
ATOM      1  C   UNL     1      33.883 -23.180 -16.444  0.00  0.00    +0.085 C 
ENDROOT
BRANCH   1   3
ATOM      2  N   UNL     1      35.244 -24.763 -15.218  0.00  0.00    -0.248 NA
ATOM      3  C   UNL     1      34.797 -23.511 -15.243  0.00  0.00    +0.067 C 
ATOM      4  C   UNL     1      35.047 -22.514 -14.353  0.00  0.00    +0.015 C 
ATOM      5  C   UNL     1      35.873 -22.845 -13.283  0.00  0.00    +0.003 C 
ATOM      6  C   UNL     1      36.042 -25.048 -14.164  0.00  0.00    +0.098 C 
ATOM      7  C   UNL     1      36.384 -24.133 -13.180  0.00  0.00    +0.021 C 
ENDBRANCH   1   3
BRANCH   1   8
ATOM      8  C   UNL     1      34.463 -22.255 -17.460  0.00  0.00    -0.013 C 
ATOM      9  C   UNL     1      35.694 -21.643 -17.224  0.00  0.00    -0.000 C 
ATOM     10  C   UNL     1      33.773 -22.002 -18.646  0.00  0.00    -0.000 C 
ATOM     11  C   UNL     1      36.235 -20.778 -18.174  0.00  0.00    +0.040 C 
ATOM     12  C   UNL     1      34.315 -21.136 -19.597  0.00  0.00    +0.040 C 
ATOM     13  C   UNL     1      35.546 -20.524 -19.360  0.00  0.00    +0.176 C 
BRANCH  13  14
ATOM     14  O   UNL     1      36.074 -19.679 -20.287  0.00  0.00    -0.322 OA
BRANCH  14  15
ATOM     15  S   UNL     1      35.079 -18.625 -21.064  0.00  0.00    +0.282 S 
ATOM     16  O   UNL     1      35.674 -18.574 -22.583  0.00  0.00    -0.105 OA
ATOM     17  O   UNL     1      33.746 -19.194 -21.126  0.00  0.00    -0.012 OA
ATOM     18  O   UNL     1      35.281 -17.314 -20.475  0.00  0.00    -0.105 OA
ENDBRANCH  14  15
ENDBRANCH  13  14
ENDBRANCH   1   8
BRANCH   1  19
ATOM     19  C   UNL     1      32.431 -22.870 -16.012  0.00  0.00    -0.013 C 
ATOM     20  C   UNL     1      32.099 -23.055 -14.697  0.00  0.00    -0.000 C 
ATOM     21  C   UNL     1      31.557 -22.428 -16.967  0.00  0.00    -0.000 C 
ATOM     22  C   UNL     1      30.789 -22.776 -14.308  0.00  0.00    +0.040 C 
ATOM     23  C   UNL     1      30.247 -22.148 -16.578  0.00  0.00    +0.040 C 
ATOM     24  C   UNL     1      29.863 -22.322 -15.247  0.00  0.00    +0.176 C 
BRANCH  24  25
ATOM     25  O   UNL     1      28.585 -22.050 -14.867  0.00  0.00    -0.322 OA
BRANCH  25  26
ATOM     26  S   UNL     1      27.356 -22.377 -15.910  0.00  0.00    +0.282 S 
ATOM     27  O   UNL     1      26.011 -22.106 -15.026  0.00  0.00    -0.105 OA
ATOM     28  O   UNL     1      27.383 -21.407 -16.990  0.00  0.00    -0.012 OA
ATOM     29  O   UNL     1      27.400 -23.796 -16.211  0.00  0.00    -0.105 OA
ENDBRANCH  25  26
ENDBRANCH  24  25
ENDBRANCH   1  19
TORSDOF 7
ENDMDL
MODEL 6
REMARK VINA RESULT:     -12.0      4.034      5.651
REMARK  Name = 5243
REMARK  7 active torsions:
REMARK  status: ('A' for Active; 'I' for Inactive)
REMARK    1  A    between atoms: C_1  and  C_3
REMARK    2  A    between atoms: C_1  and  C_8
REMARK    3  A    between atoms: C_1  and  C_19
REMARK    4  A    between atoms: C_13  and  O_14
REMARK    5  A    between atoms: O_14  and  S_15
REMARK    6  A    between atoms: C_24  and  O_25
REMARK    7  A    between atoms: O_25  and  S_26
REMARK                            x       y       z     vdW  Elec       q    Type
REMARK                         _______ _______ _______ _____ _____    ______ ____
ROOT
ATOM      1  C   UNL     1      34.451 -22.228 -15.870  0.00  0.00    +0.085 C 
ENDROOT
BRANCH   1   3
ATOM      2  N   UNL     1      33.632 -21.865 -18.119  0.00  0.00    -0.248 NA
ATOM      3  C   UNL     1      34.697 -21.780 -17.328  0.00  0.00    +0.067 C 
ATOM      4  C   UNL     1      35.948 -21.355 -17.650  0.00  0.00    +0.015 C 
ATOM      5  C   UNL     1      36.137 -20.959 -18.970  0.00  0.00    +0.003 C 
ATOM      6  C   UNL     1      33.854 -21.474 -19.394  0.00  0.00    +0.098 C 
ATOM      7  C   UNL     1      35.075 -21.017 -19.865  0.00  0.00    +0.021 C 
ENDBRANCH   1   3
BRANCH   1   8
ATOM      8  C   UNL     1      35.488 -23.128 -15.289  0.00  0.00    -0.013 C 
ATOM      9  C   UNL     1      36.639 -22.589 -14.717  0.00  0.00    -0.000 C 
ATOM     10  C   UNL     1      35.305 -24.511 -15.318  0.00  0.00    -0.000 C 
ATOM     11  C   UNL     1      37.609 -23.431 -14.174  0.00  0.00    +0.040 C 
ATOM     12  C   UNL     1      36.275 -25.354 -14.774  0.00  0.00    +0.040 C 
ATOM     13  C   UNL     1      37.427 -24.814 -14.202  0.00  0.00    +0.176 C 
BRANCH  13  14
ATOM     14  O   UNL     1      38.374 -25.635 -13.673  0.00  0.00    -0.322 OA
BRANCH  14  15
ATOM     15  S   UNL     1      39.909 -25.565 -14.260  0.00  0.00    +0.282 S 
ATOM     16  O   UNL     1      40.425 -24.078 -13.827  0.00  0.00    -0.105 OA
ATOM     17  O   UNL     1      40.725 -26.541 -13.563  0.00  0.00    -0.012 OA
ATOM     18  O   UNL     1      39.827 -25.591 -15.709  0.00  0.00    -0.105 OA
ENDBRANCH  14  15
ENDBRANCH  13  14
ENDBRANCH   1   8
BRANCH   1  19
ATOM     19  C   UNL     1      32.985 -22.653 -15.623  0.00  0.00    -0.013 C 
ATOM     20  C   UNL     1      32.468 -22.478 -14.368  0.00  0.00    -0.000 C 
ATOM     21  C   UNL     1      32.284 -23.183 -16.672  0.00  0.00    -0.000 C 
ATOM     22  C   UNL     1      31.146 -22.862 -14.145  0.00  0.00    +0.040 C 
ATOM     23  C   UNL     1      30.962 -23.567 -16.449  0.00  0.00    +0.040 C 
ATOM     24  C   UNL     1      30.392 -23.407 -15.185  0.00  0.00    +0.176 C 
BRANCH  24  25
ATOM     25  O   UNL     1      29.102 -23.782 -14.967  0.00  0.00    -0.322 OA
BRANCH  25  26
ATOM     26  S   UNL     1      27.917 -23.146 -15.913  0.00  0.00    +0.282 S 
ATOM     27  O   UNL     1      28.656 -21.916 -16.691  0.00  0.00    -0.105 OA
ATOM     28  O   UNL     1      27.524 -24.130 -16.904  0.00  0.00    -0.012 OA
ATOM     29  O   UNL     1      26.917 -22.566 -15.035  0.00  0.00    -0.105 OA
ENDBRANCH  25  26
ENDBRANCH  24  25
ENDBRANCH   1  19
TORSDOF 7
ENDMDL
MODEL 7
REMARK VINA RESULT:     -11.8      4.442      8.551
REMARK  Name = 5243
REMARK  7 active torsions:
REMARK  status: ('A' for Active; 'I' for Inactive)
REMARK    1  A    between atoms: C_1  and  C_3
REMARK    2  A    between atoms: C_1  and  C_8
REMARK    3  A    between atoms: C_1  and  C_19
REMARK    4  A    between atoms: C_13  and  O_14
REMARK    5  A    between atoms: O_14  and  S_15
REMARK    6  A    between atoms: C_24  and  O_25
REMARK    7  A    between atoms: O_25  and  S_26
REMARK                            x       y       z     vdW  Elec       q    Type
REMARK                         _______ _______ _______ _____ _____    ______ ____
ROOT
ATOM      1  C   UNL     1      33.326 -23.026 -16.800  0.00  0.00    +0.085 C 
ENDROOT
BRANCH   1   3
ATOM      2  N   UNL     1      35.227 -22.005 -17.897  0.00  0.00    -0.248 NA
ATOM      3  C   UNL     1      33.902 -22.105 -17.899  0.00  0.00    +0.067 C 
ATOM      4  C   UNL     1      33.017 -21.502 -18.738  0.00  0.00    +0.015 C 
ATOM      5  C   UNL     1      33.568 -20.680 -19.715  0.00  0.00    +0.003 C 
ATOM      6  C   UNL     1      35.726 -21.197 -18.859  0.00  0.00    +0.098 C 
ATOM      7  C   UNL     1      34.947 -20.519 -19.784  0.00  0.00    +0.021 C 
ENDBRANCH   1   3
BRANCH   1   8
ATOM      8  C   UNL     1      31.953 -22.686 -16.329  0.00  0.00    -0.013 C 
ATOM      9  C   UNL     1      30.969 -22.322 -17.248  0.00  0.00    -0.000 C 
ATOM     10  C   UNL     1      31.653 -22.732 -14.967  0.00  0.00    -0.000 C 
ATOM     11  C   UNL     1      29.686 -22.003 -16.806  0.00  0.00    +0.040 C 
ATOM     12  C   UNL     1      30.368 -22.413 -14.525  0.00  0.00    +0.040 C 
ATOM     13  C   UNL     1      29.384 -22.049 -15.445  0.00  0.00    +0.176 C 
BRANCH  13  14
ATOM     14  O   UNL     1      28.132 -21.737 -15.015  0.00  0.00    -0.322 OA
BRANCH  14  15
ATOM     15  S   UNL     1      26.853 -22.026 -16.008  0.00  0.00    +0.282 S 
ATOM     16  O   UNL     1      25.569 -22.033 -14.999  0.00  0.00    -0.105 OA
ATOM     17  O   UNL     1      26.700 -20.907 -16.918  0.00  0.00    -0.012 OA
ATOM     18  O   UNL     1      26.999 -23.372 -16.532  0.00  0.00    -0.105 OA
ENDBRANCH  14  15
ENDBRANCH  13  14
ENDBRANCH   1   8
BRANCH   1  19
ATOM     19  C   UNL     1      34.355 -23.333 -15.688  0.00  0.00    -0.013 C 
ATOM     20  C   UNL     1      34.908 -22.276 -15.016  0.00  0.00    -0.000 C 
ATOM     21  C   UNL     1      34.659 -24.643 -15.436  0.00  0.00    -0.000 C 
ATOM     22  C   UNL     1      35.838 -22.552 -14.013  0.00  0.00    +0.040 C 
ATOM     23  C   UNL     1      35.588 -24.919 -14.433  0.00  0.00    +0.040 C 
ATOM     24  C   UNL     1      36.178 -23.873 -13.721  0.00  0.00    +0.176 C 
BRANCH  24  25
ATOM     25  O   UNL     1      37.085 -24.142 -12.742  0.00  0.00    -0.322 OA
BRANCH  25  26
ATOM     26  S   UNL     1      36.560 -24.801 -11.329  0.00  0.00    +0.282 S 
ATOM     27  O   UNL     1      34.949 -24.545 -11.354  0.00  0.00    -0.105 OA
ATOM     28  O   UNL     1      36.785 -26.234 -11.365  0.00  0.00    -0.012 OA
ATOM     29  O   UNL     1      37.109 -24.009 -10.244  0.00  0.00    -0.105 OA
ENDBRANCH  25  26
ENDBRANCH  24  25
ENDBRANCH   1  19
TORSDOF 7
ENDMDL
MODEL 8
REMARK VINA RESULT:     -11.4      4.339      5.984
REMARK  Name = 5243
REMARK  7 active torsions:
REMARK  status: ('A' for Active; 'I' for Inactive)
REMARK    1  A    between atoms: C_1  and  C_3
REMARK    2  A    between atoms: C_1  and  C_8
REMARK    3  A    between atoms: C_1  and  C_19
REMARK    4  A    between atoms: C_13  and  O_14
REMARK    5  A    between atoms: O_14  and  S_15
REMARK    6  A    between atoms: C_24  and  O_25
REMARK    7  A    between atoms: O_25  and  S_26
REMARK                            x       y       z     vdW  Elec       q    Type
REMARK                         _______ _______ _______ _____ _____    ______ ____
ROOT
ATOM      1  C   UNL     1      34.906 -22.569 -14.953  0.00  0.00    +0.085 C 
ENDROOT
BRANCH   1   3
ATOM      2  N   UNL     1      36.903 -23.020 -13.661  0.00  0.00    -0.248 NA
ATOM      3  C   UNL     1      36.022 -23.541 -14.509  0.00  0.00    +0.067 C 
ATOM      4  C   UNL     1      35.994 -24.801 -15.019  0.00  0.00    +0.015 C 
ATOM      5  C   UNL     1      37.013 -25.651 -14.600  0.00  0.00    +0.003 C 
ATOM      6  C   UNL     1      37.878 -23.874 -13.277  0.00  0.00    +0.098 C 
ATOM      7  C   UNL     1      37.976 -25.186 -13.712  0.00  0.00    +0.021 C 
ENDBRANCH   1   3
BRANCH   1   8
ATOM      8  C   UNL     1      33.523 -22.944 -14.540  0.00  0.00    -0.013 C 
ATOM      9  C   UNL     1      32.438 -22.171 -14.951  0.00  0.00    -0.000 C 
ATOM     10  C   UNL     1      33.316 -24.068 -13.740  0.00  0.00    -0.000 C 
ATOM     11  C   UNL     1      31.146 -22.521 -14.563  0.00  0.00    +0.040 C 
ATOM     12  C   UNL     1      32.022 -24.419 -13.352  0.00  0.00    +0.040 C 
ATOM     13  C   UNL     1      30.937 -23.645 -13.763  0.00  0.00    +0.176 C 
BRANCH  13  14
ATOM     14  O   UNL     1      29.675 -23.986 -13.385  0.00  0.00    -0.322 OA
BRANCH  14  15
ATOM     15  S   UNL     1      28.644 -24.598 -14.510  0.00  0.00    +0.282 S 
ATOM     16  O   UNL     1      29.632 -25.262 -15.627  0.00  0.00    -0.105 OA
ATOM     17  O   UNL     1      27.868 -25.666 -13.908  0.00  0.00    -0.012 OA
ATOM     18  O   UNL     1      27.968 -23.478 -15.141  0.00  0.00    -0.105 OA
ENDBRANCH  14  15
ENDBRANCH  13  14
ENDBRANCH   1   8
BRANCH   1  19
ATOM     19  C   UNL     1      35.064 -22.123 -16.425  0.00  0.00    -0.013 C 
ATOM     20  C   UNL     1      36.208 -21.460 -16.777  0.00  0.00    -0.000 C 
ATOM     21  C   UNL     1      34.050 -22.415 -17.297  0.00  0.00    -0.000 C 
ATOM     22  C   UNL     1      36.350 -21.057 -18.105  0.00  0.00    +0.040 C 
ATOM     23  C   UNL     1      34.192 -22.012 -18.625  0.00  0.00    +0.040 C 
ATOM     24  C   UNL     1      35.342 -21.333 -19.029  0.00  0.00    +0.176 C 
BRANCH  24  25
ATOM     25  O   UNL     1      35.481 -20.939 -20.325  0.00  0.00    -0.322 OA
BRANCH  25  26
ATOM     26  S   UNL     1      34.843 -19.496 -20.791  0.00  0.00    +0.282 S 
ATOM     27  O   UNL     1      35.955 -18.404 -20.308  0.00  0.00    -0.105 OA
ATOM     28  O   UNL     1      34.778 -19.456 -22.241  0.00  0.00    -0.012 OA
ATOM     29  O   UNL     1      33.644 -19.271 -20.006  0.00  0.00    -0.105 OA
ENDBRANCH  25  26
ENDBRANCH  24  25
ENDBRANCH   1  19
TORSDOF 7
ENDMDL
MODEL 9
REMARK VINA RESULT:     -11.2      1.216      1.937
REMARK  Name = 5243
REMARK  7 active torsions:
REMARK  status: ('A' for Active; 'I' for Inactive)
REMARK    1  A    between atoms: C_1  and  C_3
REMARK    2  A    between atoms: C_1  and  C_8
REMARK    3  A    between atoms: C_1  and  C_19
REMARK    4  A    between atoms: C_13  and  O_14
REMARK    5  A    between atoms: O_14  and  S_15
REMARK    6  A    between atoms: C_24  and  O_25
REMARK    7  A    between atoms: O_25  and  S_26
REMARK                            x       y       z     vdW  Elec       q    Type
REMARK                         _______ _______ _______ _____ _____    ______ ____
ROOT
ATOM      1  C   UNL     1      34.165 -23.567 -16.193  0.00  0.00    +0.085 C 
ENDROOT
BRANCH   1   3
ATOM      2  N   UNL     1      31.881 -22.779 -16.044  0.00  0.00    -0.248 NA
ATOM      3  C   UNL     1      32.961 -23.107 -15.341  0.00  0.00    +0.067 C 
ATOM      4  C   UNL     1      33.122 -23.083 -13.991  0.00  0.00    +0.015 C 
ATOM      5  C   UNL     1      32.019 -22.664 -13.253  0.00  0.00    +0.003 C 
ATOM      6  C   UNL     1      30.831 -22.376 -15.294  0.00  0.00    +0.098 C 
ATOM      7  C   UNL     1      30.848 -22.302 -13.910  0.00  0.00    +0.021 C 
ENDBRANCH   1   3
BRANCH   1   8
ATOM      8  C   UNL     1      35.326 -24.107 -15.428  0.00  0.00    -0.013 C 
ATOM      9  C   UNL     1      35.481 -25.484 -15.273  0.00  0.00    -0.000 C 
ATOM     10  C   UNL     1      36.258 -23.232 -14.867  0.00  0.00    -0.000 C 
ATOM     11  C   UNL     1      36.566 -25.988 -14.557  0.00  0.00    +0.040 C 
ATOM     12  C   UNL     1      37.344 -23.737 -14.151  0.00  0.00    +0.040 C 
ATOM     13  C   UNL     1      37.498 -25.115 -13.996  0.00  0.00    +0.176 C 
BRANCH  13  14
ATOM     14  O   UNL     1      38.557 -25.607 -13.297  0.00  0.00    -0.322 OA
BRANCH  14  15
ATOM     15  S   UNL     1      40.044 -25.611 -14.001  0.00  0.00    +0.282 S 
ATOM     16  O   UNL     1      40.608 -24.103 -13.730  0.00  0.00    -0.105 OA
ATOM     17  O   UNL     1      40.899 -26.542 -13.290  0.00  0.00    -0.012 OA
ATOM     18  O   UNL     1      39.852 -25.751 -15.433  0.00  0.00    -0.105 OA
ENDBRANCH  14  15
ENDBRANCH  13  14
ENDBRANCH   1   8
BRANCH   1  19
ATOM     19  C   UNL     1      34.515 -22.560 -17.312  0.00  0.00    -0.013 C 
ATOM     20  C   UNL     1      35.668 -21.833 -17.185  0.00  0.00    -0.000 C 
ATOM     21  C   UNL     1      33.653 -22.449 -18.369  0.00  0.00    -0.000 C 
ATOM     22  C   UNL     1      35.983 -20.924 -18.195  0.00  0.00    +0.040 C 
ATOM     23  C   UNL     1      33.969 -21.539 -19.379  0.00  0.00    +0.040 C 
ATOM     24  C   UNL     1      35.134 -20.777 -19.292  0.00  0.00    +0.176 C 
BRANCH  24  25
ATOM     25  O   UNL     1      35.442 -19.889 -20.277  0.00  0.00    -0.322 OA
BRANCH  25  26
ATOM     26  S   UNL     1      34.233 -19.014 -20.967  0.00  0.00    +0.282 S 
ATOM     27  O   UNL     1      34.398 -19.312 -22.563  0.00  0.00    -0.105 OA
ATOM     28  O   UNL     1      32.956 -19.556 -20.542  0.00  0.00    -0.012 OA
ATOM     29  O   UNL     1      34.530 -17.610 -20.755  0.00  0.00    -0.105 OA
ENDBRANCH  25  26
ENDBRANCH  24  25
ENDBRANCH   1  19
TORSDOF 7
ENDMDL
