MODEL 1
REMARK VINA RESULT:     -11.6      0.000      0.000
REMARK  Name = 5326887
REMARK  9 active torsions:
REMARK  status: ('A' for Active; 'I' for Inactive)
REMARK    1  A    between atoms: N_3  and  C_19
REMARK    2  A    between atoms: C_6  and  C_11
REMARK    3  A    between atoms: C_17  and  O_24
REMARK    4  A    between atoms: O_24  and  C_25
REMARK    5  A    between atoms: C_25  and  C_26
REMARK    6  A    between atoms: C_26  and  C_27
REMARK    7  A    between atoms: C_27  and  C_28
REMARK    8  A    between atoms: C_28  and  C_30
REMARK    9  A    between atoms: C_30  and  O_31
REMARK                            x       y       z     vdW  Elec       q    Type
REMARK                         _______ _______ _______ _____ _____    ______ ____
ROOT
ATOM      1  O   UNL     1      31.181 -12.955 -21.777  0.00  0.00    -0.252 OA
ATOM      2  O   UNL     1      30.039 -10.471 -21.269  0.00  0.00    -0.270 OA
ATOM      3  N   UNL     1      33.221 -12.800 -22.939  0.00  0.00    -0.268 N 
ATOM      4  N   UNL     1      32.045 -10.884 -22.377  0.00  0.00    -0.236 N 
ATOM      5  C   UNL     1      32.065 -12.292 -22.312  0.00  0.00    +0.310 C 
ATOM      6  C   UNL     1      31.041 -10.070 -21.855  0.00  0.00    +0.253 C 
ATOM      7  H   UNL     1      33.832 -12.129 -23.322  0.00  0.00    +0.156 HD
ATOM      8  H   UNL     1      32.801 -10.440 -22.827  0.00  0.00    +0.159 HD
ENDROOT
BRANCH   6  11
ATOM      9 CL   UNL     1      31.677  -8.418 -19.323  0.00  0.00    -0.082 Cl
ATOM     10 CL   UNL     1      31.867  -4.184 -22.638  0.00  0.00    -0.082 Cl
ATOM     11  C   UNL     1      31.251  -8.608 -22.012  0.00  0.00    +0.064 C 
ATOM     12  C   UNL     1      31.543  -7.783 -20.924  0.00  0.00    +0.063 C 
ATOM     13  C   UNL     1      31.150  -8.065 -23.292  0.00  0.00    +0.006 C 
ATOM     14  C   UNL     1      31.734  -6.416 -21.119  0.00  0.00    +0.023 C 
ATOM     15  C   UNL     1      31.341  -6.697 -23.486  0.00  0.00    +0.012 C 
ATOM     16  C   UNL     1      31.634  -5.872 -22.400  0.00  0.00    +0.059 C 
ENDBRANCH   6  11
BRANCH   3  19
ATOM     17  C   UNL     1      34.436 -16.208 -22.165  0.00  0.00    +0.136 C 
ATOM     18  C   UNL     1      34.050 -14.878 -21.993  0.00  0.00    +0.026 C 
ATOM     19  C   UNL     1      33.611 -14.134 -23.088  0.00  0.00    +0.050 C 
ATOM     20  C   UNL     1      34.383 -16.792 -23.430  0.00  0.00    +0.037 C 
ATOM     21  C   UNL     1      33.558 -14.718 -24.353  0.00  0.00    +0.015 C 
ATOM     22  C   UNL     1      34.112 -14.260 -20.632  0.00  0.00    +0.036 C 
ATOM     23  C   UNL     1      33.943 -16.047 -24.524  0.00  0.00    +0.004 C 
BRANCH  17  24
ATOM     24  O   UNL     1      34.871 -16.957 -21.101  0.00  0.00    -0.476 OA
BRANCH  24  25
ATOM     25  C   UNL     1      35.894 -17.906 -21.361  0.00  0.00    +0.205 C 
BRANCH  25  26
ATOM     26  C   UNL     1      35.749 -19.097 -20.421  0.00  0.00    +0.048 C 
BRANCH  26  27
ATOM     27  C   UNL     1      34.394 -19.798 -20.581  0.00  0.00    +0.015 C 
BRANCH  27  28
ATOM     28  C   UNL     1      34.147 -20.847 -19.497  0.00  0.00    +0.109 C 
BRANCH  28  30
ATOM     29  O   UNL     1      32.224 -22.030 -18.583  0.00  0.00    -0.250 OA
ATOM     30  C   UNL     1      32.679 -21.102 -19.234  0.00  0.00    +0.314 C 
BRANCH  30  31
ATOM     31  O   UNL     1      31.898 -20.171 -19.841  0.00  0.00    -0.480 OA
ATOM     32  H   UNL     1      32.196 -19.285 -19.915  0.00  0.00    +0.295 HD
ENDBRANCH  30  31
ENDBRANCH  28  30
ENDBRANCH  27  28
ENDBRANCH  26  27
ENDBRANCH  25  26
ENDBRANCH  24  25
ENDBRANCH  17  24
ENDBRANCH   3  19
TORSDOF 9
ENDMDL
MODEL 2
REMARK VINA RESULT:     -11.5      1.107      1.345
REMARK  Name = 5326887
REMARK  9 active torsions:
REMARK  status: ('A' for Active; 'I' for Inactive)
REMARK    1  A    between atoms: N_3  and  C_19
REMARK    2  A    between atoms: C_6  and  C_11
REMARK    3  A    between atoms: C_17  and  O_24
REMARK    4  A    between atoms: O_24  and  C_25
REMARK    5  A    between atoms: C_25  and  C_26
REMARK    6  A    between atoms: C_26  and  C_27
REMARK    7  A    between atoms: C_27  and  C_28
REMARK    8  A    between atoms: C_28  and  C_30
REMARK    9  A    between atoms: C_30  and  O_31
REMARK                            x       y       z     vdW  Elec       q    Type
REMARK                         _______ _______ _______ _____ _____    ______ ____
ROOT
ATOM      1  O   UNL     1      31.204 -12.936 -21.946  0.00  0.00    -0.252 OA
ATOM      2  O   UNL     1      30.027 -10.444 -21.572  0.00  0.00    -0.270 OA
ATOM      3  N   UNL     1      33.378 -12.793 -22.835  0.00  0.00    -0.268 N 
ATOM      4  N   UNL     1      32.155 -10.869 -22.417  0.00  0.00    -0.236 N 
ATOM      5  C   UNL     1      32.155 -12.277 -22.358  0.00  0.00    +0.310 C 
ATOM      6  C   UNL     1      31.099 -10.049 -22.023  0.00  0.00    +0.253 C 
ATOM      7  H   UNL     1      34.037 -12.125 -23.133  0.00  0.00    +0.156 HD
ATOM      8  H   UNL     1      32.965 -10.429 -22.764  0.00  0.00    +0.159 HD
ENDROOT
BRANCH   6  11
ATOM      9 CL   UNL     1      31.582  -8.443 -19.428  0.00  0.00    -0.082 Cl
ATOM     10 CL   UNL     1      32.057  -4.165 -22.657  0.00  0.00    -0.082 Cl
ATOM     11  C   UNL     1      31.339  -8.588 -22.142  0.00  0.00    +0.064 C 
ATOM     12  C   UNL     1      31.566  -7.783 -21.025  0.00  0.00    +0.063 C 
ATOM     13  C   UNL     1      31.334  -8.025 -23.418  0.00  0.00    +0.006 C 
ATOM     14  C   UNL     1      31.789  -6.416 -21.185  0.00  0.00    +0.023 C 
ATOM     15  C   UNL     1      31.556  -6.657 -23.577  0.00  0.00    +0.012 C 
ATOM     16  C   UNL     1      31.784  -5.853 -22.461  0.00  0.00    +0.059 C 
ENDBRANCH   6  11
BRANCH   3  19
ATOM     17  C   UNL     1      34.484 -16.206 -21.935  0.00  0.00    +0.136 C 
ATOM     18  C   UNL     1      34.091 -14.874 -21.806  0.00  0.00    +0.026 C 
ATOM     19  C   UNL     1      33.773 -14.128 -22.942  0.00  0.00    +0.050 C 
ATOM     20  C   UNL     1      34.559 -16.792 -23.198  0.00  0.00    +0.037 C 
ATOM     21  C   UNL     1      33.848 -14.714 -24.205  0.00  0.00    +0.015 C 
ATOM     22  C   UNL     1      34.014 -14.254 -20.447  0.00  0.00    +0.036 C 
ATOM     23  C   UNL     1      34.241 -16.047 -24.333  0.00  0.00    +0.004 C 
BRANCH  17  24
ATOM     24  O   UNL     1      34.801 -16.955 -20.831  0.00  0.00    -0.476 OA
BRANCH  24  25
ATOM     25  C   UNL     1      35.273 -18.274 -21.065  0.00  0.00    +0.205 C 
BRANCH  25  26
ATOM     26  C   UNL     1      34.098 -19.242 -21.132  0.00  0.00    +0.048 C 
BRANCH  26  27
ATOM     27  C   UNL     1      34.143 -20.284 -20.007  0.00  0.00    +0.015 C 
BRANCH  27  28
ATOM     28  C   UNL     1      35.573 -20.628 -19.587  0.00  0.00    +0.109 C 
BRANCH  28  30
ATOM     29  O   UNL     1      36.546 -21.233 -17.437  0.00  0.00    -0.250 OA
ATOM     30  C   UNL     1      35.649 -21.349 -18.259  0.00  0.00    +0.314 C 
BRANCH  30  31
ATOM     31  O   UNL     1      34.590 -22.183 -18.087  0.00  0.00    -0.480 OA
ATOM     32  H   UNL     1      34.186 -22.588 -18.829  0.00  0.00    +0.295 HD
ENDBRANCH  30  31
ENDBRANCH  28  30
ENDBRANCH  27  28
ENDBRANCH  26  27
ENDBRANCH  25  26
ENDBRANCH  24  25
ENDBRANCH  17  24
ENDBRANCH   3  19
TORSDOF 9
ENDMDL
MODEL 3
REMARK VINA RESULT:     -11.2      5.069     11.145
REMARK  Name = 5326887
REMARK  9 active torsions:
REMARK  status: ('A' for Active; 'I' for Inactive)
REMARK    1  A    between atoms: N_3  and  C_19
REMARK    2  A    between atoms: C_6  and  C_11
REMARK    3  A    between atoms: C_17  and  O_24
REMARK    4  A    between atoms: O_24  and  C_25
REMARK    5  A    between atoms: C_25  and  C_26
REMARK    6  A    between atoms: C_26  and  C_27
REMARK    7  A    between atoms: C_27  and  C_28
REMARK    8  A    between atoms: C_28  and  C_30
REMARK    9  A    between atoms: C_30  and  O_31
REMARK                            x       y       z     vdW  Elec       q    Type
REMARK                         _______ _______ _______ _____ _____    ______ ____
ROOT
ATOM      1  O   UNL     1      34.271 -19.584 -22.072  0.00  0.00    -0.252 OA
ATOM      2  O   UNL     1      34.586 -21.820 -20.449  0.00  0.00    -0.270 OA
ATOM      3  N   UNL     1      34.645 -17.565 -20.925  0.00  0.00    -0.268 N 
ATOM      4  N   UNL     1      34.840 -19.593 -19.820  0.00  0.00    -0.236 N 
ATOM      5  C   UNL     1      34.556 -18.966 -21.050  0.00  0.00    +0.310 C 
ATOM      6  C   UNL     1      34.837 -20.970 -19.600  0.00  0.00    +0.253 C 
ATOM      7  H   UNL     1      34.884 -17.229 -20.030  0.00  0.00    +0.156 HD
ATOM      8  H   UNL     1      35.059 -19.012 -19.055  0.00  0.00    +0.159 HD
ENDROOT
BRANCH   6  11
ATOM      9 CL   UNL     1      32.702 -22.453 -17.932  0.00  0.00    -0.082 Cl
ATOM     10 CL   UNL     1      36.453 -22.662 -14.080  0.00  0.00    -0.082 Cl
ATOM     11  C   UNL     1      35.203 -21.403 -18.228  0.00  0.00    +0.064 C 
ATOM     12  C   UNL     1      34.303 -22.079 -17.402  0.00  0.00    +0.063 C 
ATOM     13  C   UNL     1      36.488 -21.117 -17.771  0.00  0.00    +0.006 C 
ATOM     14  C   UNL     1      34.690 -22.469 -16.121  0.00  0.00    +0.023 C 
ATOM     15  C   UNL     1      36.875 -21.506 -16.488  0.00  0.00    +0.012 C 
ATOM     16  C   UNL     1      35.977 -22.183 -15.664  0.00  0.00    +0.059 C 
ENDBRANCH   6  11
BRANCH   3  19
ATOM     17  C   UNL     1      33.905 -14.325 -22.551  0.00  0.00    +0.136 C 
ATOM     18  C   UNL     1      34.109 -15.281 -21.556  0.00  0.00    +0.026 C 
ATOM     19  C   UNL     1      34.437 -16.591 -21.905  0.00  0.00    +0.050 C 
ATOM     20  C   UNL     1      34.029 -14.679 -23.894  0.00  0.00    +0.037 C 
ATOM     21  C   UNL     1      34.561 -16.945 -23.248  0.00  0.00    +0.015 C 
ATOM     22  C   UNL     1      33.973 -14.892 -20.118  0.00  0.00    +0.036 C 
ATOM     23  C   UNL     1      34.358 -15.989 -24.243  0.00  0.00    +0.004 C 
BRANCH  17  24
ATOM     24  O   UNL     1      33.582 -13.032 -22.228  0.00  0.00    -0.476 OA
BRANCH  24  25
ATOM     25  C   UNL     1      32.226 -12.648 -22.402  0.00  0.00    +0.205 C 
BRANCH  25  26
ATOM     26  C   UNL     1      31.648 -12.164 -21.078  0.00  0.00    +0.048 C 
BRANCH  26  27
ATOM     27  C   UNL     1      31.122 -10.725 -21.168  0.00  0.00    +0.015 C 
BRANCH  27  28
ATOM     28  C   UNL     1      31.189  -9.994 -19.827  0.00  0.00    +0.109 C 
BRANCH  28  30
ATOM     29  O   UNL     1      31.830  -7.761 -19.092  0.00  0.00    -0.250 OA
ATOM     30  C   UNL     1      31.418  -8.505 -19.970  0.00  0.00    +0.314 C 
BRANCH  30  31
ATOM     31  O   UNL     1      31.082  -8.069 -21.212  0.00  0.00    -0.480 OA
ATOM     32  H   UNL     1      31.665  -8.207 -21.931  0.00  0.00    +0.295 HD
ENDBRANCH  30  31
ENDBRANCH  28  30
ENDBRANCH  27  28
ENDBRANCH  26  27
ENDBRANCH  25  26
ENDBRANCH  24  25
ENDBRANCH  17  24
ENDBRANCH   3  19
TORSDOF 9
ENDMDL
MODEL 4
REMARK VINA RESULT:     -11.0      2.365      3.401
REMARK  Name = 5326887
REMARK  9 active torsions:
REMARK  status: ('A' for Active; 'I' for Inactive)
REMARK    1  A    between atoms: N_3  and  C_19
REMARK    2  A    between atoms: C_6  and  C_11
REMARK    3  A    between atoms: C_17  and  O_24
REMARK    4  A    between atoms: O_24  and  C_25
REMARK    5  A    between atoms: C_25  and  C_26
REMARK    6  A    between atoms: C_26  and  C_27
REMARK    7  A    between atoms: C_27  and  C_28
REMARK    8  A    between atoms: C_28  and  C_30
REMARK    9  A    between atoms: C_30  and  O_31
REMARK                            x       y       z     vdW  Elec       q    Type
REMARK                         _______ _______ _______ _____ _____    ______ ____
ROOT
ATOM      1  O   UNL     1      31.359 -10.635 -21.958  0.00  0.00    -0.252 OA
ATOM      2  O   UNL     1      30.631  -7.982 -22.366  0.00  0.00    -0.270 OA
ATOM      3  N   UNL     1      33.254 -11.262 -23.204  0.00  0.00    -0.268 N 
ATOM      4  N   UNL     1      32.421  -9.103 -23.345  0.00  0.00    -0.236 N 
ATOM      5  C   UNL     1      32.258 -10.372 -22.752  0.00  0.00    +0.310 C 
ATOM      6  C   UNL     1      31.603  -7.998 -23.115  0.00  0.00    +0.253 C 
ATOM      7  H   UNL     1      33.902 -10.890 -23.846  0.00  0.00    +0.156 HD
ATOM      8  H   UNL     1      33.173  -8.989 -23.971  0.00  0.00    +0.159 HD
ENDROOT
BRANCH   6  11
ATOM      9 CL   UNL     1      34.136  -6.511 -22.158  0.00  0.00    -0.082 Cl
ATOM     10 CL   UNL     1      33.044  -2.988 -26.076  0.00  0.00    -0.082 Cl
ATOM     11  C   UNL     1      31.990  -6.753 -23.825  0.00  0.00    +0.064 C 
ATOM     12  C   UNL     1      33.118  -6.015 -23.462  0.00  0.00    +0.063 C 
ATOM     13  C   UNL     1      31.189  -6.326 -24.884  0.00  0.00    +0.006 C 
ATOM     14  C   UNL     1      33.444  -4.852 -24.159  0.00  0.00    +0.023 C 
ATOM     15  C   UNL     1      31.515  -5.162 -25.580  0.00  0.00    +0.012 C 
ATOM     16  C   UNL     1      32.642  -4.426 -25.218  0.00  0.00    +0.059 C 
ENDBRANCH   6  11
BRANCH   3  19
ATOM     17  C   UNL     1      33.425 -14.950 -23.425  0.00  0.00    +0.136 C 
ATOM     18  C   UNL     1      33.234 -13.618 -23.792  0.00  0.00    +0.026 C 
ATOM     19  C   UNL     1      33.440 -12.602 -22.858  0.00  0.00    +0.050 C 
ATOM     20  C   UNL     1      33.822 -15.267 -22.127  0.00  0.00    +0.037 C 
ATOM     21  C   UNL     1      33.836 -12.919 -21.559  0.00  0.00    +0.015 C 
ATOM     22  C   UNL     1      32.808 -13.289 -25.188  0.00  0.00    +0.036 C 
ATOM     23  C   UNL     1      34.028 -14.251 -21.193  0.00  0.00    +0.004 C 
BRANCH  17  24
ATOM     24  O   UNL     1      33.228 -15.963 -24.329  0.00  0.00    -0.476 OA
BRANCH  24  25
ATOM     25  C   UNL     1      34.189 -17.007 -24.342  0.00  0.00    +0.205 C 
BRANCH  25  26
ATOM     26  C   UNL     1      33.583 -18.280 -23.763  0.00  0.00    +0.048 C 
BRANCH  26  27
ATOM     27  C   UNL     1      34.598 -19.080 -22.936  0.00  0.00    +0.015 C 
BRANCH  27  28
ATOM     28  C   UNL     1      34.754 -18.533 -21.516  0.00  0.00    +0.109 C 
BRANCH  28  30
ATOM     29  O   UNL     1      36.610 -18.604 -19.939  0.00  0.00    -0.250 OA
ATOM     30  C   UNL     1      36.197 -18.421 -21.075  0.00  0.00    +0.314 C 
BRANCH  30  31
ATOM     31  O   UNL     1      37.004 -18.059 -22.106  0.00  0.00    -0.480 OA
ATOM     32  H   UNL     1      36.818 -17.282 -22.597  0.00  0.00    +0.295 HD
ENDBRANCH  30  31
ENDBRANCH  28  30
ENDBRANCH  27  28
ENDBRANCH  26  27
ENDBRANCH  25  26
ENDBRANCH  24  25
ENDBRANCH  17  24
ENDBRANCH   3  19
TORSDOF 9
ENDMDL
MODEL 5
REMARK VINA RESULT:     -11.0      5.693     11.010
REMARK  Name = 5326887
REMARK  9 active torsions:
REMARK  status: ('A' for Active; 'I' for Inactive)
REMARK    1  A    between atoms: N_3  and  C_19
REMARK    2  A    between atoms: C_6  and  C_11
REMARK    3  A    between atoms: C_17  and  O_24
REMARK    4  A    between atoms: O_24  and  C_25
REMARK    5  A    between atoms: C_25  and  C_26
REMARK    6  A    between atoms: C_26  and  C_27
REMARK    7  A    between atoms: C_27  and  C_28
REMARK    8  A    between atoms: C_28  and  C_30
REMARK    9  A    between atoms: C_30  and  O_31
REMARK                            x       y       z     vdW  Elec       q    Type
REMARK                         _______ _______ _______ _____ _____    ______ ____
ROOT
ATOM      1  O   UNL     1      32.330 -20.220 -20.726  0.00  0.00    -0.252 OA
ATOM      2  O   UNL     1      32.351 -21.814 -18.447  0.00  0.00    -0.270 OA
ATOM      3  N   UNL     1      34.410 -19.204 -21.147  0.00  0.00    -0.268 N 
ATOM      4  N   UNL     1      34.135 -20.592 -19.311  0.00  0.00    -0.236 N 
ATOM      5  C   UNL     1      33.506 -20.019 -20.435  0.00  0.00    +0.310 C 
ATOM      6  C   UNL     1      33.522 -21.447 -18.396  0.00  0.00    +0.253 C 
ATOM      7  H   UNL     1      35.320 -19.148 -20.776  0.00  0.00    +0.156 HD
ATOM      8  H   UNL     1      35.083 -20.371 -19.161  0.00  0.00    +0.159 HD
ENDROOT
BRANCH   6  11
ATOM      9 CL   UNL     1      32.208 -23.100 -16.142  0.00  0.00    -0.082 Cl
ATOM     10 CL   UNL     1      37.163 -23.444 -14.072  0.00  0.00    -0.082 Cl
ATOM     11  C   UNL     1      34.394 -21.957 -17.308  0.00  0.00    +0.064 C 
ATOM     12  C   UNL     1      33.888 -22.712 -16.249  0.00  0.00    +0.063 C 
ATOM     13  C   UNL     1      35.755 -21.662 -17.366  0.00  0.00    +0.006 C 
ATOM     14  C   UNL     1      34.744 -23.172 -15.250  0.00  0.00    +0.023 C 
ATOM     15  C   UNL     1      36.612 -22.122 -16.366  0.00  0.00    +0.012 C 
ATOM     16  C   UNL     1      36.107 -22.878 -15.308  0.00  0.00    +0.059 C 
ENDBRANCH   6  11
BRANCH   3  19
ATOM     17  C   UNL     1      34.156 -16.366 -23.506  0.00  0.00    +0.136 C 
ATOM     18  C   UNL     1      34.393 -17.085 -22.335  0.00  0.00    +0.026 C 
ATOM     19  C   UNL     1      34.180 -18.464 -22.309  0.00  0.00    +0.050 C 
ATOM     20  C   UNL     1      33.707 -17.024 -24.651  0.00  0.00    +0.037 C 
ATOM     21  C   UNL     1      33.730 -19.122 -23.453  0.00  0.00    +0.015 C 
ATOM     22  C   UNL     1      34.874 -16.370 -21.112  0.00  0.00    +0.036 C 
ATOM     23  C   UNL     1      33.494 -18.402 -24.624  0.00  0.00    +0.004 C 
BRANCH  17  24
ATOM     24  O   UNL     1      34.360 -15.010 -23.552  0.00  0.00    -0.476 OA
BRANCH  24  25
ATOM     25  C   UNL     1      33.222 -14.184 -23.356  0.00  0.00    +0.205 C 
BRANCH  25  26
ATOM     26  C   UNL     1      33.615 -12.931 -22.583  0.00  0.00    +0.048 C 
BRANCH  26  27
ATOM     27  C   UNL     1      33.489 -13.124 -21.066  0.00  0.00    +0.015 C 
BRANCH  27  28
ATOM     28  C   UNL     1      32.036 -13.093 -20.593  0.00  0.00    +0.109 C 
BRANCH  28  30
ATOM     29  O   UNL     1      31.652 -10.859 -19.699  0.00  0.00    -0.250 OA
ATOM     30  C   UNL     1      31.447 -11.699 -20.563  0.00  0.00    +0.314 C 
BRANCH  30  31
ATOM     31  O   UNL     1      30.622 -11.487 -21.621  0.00  0.00    -0.480 OA
ATOM     32  H   UNL     1      29.920 -10.870 -21.552  0.00  0.00    +0.295 HD
ENDBRANCH  30  31
ENDBRANCH  28  30
ENDBRANCH  27  28
ENDBRANCH  26  27
ENDBRANCH  25  26
ENDBRANCH  24  25
ENDBRANCH  17  24
ENDBRANCH   3  19
TORSDOF 9
ENDMDL
MODEL 6
REMARK VINA RESULT:     -10.9      3.836      6.512
REMARK  Name = 5326887
REMARK  9 active torsions:
REMARK  status: ('A' for Active; 'I' for Inactive)
REMARK    1  A    between atoms: N_3  and  C_19
REMARK    2  A    between atoms: C_6  and  C_11
REMARK    3  A    between atoms: C_17  and  O_24
REMARK    4  A    between atoms: O_24  and  C_25
REMARK    5  A    between atoms: C_25  and  C_26
REMARK    6  A    between atoms: C_26  and  C_27
REMARK    7  A    between atoms: C_27  and  C_28
REMARK    8  A    between atoms: C_28  and  C_30
REMARK    9  A    between atoms: C_30  and  O_31
REMARK                            x       y       z     vdW  Elec       q    Type
REMARK                         _______ _______ _______ _____ _____    ______ ____
ROOT
ATOM      1  O   UNL     1      34.556 -18.832 -23.139  0.00  0.00    -0.252 OA
ATOM      2  O   UNL     1      34.170 -16.607 -24.761  0.00  0.00    -0.270 OA
ATOM      3  N   UNL     1      34.268 -18.354 -20.853  0.00  0.00    -0.268 N 
ATOM      4  N   UNL     1      34.005 -16.685 -22.440  0.00  0.00    -0.236 N 
ATOM      5  C   UNL     1      34.303 -18.047 -22.229  0.00  0.00    +0.310 C 
ATOM      6  C   UNL     1      33.958 -16.057 -23.684  0.00  0.00    +0.253 C 
ATOM      7  H   UNL     1      34.050 -17.605 -20.252  0.00  0.00    +0.156 HD
ATOM      8  H   UNL     1      33.815 -16.134 -21.646  0.00  0.00    +0.159 HD
ENDROOT
BRANCH   6  11
ATOM      9 CL   UNL     1      34.087 -14.563 -20.983  0.00  0.00    -0.082 Cl
ATOM     10 CL   UNL     1      32.438 -10.259 -23.759  0.00  0.00    -0.082 Cl
ATOM     11  C   UNL     1      33.588 -14.620 -23.665  0.00  0.00    +0.064 C 
ATOM     12  C   UNL     1      33.616 -13.865 -22.491  0.00  0.00    +0.063 C 
ATOM     13  C   UNL     1      33.204 -14.026 -24.867  0.00  0.00    +0.006 C 
ATOM     14  C   UNL     1      33.262 -12.517 -22.521  0.00  0.00    +0.023 C 
ATOM     15  C   UNL     1      32.849 -12.677 -24.896  0.00  0.00    +0.012 C 
ATOM     16  C   UNL     1      32.878 -11.922 -23.724  0.00  0.00    +0.059 C 
ENDBRANCH   6  11
BRANCH   3  19
ATOM     17  C   UNL     1      33.705 -21.618 -19.205  0.00  0.00    +0.136 C 
ATOM     18  C   UNL     1      33.446 -20.395 -19.823  0.00  0.00    +0.026 C 
ATOM     19  C   UNL     1      34.505 -19.583 -20.232  0.00  0.00    +0.050 C 
ATOM     20  C   UNL     1      35.021 -22.029 -18.996  0.00  0.00    +0.037 C 
ATOM     21  C   UNL     1      35.821 -19.994 -20.023  0.00  0.00    +0.015 C 
ATOM     22  C   UNL     1      32.031 -19.962 -20.042  0.00  0.00    +0.036 C 
ATOM     23  C   UNL     1      36.079 -21.218 -19.405  0.00  0.00    +0.004 C 
BRANCH  17  24
ATOM     24  O   UNL     1      32.678 -22.430 -18.795  0.00  0.00    -0.476 OA
BRANCH  24  25
ATOM     25  C   UNL     1      32.632 -22.757 -17.415  0.00  0.00    +0.205 C 
BRANCH  25  26
ATOM     26  C   UNL     1      31.323 -22.264 -16.807  0.00  0.00    +0.048 C 
BRANCH  26  27
ATOM     27  C   UNL     1      30.565 -23.383 -16.082  0.00  0.00    +0.015 C 
BRANCH  27  28
ATOM     28  C   UNL     1      29.253 -22.896 -15.467  0.00  0.00    +0.109 C 
BRANCH  28  30
ATOM     29  O   UNL     1      27.516 -23.827 -16.900  0.00  0.00    -0.250 OA
ATOM     30  C   UNL     1      28.109 -22.854 -16.456  0.00  0.00    +0.314 C 
BRANCH  30  31
ATOM     31  O   UNL     1      27.819 -21.579 -16.825  0.00  0.00    -0.480 OA
ATOM     32  H   UNL     1      27.193 -21.080 -16.338  0.00  0.00    +0.295 HD
ENDBRANCH  30  31
ENDBRANCH  28  30
ENDBRANCH  27  28
ENDBRANCH  26  27
ENDBRANCH  25  26
ENDBRANCH  24  25
ENDBRANCH  17  24
ENDBRANCH   3  19
TORSDOF 9
ENDMDL
MODEL 7
REMARK VINA RESULT:     -10.8      3.933      6.730
REMARK  Name = 5326887
REMARK  9 active torsions:
REMARK  status: ('A' for Active; 'I' for Inactive)
REMARK    1  A    between atoms: N_3  and  C_19
REMARK    2  A    between atoms: C_6  and  C_11
REMARK    3  A    between atoms: C_17  and  O_24
REMARK    4  A    between atoms: O_24  and  C_25
REMARK    5  A    between atoms: C_25  and  C_26
REMARK    6  A    between atoms: C_26  and  C_27
REMARK    7  A    between atoms: C_27  and  C_28
REMARK    8  A    between atoms: C_28  and  C_30
REMARK    9  A    between atoms: C_30  and  O_31
REMARK                            x       y       z     vdW  Elec       q    Type
REMARK                         _______ _______ _______ _____ _____    ______ ____
ROOT
ATOM      1  O   UNL     1      34.435 -18.969 -23.157  0.00  0.00    -0.252 OA
ATOM      2  O   UNL     1      34.017 -16.788 -24.832  0.00  0.00    -0.270 OA
ATOM      3  N   UNL     1      34.310 -18.403 -20.876  0.00  0.00    -0.268 N 
ATOM      4  N   UNL     1      33.999 -16.782 -22.503  0.00  0.00    -0.236 N 
ATOM      5  C   UNL     1      34.266 -18.145 -22.262  0.00  0.00    +0.310 C 
ATOM      6  C   UNL     1      33.892 -16.196 -23.764  0.00  0.00    +0.253 C 
ATOM      7  H   UNL     1      34.154 -17.627 -20.291  0.00  0.00    +0.156 HD
ATOM      8  H   UNL     1      33.878 -16.198 -21.720  0.00  0.00    +0.159 HD
ENDROOT
BRANCH   6  11
ATOM      9 CL   UNL     1      34.127 -14.640 -21.105  0.00  0.00    -0.082 Cl
ATOM     10 CL   UNL     1      32.562 -10.353 -23.955  0.00  0.00    -0.082 Cl
ATOM     11  C   UNL     1      33.569 -14.746 -23.774  0.00  0.00    +0.064 C 
ATOM     12  C   UNL     1      33.648 -13.964 -22.621  0.00  0.00    +0.063 C 
ATOM     13  C   UNL     1      33.180 -14.170 -24.982  0.00  0.00    +0.006 C 
ATOM     14  C   UNL     1      33.337 -12.606 -22.677  0.00  0.00    +0.023 C 
ATOM     15  C   UNL     1      32.869 -12.811 -25.038  0.00  0.00    +0.012 C 
ATOM     16  C   UNL     1      32.948 -12.029 -23.886  0.00  0.00    +0.059 C 
ENDBRANCH   6  11
BRANCH   3  19
ATOM     17  C   UNL     1      33.748 -21.647 -19.189  0.00  0.00    +0.136 C 
ATOM     18  C   UNL     1      33.489 -20.438 -19.836  0.00  0.00    +0.026 C 
ATOM     19  C   UNL     1      34.547 -19.618 -20.228  0.00  0.00    +0.050 C 
ATOM     20  C   UNL     1      35.063 -22.034 -18.934  0.00  0.00    +0.037 C 
ATOM     21  C   UNL     1      35.862 -20.005 -19.973  0.00  0.00    +0.015 C 
ATOM     22  C   UNL     1      32.074 -20.032 -20.104  0.00  0.00    +0.036 C 
ATOM     23  C   UNL     1      36.120 -21.213 -19.326  0.00  0.00    +0.004 C 
BRANCH  17  24
ATOM     24  O   UNL     1      32.722 -22.467 -18.795  0.00  0.00    -0.476 OA
BRANCH  24  25
ATOM     25  C   UNL     1      32.682 -22.831 -17.424  0.00  0.00    +0.205 C 
BRANCH  25  26
ATOM     26  C   UNL     1      31.379 -22.349 -16.796  0.00  0.00    +0.048 C 
BRANCH  26  27
ATOM     27  C   UNL     1      30.959 -23.213 -15.599  0.00  0.00    +0.015 C 
BRANCH  27  28
ATOM     28  C   UNL     1      30.644 -22.378 -14.358  0.00  0.00    +0.109 C 
BRANCH  28  30
ATOM     29  O   UNL     1      30.262 -23.809 -12.424  0.00  0.00    -0.250 OA
ATOM     30  C   UNL     1      31.000 -23.074 -13.063  0.00  0.00    +0.314 C 
BRANCH  30  31
ATOM     31  O   UNL     1      32.261 -22.763 -12.665  0.00  0.00    -0.480 OA
ATOM     32  H   UNL     1      32.615 -21.915 -12.847  0.00  0.00    +0.295 HD
ENDBRANCH  30  31
ENDBRANCH  28  30
ENDBRANCH  27  28
ENDBRANCH  26  27
ENDBRANCH  25  26
ENDBRANCH  24  25
ENDBRANCH  17  24
ENDBRANCH   3  19
TORSDOF 9
ENDMDL
MODEL 8
REMARK VINA RESULT:     -10.5      2.021      2.386
REMARK  Name = 5326887
REMARK  9 active torsions:
REMARK  status: ('A' for Active; 'I' for Inactive)
REMARK    1  A    between atoms: N_3  and  C_19
REMARK    2  A    between atoms: C_6  and  C_11
REMARK    3  A    between atoms: C_17  and  O_24
REMARK    4  A    between atoms: O_24  and  C_25
REMARK    5  A    between atoms: C_25  and  C_26
REMARK    6  A    between atoms: C_26  and  C_27
REMARK    7  A    between atoms: C_27  and  C_28
REMARK    8  A    between atoms: C_28  and  C_30
REMARK    9  A    between atoms: C_30  and  O_31
REMARK                            x       y       z     vdW  Elec       q    Type
REMARK                         _______ _______ _______ _____ _____    ______ ____
ROOT
ATOM      1  O   UNL     1      34.382 -10.535 -24.176  0.00  0.00    -0.252 OA
ATOM      2  O   UNL     1      34.026  -7.799 -23.828  0.00  0.00    -0.270 OA
ATOM      3  N   UNL     1      32.759 -11.816 -23.052  0.00  0.00    -0.268 N 
ATOM      4  N   UNL     1      32.708  -9.501 -22.939  0.00  0.00    -0.236 N 
ATOM      5  C   UNL     1      33.385 -10.621 -23.463  0.00  0.00    +0.310 C 
ATOM      6  C   UNL     1      33.070  -8.172 -23.154  0.00  0.00    +0.253 C 
ATOM      7  H   UNL     1      31.967 -11.708 -22.477  0.00  0.00    +0.156 HD
ATOM      8  H   UNL     1      31.918  -9.671 -22.378  0.00  0.00    +0.159 HD
ENDROOT
BRANCH   6  11
ATOM      9 CL   UNL     1      30.800  -6.972 -24.872  0.00  0.00    -0.082 Cl
ATOM     10 CL   UNL     1      29.579  -4.085 -20.499  0.00  0.00    -0.082 Cl
ATOM     11  C   UNL     1      32.186  -7.156 -22.529  0.00  0.00    +0.064 C 
ATOM     12  C   UNL     1      31.135  -6.560 -23.228  0.00  0.00    +0.063 C 
ATOM     13  C   UNL     1      32.429  -6.802 -21.202  0.00  0.00    +0.006 C 
ATOM     14  C   UNL     1      30.329  -5.612 -22.600  0.00  0.00    +0.023 C 
ATOM     15  C   UNL     1      31.623  -5.853 -20.574  0.00  0.00    +0.012 C 
ATOM     16  C   UNL     1      30.573  -5.258 -21.272  0.00  0.00    +0.059 C 
ENDBRANCH   6  11
BRANCH   3  19
ATOM     17  C   UNL     1      34.036 -15.270 -22.706  0.00  0.00    +0.136 C 
ATOM     18  C   UNL     1      33.684 -13.960 -22.383  0.00  0.00    +0.026 C 
ATOM     19  C   UNL     1      33.118 -13.132 -23.353  0.00  0.00    +0.050 C 
ATOM     20  C   UNL     1      33.823 -15.753 -23.996  0.00  0.00    +0.037 C 
ATOM     21  C   UNL     1      32.906 -13.614 -24.644  0.00  0.00    +0.015 C 
ATOM     22  C   UNL     1      33.918 -13.451 -20.995  0.00  0.00    +0.036 C 
ATOM     23  C   UNL     1      33.257 -14.925 -24.966  0.00  0.00    +0.004 C 
BRANCH  17  24
ATOM     24  O   UNL     1      34.594 -16.100 -21.766  0.00  0.00    -0.476 OA
BRANCH  24  25
ATOM     25  C   UNL     1      35.031 -17.374 -22.215  0.00  0.00    +0.205 C 
BRANCH  25  26
ATOM     26  C   UNL     1      35.177 -18.320 -21.029  0.00  0.00    +0.048 C 
BRANCH  26  27
ATOM     27  C   UNL     1      34.094 -19.407 -21.019  0.00  0.00    +0.015 C 
BRANCH  27  28
ATOM     28  C   UNL     1      34.277 -20.403 -19.874  0.00  0.00    +0.109 C 
BRANCH  28  30
ATOM     29  O   UNL     1      32.901 -22.315 -19.249  0.00  0.00    -0.250 OA
ATOM     30  C   UNL     1      33.000 -21.122 -19.497  0.00  0.00    +0.314 C 
BRANCH  30  31
ATOM     31  O   UNL     1      31.939 -20.274 -19.488  0.00  0.00    -0.480 OA
ATOM     32  H   UNL     1      31.150 -20.504 -19.939  0.00  0.00    +0.295 HD
ENDBRANCH  30  31
ENDBRANCH  28  30
ENDBRANCH  27  28
ENDBRANCH  26  27
ENDBRANCH  25  26
ENDBRANCH  24  25
ENDBRANCH  17  24
ENDBRANCH   3  19
TORSDOF 9
ENDMDL
MODEL 9
REMARK VINA RESULT:     -10.3      7.851     13.474
REMARK  Name = 5326887
REMARK  9 active torsions:
REMARK  status: ('A' for Active; 'I' for Inactive)
REMARK    1  A    between atoms: N_3  and  C_19
REMARK    2  A    between atoms: C_6  and  C_11
REMARK    3  A    between atoms: C_17  and  O_24
REMARK    4  A    between atoms: O_24  and  C_25
REMARK    5  A    between atoms: C_25  and  C_26
REMARK    6  A    between atoms: C_26  and  C_27
REMARK    7  A    between atoms: C_27  and  C_28
REMARK    8  A    between atoms: C_28  and  C_30
REMARK    9  A    between atoms: C_30  and  O_31
REMARK                            x       y       z     vdW  Elec       q    Type
REMARK                         _______ _______ _______ _____ _____    ______ ____
ROOT
ATOM      1  O   UNL     1      34.263 -21.620 -15.587  0.00  0.00    -0.252 OA
ATOM      2  O   UNL     1      35.760 -22.783 -13.552  0.00  0.00    -0.270 OA
ATOM      3  N   UNL     1      35.114 -22.092 -17.729  0.00  0.00    -0.268 N 
ATOM      4  N   UNL     1      36.162 -22.935 -15.841  0.00  0.00    -0.236 N 
ATOM      5  C   UNL     1      35.089 -22.157 -16.320  0.00  0.00    +0.310 C 
ATOM      6  C   UNL     1      36.426 -23.196 -14.497  0.00  0.00    +0.253 C 
ATOM      7  H   UNL     1      35.849 -22.580 -18.167  0.00  0.00    +0.156 HD
ATOM      8  H   UNL     1      36.772 -23.325 -16.508  0.00  0.00    +0.159 HD
ENDROOT
BRANCH   6  11
ATOM      9 CL   UNL     1      36.283 -25.103 -12.071  0.00  0.00    -0.082 Cl
ATOM     10 CL   UNL     1      41.213 -26.677 -13.543  0.00  0.00    -0.082 Cl
ATOM     11  C   UNL     1      37.595 -24.073 -14.230  0.00  0.00    +0.064 C 
ATOM     12  C   UNL     1      37.619 -24.966 -13.158  0.00  0.00    +0.063 C 
ATOM     13  C   UNL     1      38.689 -23.987 -15.090  0.00  0.00    +0.006 C 
ATOM     14  C   UNL     1      38.737 -25.771 -12.946  0.00  0.00    +0.023 C 
ATOM     15  C   UNL     1      39.808 -24.792 -14.878  0.00  0.00    +0.012 C 
ATOM     16  C   UNL     1      39.832 -25.685 -13.807  0.00  0.00    +0.059 C 
ENDBRANCH   6  11
BRANCH   3  19
ATOM     17  C   UNL     1      33.807 -19.890 -20.399  0.00  0.00    +0.136 C 
ATOM     18  C   UNL     1      34.706 -20.547 -19.557  0.00  0.00    +0.026 C 
ATOM     19  C   UNL     1      34.232 -21.425 -18.582  0.00  0.00    +0.050 C 
ATOM     20  C   UNL     1      32.437 -20.112 -20.266  0.00  0.00    +0.037 C 
ATOM     21  C   UNL     1      32.862 -21.646 -18.449  0.00  0.00    +0.015 C 
ATOM     22  C   UNL     1      36.174 -20.302 -19.708  0.00  0.00    +0.036 C 
ATOM     23  C   UNL     1      31.964 -20.990 -19.291  0.00  0.00    +0.004 C 
BRANCH  17  24
ATOM     24  O   UNL     1      34.253 -19.023 -21.363  0.00  0.00    -0.476 OA
BRANCH  24  25
ATOM     25  C   UNL     1      33.759 -19.219 -22.680  0.00  0.00    +0.205 C 
BRANCH  25  26
ATOM     26  C   UNL     1      34.005 -17.971 -23.519  0.00  0.00    +0.048 C 
BRANCH  26  27
ATOM     27  C   UNL     1      34.987 -17.005 -22.843  0.00  0.00    +0.015 C 
BRANCH  27  28
ATOM     28  C   UNL     1      34.373 -15.626 -22.597  0.00  0.00    +0.109 C 
BRANCH  28  30
ATOM     29  O   UNL     1      33.966 -14.177 -20.681  0.00  0.00    -0.250 OA
ATOM     30  C   UNL     1      34.264 -15.274 -21.129  0.00  0.00    +0.314 C 
BRANCH  30  31
ATOM     31  O   UNL     1      34.565 -16.339 -20.341  0.00  0.00    -0.480 OA
ATOM     32  H   UNL     1      35.429 -16.434 -19.990  0.00  0.00    +0.295 HD
ENDBRANCH  30  31
ENDBRANCH  28  30
ENDBRANCH  27  28
ENDBRANCH  26  27
ENDBRANCH  25  26
ENDBRANCH  24  25
ENDBRANCH  17  24
ENDBRANCH   3  19
TORSDOF 9
ENDMDL
