MODEL 1
REMARK VINA RESULT:     -11.3      0.000      0.000
REMARK  Name = 54723327
REMARK  6 active torsions:
REMARK  status: ('A' for Active; 'I' for Inactive)
REMARK    1  A    between atoms: N_2  and  C_5
REMARK    2  A    between atoms: C_3  and  C_18
REMARK    3  A    between atoms: C_6  and  C_11
REMARK    4  A    between atoms: C_17  and  C_19
REMARK    5  A    between atoms: C_17  and  O_22
REMARK    6  A    between atoms: C_18  and  C_25
REMARK                            x       y       z     vdW  Elec       q    Type
REMARK                         _______ _______ _______ _____ _____    ______ ____
ROOT
ATOM      1  O   UNL     1      36.724 -20.901 -16.185  0.00  0.00    -0.269 OA
ATOM      2  N   UNL     1      35.177 -22.067 -17.508  0.00  0.00    -0.280 N 
ATOM      3  C   UNL     1      36.006 -21.869 -16.410  0.00  0.00    +0.262 C 
ATOM      4  H   UNL     1      34.666 -22.908 -17.523  0.00  0.00    +0.155 HD
ENDROOT
BRANCH   2   5
ATOM      5  C   UNL     1      34.981 -21.194 -18.606  0.00  0.00    +0.051 C 
ATOM      6  C   UNL     1      34.598 -19.476 -20.770  0.00  0.00    +0.000 C 
ATOM      7  C   UNL     1      33.699 -20.988 -19.114  0.00  0.00    +0.015 C 
ATOM      8  C   UNL     1      36.073 -20.541 -19.180  0.00  0.00    +0.015 C 
ATOM      9  C   UNL     1      33.507 -20.129 -20.195  0.00  0.00    +0.001 C 
ATOM     10  C   UNL     1      35.881 -19.681 -20.261  0.00  0.00    +0.001 C 
BRANCH   6  11
ATOM     11  C   UNL     1      34.400 -18.584 -21.891  0.00  0.00    +0.000 C 
ATOM     12  C   UNL     1      34.805 -17.251 -21.802  0.00  0.00    +0.000 C 
ATOM     13  C   UNL     1      33.805 -19.055 -23.061  0.00  0.00    +0.000 C 
ATOM     14  C   UNL     1      34.615 -16.391 -22.884  0.00  0.00    +0.000 C 
ATOM     15  C   UNL     1      33.615 -18.194 -24.143  0.00  0.00    +0.000 C 
ATOM     16  C   UNL     1      34.019 -16.863 -24.054  0.00  0.00    +0.000 C 
ENDBRANCH   6  11
ENDBRANCH   2   5
BRANCH   3  18
ATOM     17  C   UNL     1      37.106 -23.571 -14.996  0.00  0.00    +0.125 C 
ATOM     18  C   UNL     1      35.953 -23.019 -15.439  0.00  0.00    +0.151 C 
BRANCH  17  19
ATOM     19  C   UNL     1      37.170 -24.696 -14.021  0.00  0.00    +0.057 C 
ATOM     20  C   UNL     1      38.506 -25.100 -13.470  0.00  0.00    +0.008 C 
ATOM     21  C   UNL     1      37.513 -24.397 -12.591  0.00  0.00    +0.008 C 
ENDBRANCH  17  19
BRANCH  17  22
ATOM     22  O   UNL     1      38.318 -23.089 -15.483  0.00  0.00    -0.509 OA
ATOM     23  H   UNL     1      38.503 -22.172 -15.452  0.00  0.00    +0.292 HD
ENDBRANCH  17  22
BRANCH  18  25
ATOM     24  N   UNL     1      33.652 -23.883 -14.620  0.00  0.00    -0.191 NA
ATOM     25  C   UNL     1      34.683 -23.497 -14.990  0.00  0.00    +0.108 C 
ENDBRANCH  18  25
ENDBRANCH   3  18
TORSDOF 6
ENDMDL
MODEL 2
REMARK VINA RESULT:     -11.1      7.183     10.723
REMARK  Name = 54723327
REMARK  6 active torsions:
REMARK  status: ('A' for Active; 'I' for Inactive)
REMARK    1  A    between atoms: N_2  and  C_5
REMARK    2  A    between atoms: C_3  and  C_18
REMARK    3  A    between atoms: C_6  and  C_11
REMARK    4  A    between atoms: C_17  and  C_19
REMARK    5  A    between atoms: C_17  and  O_22
REMARK    6  A    between atoms: C_18  and  C_25
REMARK                            x       y       z     vdW  Elec       q    Type
REMARK                         _______ _______ _______ _____ _____    ______ ____
ROOT
ATOM      1  O   UNL     1      34.162 -14.042 -20.815  0.00  0.00    -0.269 OA
ATOM      2  N   UNL     1      33.246 -13.521 -22.911  0.00  0.00    -0.280 N 
ATOM      3  C   UNL     1      33.886 -14.326 -21.975  0.00  0.00    +0.262 C 
ATOM      4  H   UNL     1      33.102 -13.917 -23.801  0.00  0.00    +0.155 HD
ENDROOT
BRANCH   2   5
ATOM      5  C   UNL     1      32.777 -12.197 -22.728  0.00  0.00    +0.051 C 
ATOM      6  C   UNL     1      31.851  -9.591 -22.371  0.00  0.00    +0.000 C 
ATOM      7  C   UNL     1      31.742 -11.942 -21.828  0.00  0.00    +0.015 C 
ATOM      8  C   UNL     1      33.348 -11.149 -23.450  0.00  0.00    +0.015 C 
ATOM      9  C   UNL     1      31.280 -10.639 -21.649  0.00  0.00    +0.001 C 
ATOM     10  C   UNL     1      32.886  -9.846 -23.271  0.00  0.00    +0.001 C 
BRANCH   6  11
ATOM     11  C   UNL     1      31.373  -8.238 -22.185  0.00  0.00    +0.000 C 
ATOM     12  C   UNL     1      30.645  -7.612 -23.197  0.00  0.00    +0.000 C 
ATOM     13  C   UNL     1      31.640  -7.560 -20.996  0.00  0.00    +0.000 C 
ATOM     14  C   UNL     1      30.183  -6.307 -23.019  0.00  0.00    +0.000 C 
ATOM     15  C   UNL     1      31.178  -6.255 -20.818  0.00  0.00    +0.000 C 
ATOM     16  C   UNL     1      30.450  -5.629 -21.829  0.00  0.00    +0.000 C 
ENDBRANCH   6  11
ENDBRANCH   2   5
BRANCH   3  18
ATOM     17  C   UNL     1      34.663 -16.655 -21.696  0.00  0.00    +0.125 C 
ATOM     18  C   UNL     1      34.239 -15.680 -22.533  0.00  0.00    +0.151 C 
BRANCH  17  19
ATOM     19  C   UNL     1      35.018 -18.033 -22.135  0.00  0.00    +0.057 C 
ATOM     20  C   UNL     1      35.050 -19.132 -21.114  0.00  0.00    +0.008 C 
ATOM     21  C   UNL     1      33.953 -19.090 -22.137  0.00  0.00    +0.008 C 
ENDBRANCH  17  19
BRANCH  17  22
ATOM     22  O   UNL     1      34.805 -16.369 -20.340  0.00  0.00    -0.509 OA
ATOM     23  H   UNL     1      35.250 -15.591 -20.071  0.00  0.00    +0.292 HD
ENDBRANCH  17  22
BRANCH  18  25
ATOM     24  N   UNL     1      33.990 -16.104 -25.076  0.00  0.00    -0.191 NA
ATOM     25  C   UNL     1      34.104 -15.916 -23.935  0.00  0.00    +0.108 C 
ENDBRANCH  18  25
ENDBRANCH   3  18
TORSDOF 6
ENDMDL
MODEL 3
REMARK VINA RESULT:     -10.1      7.973     12.683
REMARK  Name = 54723327
REMARK  6 active torsions:
REMARK  status: ('A' for Active; 'I' for Inactive)
REMARK    1  A    between atoms: N_2  and  C_5
REMARK    2  A    between atoms: C_3  and  C_18
REMARK    3  A    between atoms: C_6  and  C_11
REMARK    4  A    between atoms: C_17  and  C_19
REMARK    5  A    between atoms: C_17  and  O_22
REMARK    6  A    between atoms: C_18  and  C_25
REMARK                            x       y       z     vdW  Elec       q    Type
REMARK                         _______ _______ _______ _____ _____    ______ ____
ROOT
ATOM      1  O   UNL     1      30.508 -11.056 -21.423  0.00  0.00    -0.269 OA
ATOM      2  N   UNL     1      32.655 -10.939 -22.361  0.00  0.00    -0.280 N 
ATOM      3  C   UNL     1      31.447 -10.428 -21.900  0.00  0.00    +0.262 C 
ATOM      4  H   UNL     1      33.301 -10.284 -22.711  0.00  0.00    +0.155 HD
ENDROOT
BRANCH   2   5
ATOM      5  C   UNL     1      33.063 -12.295 -22.381  0.00  0.00    +0.051 C 
ATOM      6  C   UNL     1      33.865 -14.966 -22.419  0.00  0.00    +0.000 C 
ATOM      7  C   UNL     1      33.119 -12.989 -23.590  0.00  0.00    +0.015 C 
ATOM      8  C   UNL     1      33.408 -12.937 -21.191  0.00  0.00    +0.015 C 
ATOM      9  C   UNL     1      33.520 -14.324 -23.609  0.00  0.00    +0.001 C 
ATOM     10  C   UNL     1      33.810 -14.273 -21.210  0.00  0.00    +0.001 C 
BRANCH   6  11
ATOM     11  C   UNL     1      34.283 -16.352 -22.438  0.00  0.00    +0.000 C 
ATOM     12  C   UNL     1      34.024 -17.142 -23.559  0.00  0.00    +0.000 C 
ATOM     13  C   UNL     1      34.942 -16.897 -21.337  0.00  0.00    +0.000 C 
ATOM     14  C   UNL     1      34.426 -18.478 -23.577  0.00  0.00    +0.000 C 
ATOM     15  C   UNL     1      35.345 -18.233 -21.356  0.00  0.00    +0.000 C 
ATOM     16  C   UNL     1      35.087 -19.023 -22.475  0.00  0.00    +0.000 C 
ENDBRANCH   6  11
ENDBRANCH   2   5
BRANCH   3  18
ATOM     17  C   UNL     1      31.394  -8.158 -20.927  0.00  0.00    +0.125 C 
ATOM     18  C   UNL     1      31.371  -8.930 -22.038  0.00  0.00    +0.151 C 
BRANCH  17  19
ATOM     19  C   UNL     1      31.346  -6.669 -20.948  0.00  0.00    +0.057 C 
ATOM     20  C   UNL     1      32.029  -5.908 -19.851  0.00  0.00    +0.008 C 
ATOM     21  C   UNL     1      32.606  -5.906 -21.235  0.00  0.00    +0.008 C 
ENDBRANCH  17  19
BRANCH  17  22
ATOM     22  O   UNL     1      31.444  -8.769 -19.678  0.00  0.00    -0.509 OA
ATOM     23  H   UNL     1      30.766  -9.361 -19.420  0.00  0.00    +0.292 HD
ENDBRANCH  17  22
BRANCH  18  25
ATOM     24  N   UNL     1      31.229  -7.875 -24.399  0.00  0.00    -0.191 NA
ATOM     25  C   UNL     1      31.292  -8.351 -23.341  0.00  0.00    +0.108 C 
ENDBRANCH  18  25
ENDBRANCH   3  18
TORSDOF 6
ENDMDL
MODEL 4
REMARK VINA RESULT:     -10.1      9.064     13.966
REMARK  Name = 54723327
REMARK  6 active torsions:
REMARK  status: ('A' for Active; 'I' for Inactive)
REMARK    1  A    between atoms: N_2  and  C_5
REMARK    2  A    between atoms: C_3  and  C_18
REMARK    3  A    between atoms: C_6  and  C_11
REMARK    4  A    between atoms: C_17  and  C_19
REMARK    5  A    between atoms: C_17  and  O_22
REMARK    6  A    between atoms: C_18  and  C_25
REMARK                            x       y       z     vdW  Elec       q    Type
REMARK                         _______ _______ _______ _____ _____    ______ ____
ROOT
ATOM      1  O   UNL     1      33.726  -8.569 -23.250  0.00  0.00    -0.269 OA
ATOM      2  N   UNL     1      31.816  -9.857 -22.808  0.00  0.00    -0.280 N 
ATOM      3  C   UNL     1      32.518  -8.687 -23.072  0.00  0.00    +0.262 C 
ATOM      4  H   UNL     1      30.842  -9.766 -22.695  0.00  0.00    +0.155 HD
ENDROOT
BRANCH   2   5
ATOM      5  C   UNL     1      32.342 -11.167 -22.686  0.00  0.00    +0.051 C 
ATOM      6  C   UNL     1      33.379 -13.745 -22.445  0.00  0.00    +0.000 C 
ATOM      7  C   UNL     1      32.199 -11.867 -21.488  0.00  0.00    +0.015 C 
ATOM      8  C   UNL     1      33.004 -11.756 -23.764  0.00  0.00    +0.015 C 
ATOM      9  C   UNL     1      32.717 -13.156 -21.368  0.00  0.00    +0.001 C 
ATOM     10  C   UNL     1      33.522 -13.045 -23.644  0.00  0.00    +0.001 C 
BRANCH   6  11
ATOM     11  C   UNL     1      33.917 -15.082 -22.322  0.00  0.00    +0.000 C 
ATOM     12  C   UNL     1      34.115 -15.861 -23.463  0.00  0.00    +0.000 C 
ATOM     13  C   UNL     1      34.235 -15.593 -21.064  0.00  0.00    +0.000 C 
ATOM     14  C   UNL     1      34.634 -17.152 -23.344  0.00  0.00    +0.000 C 
ATOM     15  C   UNL     1      34.755 -16.883 -20.946  0.00  0.00    +0.000 C 
ATOM     16  C   UNL     1      34.953 -17.662 -22.085  0.00  0.00    +0.000 C 
ENDBRANCH   6  11
ENDBRANCH   2   5
BRANCH   3  18
ATOM     17  C   UNL     1      31.257  -6.863 -21.982  0.00  0.00    +0.125 C 
ATOM     18  C   UNL     1      31.618  -7.481 -23.130  0.00  0.00    +0.151 C 
BRANCH  17  19
ATOM     19  C   UNL     1      30.390  -5.653 -21.925  0.00  0.00    +0.057 C 
ATOM     20  C   UNL     1      30.426  -4.795 -20.695  0.00  0.00    +0.008 C 
ATOM     21  C   UNL     1      31.033  -4.298 -21.974  0.00  0.00    +0.008 C 
ENDBRANCH  17  19
BRANCH  17  22
ATOM     22  O   UNL     1      31.693  -7.384 -20.767  0.00  0.00    -0.509 OA
ATOM     23  H   UNL     1      31.068  -7.680 -20.134  0.00  0.00    +0.292 HD
ENDBRANCH  17  22
BRANCH  18  25
ATOM     24  N   UNL     1      30.816  -6.614 -25.435  0.00  0.00    -0.191 NA
ATOM     25  C   UNL     1      31.175  -7.000 -24.401  0.00  0.00    +0.108 C 
ENDBRANCH  18  25
ENDBRANCH   3  18
TORSDOF 6
ENDMDL
MODEL 5
REMARK VINA RESULT:      -9.9      1.616      2.042
REMARK  Name = 54723327
REMARK  6 active torsions:
REMARK  status: ('A' for Active; 'I' for Inactive)
REMARK    1  A    between atoms: N_2  and  C_5
REMARK    2  A    between atoms: C_3  and  C_18
REMARK    3  A    between atoms: C_6  and  C_11
REMARK    4  A    between atoms: C_17  and  C_19
REMARK    5  A    between atoms: C_17  and  O_22
REMARK    6  A    between atoms: C_18  and  C_25
REMARK                            x       y       z     vdW  Elec       q    Type
REMARK                         _______ _______ _______ _____ _____    ______ ____
ROOT
ATOM      1  O   UNL     1      33.414 -23.545 -15.678  0.00  0.00    -0.269 OA
ATOM      2  N   UNL     1      35.555 -22.618 -15.921  0.00  0.00    -0.280 N 
ATOM      3  C   UNL     1      34.571 -23.383 -15.305  0.00  0.00    +0.262 C 
ATOM      4  H   UNL     1      36.436 -22.605 -15.481  0.00  0.00    +0.155 HD
ENDROOT
BRANCH   2   5
ATOM      5  C   UNL     1      35.435 -21.857 -17.110  0.00  0.00    +0.051 C 
ATOM      6  C   UNL     1      35.200 -20.361 -19.451  0.00  0.00    +0.000 C 
ATOM      7  C   UNL     1      34.287 -21.967 -17.895  0.00  0.00    +0.015 C 
ATOM      8  C   UNL     1      36.466 -21.000 -17.496  0.00  0.00    +0.015 C 
ATOM      9  C   UNL     1      34.169 -21.218 -19.065  0.00  0.00    +0.001 C 
ATOM     10  C   UNL     1      36.348 -20.251 -18.667  0.00  0.00    +0.001 C 
BRANCH   6  11
ATOM     11  C   UNL     1      35.079 -19.583 -20.665  0.00  0.00    +0.000 C 
ATOM     12  C   UNL     1      36.121 -18.744 -21.062  0.00  0.00    +0.000 C 
ATOM     13  C   UNL     1      33.921 -19.672 -21.438  0.00  0.00    +0.000 C 
ATOM     14  C   UNL     1      36.004 -17.993 -22.233  0.00  0.00    +0.000 C 
ATOM     15  C   UNL     1      33.806 -18.922 -22.610  0.00  0.00    +0.000 C 
ATOM     16  C   UNL     1      34.846 -18.083 -23.006  0.00  0.00    +0.000 C 
ENDBRANCH   6  11
ENDBRANCH   2   5
BRANCH   3  18
ATOM     17  C   UNL     1      36.157 -24.855 -14.114  0.00  0.00    +0.125 C 
ATOM     18  C   UNL     1      35.069 -24.054 -14.053  0.00  0.00    +0.151 C 
BRANCH  17  19
ATOM     19  C   UNL     1      36.747 -25.550 -12.936  0.00  0.00    +0.057 C 
ATOM     20  C   UNL     1      38.238 -25.703 -12.857  0.00  0.00    +0.008 C 
ATOM     21  C   UNL     1      37.533 -24.749 -11.939  0.00  0.00    +0.008 C 
ENDBRANCH  17  19
BRANCH  17  22
ATOM     22  O   UNL     1      36.768 -25.076 -15.346  0.00  0.00    -0.509 OA
ATOM     23  H   UNL     1      37.433 -24.491 -15.650  0.00  0.00    +0.292 HD
ENDBRANCH  17  22
BRANCH  18  25
ATOM     24  N   UNL     1      33.840 -23.623 -11.814  0.00  0.00    -0.191 NA
ATOM     25  C   UNL     1      34.392 -23.819 -12.817  0.00  0.00    +0.108 C 
ENDBRANCH  18  25
ENDBRANCH   3  18
TORSDOF 6
ENDMDL
MODEL 6
REMARK VINA RESULT:      -9.8      7.913     12.947
REMARK  Name = 54723327
REMARK  6 active torsions:
REMARK  status: ('A' for Active; 'I' for Inactive)
REMARK    1  A    between atoms: N_2  and  C_5
REMARK    2  A    between atoms: C_3  and  C_18
REMARK    3  A    between atoms: C_6  and  C_11
REMARK    4  A    between atoms: C_17  and  C_19
REMARK    5  A    between atoms: C_17  and  O_22
REMARK    6  A    between atoms: C_18  and  C_25
REMARK                            x       y       z     vdW  Elec       q    Type
REMARK                         _______ _______ _______ _____ _____    ______ ____
ROOT
ATOM      1  O   UNL     1      31.332 -10.857 -21.844  0.00  0.00    -0.269 OA
ATOM      2  N   UNL     1      33.314 -11.172 -23.058  0.00  0.00    -0.280 N 
ATOM      3  C   UNL     1      32.250 -10.441 -22.541  0.00  0.00    +0.262 C 
ATOM      4  H   UNL     1      33.966 -10.670 -23.598  0.00  0.00    +0.155 HD
ENDROOT
BRANCH   2   5
ATOM      5  C   UNL     1      33.566 -12.556 -22.894  0.00  0.00    +0.051 C 
ATOM      6  C   UNL     1      34.062 -15.281 -22.572  0.00  0.00    +0.000 C 
ATOM      7  C   UNL     1      33.564 -13.401 -24.004  0.00  0.00    +0.015 C 
ATOM      8  C   UNL     1      33.816 -13.074 -21.623  0.00  0.00    +0.015 C 
ATOM      9  C   UNL     1      33.812 -14.764 -23.843  0.00  0.00    +0.001 C 
ATOM     10  C   UNL     1      34.064 -14.436 -21.462  0.00  0.00    +0.001 C 
BRANCH   6  11
ATOM     11  C   UNL     1      34.320 -16.695 -22.403  0.00  0.00    +0.000 C 
ATOM     12  C   UNL     1      34.928 -17.158 -21.236  0.00  0.00    +0.000 C 
ATOM     13  C   UNL     1      33.961 -17.594 -23.407  0.00  0.00    +0.000 C 
ATOM     14  C   UNL     1      35.177 -18.521 -21.073  0.00  0.00    +0.000 C 
ATOM     15  C   UNL     1      34.210 -18.958 -23.243  0.00  0.00    +0.000 C 
ATOM     16  C   UNL     1      34.818 -19.421 -22.077  0.00  0.00    +0.000 C 
ENDBRANCH   6  11
ENDBRANCH   2   5
BRANCH   3  18
ATOM     17  C   UNL     1      31.188  -8.239 -22.900  0.00  0.00    +0.125 C 
ATOM     18  C   UNL     1      32.316  -8.986 -22.926  0.00  0.00    +0.151 C 
BRANCH  17  19
ATOM     19  C   UNL     1      31.142  -6.790 -23.241  0.00  0.00    +0.057 C 
ATOM     20  C   UNL     1      30.091  -5.930 -22.602  0.00  0.00    +0.008 C 
ATOM     21  C   UNL     1      31.527  -5.786 -22.193  0.00  0.00    +0.008 C 
ENDBRANCH  17  19
BRANCH  17  22
ATOM     22  O   UNL     1      29.982  -8.845 -22.560  0.00  0.00    -0.509 OA
ATOM     23  H   UNL     1      29.212  -8.324 -22.445  0.00  0.00    +0.292 HD
ENDBRANCH  17  22
BRANCH  18  25
ATOM     24  N   UNL     1      34.596  -7.958 -23.596  0.00  0.00    -0.191 NA
ATOM     25  C   UNL     1      33.573  -8.416 -23.296  0.00  0.00    +0.108 C 
ENDBRANCH  18  25
ENDBRANCH   3  18
TORSDOF 6
ENDMDL
MODEL 7
REMARK VINA RESULT:      -9.8      7.915     12.807
REMARK  Name = 54723327
REMARK  6 active torsions:
REMARK  status: ('A' for Active; 'I' for Inactive)
REMARK    1  A    between atoms: N_2  and  C_5
REMARK    2  A    between atoms: C_3  and  C_18
REMARK    3  A    between atoms: C_6  and  C_11
REMARK    4  A    between atoms: C_17  and  C_19
REMARK    5  A    between atoms: C_17  and  O_22
REMARK    6  A    between atoms: C_18  and  C_25
REMARK                            x       y       z     vdW  Elec       q    Type
REMARK                         _______ _______ _______ _____ _____    ______ ____
ROOT
ATOM      1  O   UNL     1      30.583 -11.114 -21.208  0.00  0.00    -0.269 OA
ATOM      2  N   UNL     1      32.799 -10.982 -21.967  0.00  0.00    -0.280 N 
ATOM      3  C   UNL     1      31.569 -10.476 -21.562  0.00  0.00    +0.262 C 
ATOM      4  H   UNL     1      33.483 -10.319 -22.216  0.00  0.00    +0.155 HD
ENDROOT
BRANCH   2   5
ATOM      5  C   UNL     1      33.180 -12.343 -22.061  0.00  0.00    +0.051 C 
ATOM      6  C   UNL     1      33.930 -15.023 -22.246  0.00  0.00    +0.000 C 
ATOM      7  C   UNL     1      33.308 -12.946 -23.312  0.00  0.00    +0.015 C 
ATOM      8  C   UNL     1      33.426 -13.080 -20.902  0.00  0.00    +0.015 C 
ATOM      9  C   UNL     1      33.684 -14.286 -23.404  0.00  0.00    +0.001 C 
ATOM     10  C   UNL     1      33.801 -14.419 -20.994  0.00  0.00    +0.001 C 
BRANCH   6  11
ATOM     11  C   UNL     1      34.319 -16.413 -22.340  0.00  0.00    +0.000 C 
ATOM     12  C   UNL     1      34.052 -17.134 -23.504  0.00  0.00    +0.000 C 
ATOM     13  C   UNL     1      34.962 -17.032 -21.268  0.00  0.00    +0.000 C 
ATOM     14  C   UNL     1      34.428 -18.475 -23.595  0.00  0.00    +0.000 C 
ATOM     15  C   UNL     1      35.338 -18.373 -21.360  0.00  0.00    +0.000 C 
ATOM     16  C   UNL     1      35.071 -19.094 -22.522  0.00  0.00    +0.000 C 
ENDBRANCH   6  11
ENDBRANCH   2   5
BRANCH   3  18
ATOM     17  C   UNL     1      31.518  -8.326 -22.778  0.00  0.00    +0.125 C 
ATOM     18  C   UNL     1      31.533  -8.971 -21.589  0.00  0.00    +0.151 C 
BRANCH  17  19
ATOM     19  C   UNL     1      31.462  -6.844 -22.921  0.00  0.00    +0.057 C 
ATOM     20  C   UNL     1      31.022  -6.260 -24.231  0.00  0.00    +0.008 C 
ATOM     21  C   UNL     1      30.122  -6.177 -23.034  0.00  0.00    +0.008 C 
ENDBRANCH  17  19
BRANCH  17  22
ATOM     22  O   UNL     1      31.580  -9.070 -23.953  0.00  0.00    -0.509 OA
ATOM     23  H   UNL     1      32.311  -8.973 -24.530  0.00  0.00    +0.292 HD
ENDBRANCH  17  22
BRANCH  18  25
ATOM     24  N   UNL     1      31.465  -7.665 -19.353  0.00  0.00    -0.191 NA
ATOM     25  C   UNL     1      31.498  -8.250 -20.356  0.00  0.00    +0.108 C 
ENDBRANCH  18  25
ENDBRANCH   3  18
TORSDOF 6
ENDMDL
MODEL 8
REMARK VINA RESULT:      -9.7      2.848      9.168
REMARK  Name = 54723327
REMARK  6 active torsions:
REMARK  status: ('A' for Active; 'I' for Inactive)
REMARK    1  A    between atoms: N_2  and  C_5
REMARK    2  A    between atoms: C_3  and  C_18
REMARK    3  A    between atoms: C_6  and  C_11
REMARK    4  A    between atoms: C_17  and  C_19
REMARK    5  A    between atoms: C_17  and  O_22
REMARK    6  A    between atoms: C_18  and  C_25
REMARK                            x       y       z     vdW  Elec       q    Type
REMARK                         _______ _______ _______ _____ _____    ______ ____
ROOT
ATOM      1  O   UNL     1      35.930 -18.044 -20.619  0.00  0.00    -0.269 OA
ATOM      2  N   UNL     1      34.385 -19.794 -20.842  0.00  0.00    -0.280 N 
ATOM      3  C   UNL     1      35.051 -18.638 -21.233  0.00  0.00    +0.262 C 
ATOM      4  H   UNL     1      33.704 -20.137 -21.466  0.00  0.00    +0.155 HD
ENDROOT
BRANCH   2   5
ATOM      5  C   UNL     1      34.575 -20.536 -19.651  0.00  0.00    +0.051 C 
ATOM      6  C   UNL     1      34.950 -21.997 -17.305  0.00  0.00    +0.000 C 
ATOM      7  C   UNL     1      35.839 -20.600 -19.064  0.00  0.00    +0.015 C 
ATOM      8  C   UNL     1      33.499 -21.203 -19.065  0.00  0.00    +0.015 C 
ATOM      9  C   UNL     1      36.026 -21.330 -17.891  0.00  0.00    +0.001 C 
ATOM     10  C   UNL     1      33.686 -21.933 -17.892  0.00  0.00    +0.001 C 
BRANCH   6  11
ATOM     11  C   UNL     1      35.143 -22.755 -16.087  0.00  0.00    +0.000 C 
ATOM     12  C   UNL     1      36.407 -22.822 -15.501  0.00  0.00    +0.000 C 
ATOM     13  C   UNL     1      34.066 -23.418 -15.500  0.00  0.00    +0.000 C 
ATOM     14  C   UNL     1      36.594 -23.553 -14.327  0.00  0.00    +0.000 C 
ATOM     15  C   UNL     1      34.252 -24.148 -14.325  0.00  0.00    +0.000 C 
ATOM     16  C   UNL     1      35.516 -24.216 -13.740  0.00  0.00    +0.000 C 
ENDBRANCH   6  11
ENDBRANCH   2   5
BRANCH   3  18
ATOM     17  C   UNL     1      34.381 -16.805 -22.747  0.00  0.00    +0.125 C 
ATOM     18  C   UNL     1      34.580 -18.131 -22.570  0.00  0.00    +0.151 C 
BRANCH  17  19
ATOM     19  C   UNL     1      33.937 -16.193 -24.031  0.00  0.00    +0.057 C 
ATOM     20  C   UNL     1      33.236 -14.867 -23.996  0.00  0.00    +0.008 C 
ATOM     21  C   UNL     1      34.636 -14.961 -24.527  0.00  0.00    +0.008 C 
ENDBRANCH  17  19
BRANCH  17  22
ATOM     22  O   UNL     1      34.576 -15.941 -21.672  0.00  0.00    -0.509 OA
ATOM     23  H   UNL     1      35.180 -16.168 -20.994  0.00  0.00    +0.292 HD
ENDBRANCH  17  22
BRANCH  18  25
ATOM     24  N   UNL     1      34.189 -19.814 -24.500  0.00  0.00    -0.191 NA
ATOM     25  C   UNL     1      34.367 -19.060 -23.635  0.00  0.00    +0.108 C 
ENDBRANCH  18  25
ENDBRANCH   3  18
TORSDOF 6
ENDMDL
MODEL 9
REMARK VINA RESULT:      -9.7      7.086     10.929
REMARK  Name = 54723327
REMARK  6 active torsions:
REMARK  status: ('A' for Active; 'I' for Inactive)
REMARK    1  A    between atoms: N_2  and  C_5
REMARK    2  A    between atoms: C_3  and  C_18
REMARK    3  A    between atoms: C_6  and  C_11
REMARK    4  A    between atoms: C_17  and  C_19
REMARK    5  A    between atoms: C_17  and  O_22
REMARK    6  A    between atoms: C_18  and  C_25
REMARK                            x       y       z     vdW  Elec       q    Type
REMARK                         _______ _______ _______ _____ _____    ______ ____
ROOT
ATOM      1  O   UNL     1      34.206 -14.094 -20.587  0.00  0.00    -0.269 OA
ATOM      2  N   UNL     1      33.223 -13.707 -22.681  0.00  0.00    -0.280 N 
ATOM      3  C   UNL     1      33.892 -14.452 -21.716  0.00  0.00    +0.262 C 
ATOM      4  H   UNL     1      33.049 -14.159 -23.538  0.00  0.00    +0.155 HD
ENDROOT
BRANCH   2   5
ATOM      5  C   UNL     1      32.760 -12.373 -22.569  0.00  0.00    +0.051 C 
ATOM      6  C   UNL     1      31.849  -9.746 -22.348  0.00  0.00    +0.000 C 
ATOM      7  C   UNL     1      33.288 -11.381 -23.395  0.00  0.00    +0.015 C 
ATOM      8  C   UNL     1      31.777 -12.052 -21.633  0.00  0.00    +0.015 C 
ATOM      9  C   UNL     1      32.832 -10.067 -23.285  0.00  0.00    +0.001 C 
ATOM     10  C   UNL     1      31.321 -10.739 -21.523  0.00  0.00    +0.001 C 
BRANCH   6  11
ATOM     11  C   UNL     1      31.376  -8.384 -22.233  0.00  0.00    +0.000 C 
ATOM     12  C   UNL     1      30.669  -7.801 -23.286  0.00  0.00    +0.000 C 
ATOM     13  C   UNL     1      31.626  -7.654 -21.072  0.00  0.00    +0.000 C 
ATOM     14  C   UNL     1      30.212  -6.487 -23.175  0.00  0.00    +0.000 C 
ATOM     15  C   UNL     1      31.168  -6.340 -20.961  0.00  0.00    +0.000 C 
ATOM     16  C   UNL     1      30.462  -5.757 -22.012  0.00  0.00    +0.000 C 
ENDBRANCH   6  11
ENDBRANCH   2   5
BRANCH   3  18
ATOM     17  C   UNL     1      33.915 -16.199 -23.463  0.00  0.00    +0.125 C 
ATOM     18  C   UNL     1      34.227 -15.839 -22.196  0.00  0.00    +0.151 C 
BRANCH  17  19
ATOM     19  C   UNL     1      34.218 -17.536 -24.047  0.00  0.00    +0.057 C 
ATOM     20  C   UNL     1      33.719 -18.763 -23.342  0.00  0.00    +0.008 C 
ATOM     21  C   UNL     1      33.097 -18.339 -24.640  0.00  0.00    +0.008 C 
ENDBRANCH  17  19
BRANCH  17  22
ATOM     22  O   UNL     1      33.250 -15.290 -24.281  0.00  0.00    -0.509 OA
ATOM     23  H   UNL     1      32.417 -14.950 -24.022  0.00  0.00    +0.292 HD
ENDBRANCH  17  22
BRANCH  18  25
ATOM     24  N   UNL     1      35.422 -17.486 -20.594  0.00  0.00    -0.191 NA
ATOM     25  C   UNL     1      34.884 -16.747 -21.310  0.00  0.00    +0.108 C 
ENDBRANCH  18  25
ENDBRANCH   3  18
TORSDOF 6
ENDMDL
