MODEL 1
REMARK VINA RESULT:     -11.4      0.000      0.000
REMARK  Name = 20317278
REMARK  2 active torsions:
REMARK  status: ('A' for Active; 'I' for Inactive)
REMARK    1  A    between atoms: C_8  and  C_16
REMARK    2  A    between atoms: C_13  and  N_24
REMARK                            x       y       z     vdW  Elec       q    Type
REMARK                         _______ _______ _______ _____ _____    ______ ____
ROOT
ATOM      1  N   UNL     1      36.584 -24.523 -13.047  0.00  0.00    -0.279 N 
ATOM      2  N   UNL     1      33.921 -23.188 -12.379  0.00  0.00    -0.262 NA
ATOM      3  N   UNL     1      36.194 -25.492 -11.106  0.00  0.00    -0.131 NA
ATOM      4  N   UNL     1      37.118 -26.248 -11.784  0.00  0.00    -0.133 NA
ATOM      5  C   UNL     1      36.542 -23.588 -14.104  0.00  0.00    +0.068 C 
ATOM      6  C   UNL     1      35.425 -22.756 -14.314  0.00  0.00    +0.035 C 
ATOM      7  C   UNL     1      35.900 -24.450 -11.853  0.00  0.00    +0.172 A 
ATOM      8  C   UNL     1      34.100 -22.947 -13.633  0.00  0.00    +0.078 C 
ATOM      9  C   UNL     1      35.060 -23.289 -11.486  0.00  0.00    +0.191 C 
ATOM     10  C   UNL     1      37.362 -25.647 -12.926  0.00  0.00    +0.147 A 
ATOM     11  C   UNL     1      37.665 -23.469 -14.937  0.00  0.00    +0.019 C 
ATOM     12  C   UNL     1      35.496 -21.758 -15.303  0.00  0.00    +0.027 C 
ATOM     13  C   UNL     1      36.632 -21.625 -16.101  0.00  0.00    +0.143 C 
ATOM     14  C   UNL     1      37.707 -22.489 -15.930  0.00  0.00    +0.026 C 
ATOM     15  C   UNL     1      38.221 -26.236 -13.974  0.00  0.00    +0.074 C 
ENDROOT
BRANCH   8  16
ATOM     16  C   UNL     1      32.864 -22.888 -14.470  0.00  0.00    +0.017 C 
ATOM     17  C   UNL     1      32.957 -22.976 -15.859  0.00  0.00    +0.001 C 
ATOM     18  C   UNL     1      31.617 -22.745 -13.863  0.00  0.00    +0.001 C 
ATOM     19  C   UNL     1      31.803 -22.922 -16.640  0.00  0.00    +0.000 C 
ATOM     20  C   UNL     1      30.463 -22.691 -14.644  0.00  0.00    +0.000 C 
ATOM     21  C   UNL     1      30.556 -22.778 -16.032  0.00  0.00    +0.000 C 
ENDBRANCH   8  16
BRANCH  13  24
ATOM     22  O   UNL     1      37.374 -19.594 -16.901  0.00  0.00    -0.126 OA
ATOM     23  O   UNL     1      36.033 -20.786 -18.165  0.00  0.00    -0.126 OA
ATOM     24  N   UNL     1      36.682 -20.620 -17.103  0.00  0.00    +0.058 N 
ENDBRANCH  13  24
TORSDOF 2
ENDMDL
MODEL 2
REMARK VINA RESULT:     -10.7      3.178      6.402
REMARK  Name = 20317278
REMARK  2 active torsions:
REMARK  status: ('A' for Active; 'I' for Inactive)
REMARK    1  A    between atoms: C_8  and  C_16
REMARK    2  A    between atoms: C_13  and  N_24
REMARK                            x       y       z     vdW  Elec       q    Type
REMARK                         _______ _______ _______ _____ _____    ______ ____
ROOT
ATOM      1  N   UNL     1      34.680 -21.931 -17.670  0.00  0.00    -0.279 N 
ATOM      2  N   UNL     1      37.004 -22.082 -15.696  0.00  0.00    -0.262 NA
ATOM      3  N   UNL     1      36.231 -20.953 -18.893  0.00  0.00    -0.131 NA
ATOM      4  N   UNL     1      35.226 -21.372 -19.730  0.00  0.00    -0.133 NA
ATOM      5  C   UNL     1      33.977 -22.417 -16.546  0.00  0.00    +0.068 C 
ATOM      6  C   UNL     1      34.636 -22.762 -15.350  0.00  0.00    +0.035 C 
ATOM      7  C   UNL     1      35.886 -21.264 -17.663  0.00  0.00    +0.172 A 
ATOM      8  C   UNL     1      36.126 -22.901 -15.227  0.00  0.00    +0.078 C 
ATOM      9  C   UNL     1      36.583 -20.892 -16.412  0.00  0.00    +0.191 C 
ATOM     10  C   UNL     1      34.297 -21.929 -18.987  0.00  0.00    +0.147 A 
ATOM     11  C   UNL     1      32.578 -22.520 -16.625  0.00  0.00    +0.019 C 
ATOM     12  C   UNL     1      33.867 -23.117 -14.227  0.00  0.00    +0.027 C 
ATOM     13  C   UNL     1      32.476 -23.180 -14.307  0.00  0.00    +0.143 C 
ATOM     14  C   UNL     1      31.835 -22.899 -15.507  0.00  0.00    +0.026 C 
ATOM     15  C   UNL     1      33.113 -22.605 -19.557  0.00  0.00    +0.074 C 
ENDROOT
BRANCH   8  16
ATOM     16  C   UNL     1      36.665 -24.107 -14.529  0.00  0.00    +0.017 C 
ATOM     17  C   UNL     1      36.263 -25.381 -14.928  0.00  0.00    +0.001 C 
ATOM     18  C   UNL     1      37.569 -23.958 -13.478  0.00  0.00    +0.001 C 
ATOM     19  C   UNL     1      36.766 -26.507 -14.277  0.00  0.00    +0.000 C 
ATOM     20  C   UNL     1      38.072 -25.084 -12.826  0.00  0.00    +0.000 C 
ATOM     21  C   UNL     1      37.670 -26.358 -13.226  0.00  0.00    +0.000 C 
ENDBRANCH   8  16
BRANCH  13  24
ATOM     22  O   UNL     1      31.532 -24.771 -12.930  0.00  0.00    -0.126 OA
ATOM     23  O   UNL     1      31.250 -22.654 -12.425  0.00  0.00    -0.126 OA
ATOM     24  N   UNL     1      31.716 -23.553 -13.166  0.00  0.00    +0.058 N 
ENDBRANCH  13  24
TORSDOF 2
ENDMDL
MODEL 3
REMARK VINA RESULT:      -9.9      2.777      5.312
REMARK  Name = 20317278
REMARK  2 active torsions:
REMARK  status: ('A' for Active; 'I' for Inactive)
REMARK    1  A    between atoms: C_8  and  C_16
REMARK    2  A    between atoms: C_13  and  N_24
REMARK                            x       y       z     vdW  Elec       q    Type
REMARK                         _______ _______ _______ _____ _____    ______ ____
ROOT
ATOM      1  N   UNL     1      35.518 -21.559 -17.603  0.00  0.00    -0.279 N 
ATOM      2  N   UNL     1      32.745 -22.809 -17.866  0.00  0.00    -0.262 NA
ATOM      3  N   UNL     1      35.001 -20.820 -19.613  0.00  0.00    -0.131 NA
ATOM      4  N   UNL     1      36.018 -20.041 -19.119  0.00  0.00    -0.133 NA
ATOM      5  C   UNL     1      35.527 -22.351 -16.433  0.00  0.00    +0.068 C 
ATOM      6  C   UNL     1      34.395 -23.083 -16.023  0.00  0.00    +0.035 C 
ATOM      7  C   UNL     1      34.727 -21.742 -18.715  0.00  0.00    +0.172 A 
ATOM      8  C   UNL     1      33.025 -22.900 -16.611  0.00  0.00    +0.078 C 
ATOM      9  C   UNL     1      33.802 -22.888 -18.857  0.00  0.00    +0.191 C 
ATOM     10  C   UNL     1      36.335 -20.508 -17.933  0.00  0.00    +0.147 A 
ATOM     11  C   UNL     1      36.714 -22.431 -15.688  0.00  0.00    +0.019 C 
ATOM     12  C   UNL     1      34.507 -23.951 -14.923  0.00  0.00    +0.027 C 
ATOM     13  C   UNL     1      35.703 -24.050 -14.212  0.00  0.00    +0.143 C 
ATOM     14  C   UNL     1      36.798 -23.278 -14.583  0.00  0.00    +0.026 C 
ATOM     15  C   UNL     1      37.313 -19.844 -17.046  0.00  0.00    +0.074 C 
ENDROOT
BRANCH   8  16
ATOM     16  C   UNL     1      31.868 -22.780 -15.673  0.00  0.00    +0.017 C 
ATOM     17  C   UNL     1      30.565 -22.766 -16.171  0.00  0.00    +0.001 C 
ATOM     18  C   UNL     1      32.090 -22.682 -14.300  0.00  0.00    +0.001 C 
ATOM     19  C   UNL     1      29.485 -22.654 -15.296  0.00  0.00    +0.000 C 
ATOM     20  C   UNL     1      31.010 -22.571 -13.425  0.00  0.00    +0.000 C 
ATOM     21  C   UNL     1      29.707 -22.556 -13.923  0.00  0.00    +0.000 C 
ENDBRANCH   8  16
BRANCH  13  24
ATOM     22  O   UNL     1      36.530 -25.935 -13.174  0.00  0.00    -0.126 OA
ATOM     23  O   UNL     1      35.140 -24.655 -12.059  0.00  0.00    -0.126 OA
ATOM     24  N   UNL     1      35.795 -24.922 -13.095  0.00  0.00    +0.058 N 
ENDBRANCH  13  24
TORSDOF 2
ENDMDL
MODEL 4
REMARK VINA RESULT:      -9.7      2.988      6.563
REMARK  Name = 20317278
REMARK  2 active torsions:
REMARK  status: ('A' for Active; 'I' for Inactive)
REMARK    1  A    between atoms: C_8  and  C_16
REMARK    2  A    between atoms: C_13  and  N_24
REMARK                            x       y       z     vdW  Elec       q    Type
REMARK                         _______ _______ _______ _____ _____    ______ ____
ROOT
ATOM      1  N   UNL     1      34.527 -22.658 -15.840  0.00  0.00    -0.279 N 
ATOM      2  N   UNL     1      37.569 -22.405 -15.840  0.00  0.00    -0.262 NA
ATOM      3  N   UNL     1      34.796 -21.777 -17.843  0.00  0.00    -0.131 NA
ATOM      4  N   UNL     1      33.555 -22.363 -17.796  0.00  0.00    -0.133 NA
ATOM      5  C   UNL     1      34.773 -23.020 -14.498  0.00  0.00    +0.068 C 
ATOM      6  C   UNL     1      36.081 -23.158 -13.994  0.00  0.00    +0.035 C 
ATOM      7  C   UNL     1      35.359 -21.932 -16.664  0.00  0.00    +0.172 A 
ATOM      8  C   UNL     1      37.309 -23.198 -14.857  0.00  0.00    +0.078 C 
ATOM      9  C   UNL     1      36.636 -21.352 -16.195  0.00  0.00    +0.191 C 
ATOM     10  C   UNL     1      33.396 -22.860 -16.590  0.00  0.00    +0.147 A 
ATOM     11  C   UNL     1      33.675 -23.208 -13.643  0.00  0.00    +0.019 C 
ATOM     12  C   UNL     1      36.260 -23.394 -12.619  0.00  0.00    +0.027 C 
ATOM     13  C   UNL     1      35.161 -23.543 -11.773  0.00  0.00    +0.143 C 
ATOM     14  C   UNL     1      33.872 -23.467 -12.287  0.00  0.00    +0.026 C 
ATOM     15  C   UNL     1      32.223 -23.673 -16.206  0.00  0.00    +0.074 C 
ENDROOT
BRANCH   8  16
ATOM     16  C   UNL     1      38.322 -24.263 -14.591  0.00  0.00    +0.017 C 
ATOM     17  C   UNL     1      37.913 -25.585 -14.414  0.00  0.00    +0.001 C 
ATOM     18  C   UNL     1      39.675 -23.937 -14.520  0.00  0.00    +0.001 C 
ATOM     19  C   UNL     1      38.859 -26.580 -14.166  0.00  0.00    +0.000 C 
ATOM     20  C   UNL     1      40.621 -24.931 -14.272  0.00  0.00    +0.000 C 
ATOM     21  C   UNL     1      40.212 -26.253 -14.095  0.00  0.00    +0.000 C 
ENDBRANCH   8  16
BRANCH  13  24
ATOM     22  O   UNL     1      36.047 -22.987  -9.718  0.00  0.00    -0.126 OA
ATOM     23  O   UNL     1      34.841 -24.814  -9.875  0.00  0.00    -0.126 OA
ATOM     24  N   UNL     1      35.360 -23.794 -10.389  0.00  0.00    +0.058 N 
ENDBRANCH  13  24
TORSDOF 2
ENDMDL
MODEL 5
REMARK VINA RESULT:      -9.3      2.418      4.601
REMARK  Name = 20317278
REMARK  2 active torsions:
REMARK  status: ('A' for Active; 'I' for Inactive)
REMARK    1  A    between atoms: C_8  and  C_16
REMARK    2  A    between atoms: C_13  and  N_24
REMARK                            x       y       z     vdW  Elec       q    Type
REMARK                         _______ _______ _______ _____ _____    ______ ____
ROOT
ATOM      1  N   UNL     1      35.582 -24.402 -12.568  0.00  0.00    -0.279 N 
ATOM      2  N   UNL     1      36.784 -24.368 -15.373  0.00  0.00    -0.262 NA
ATOM      3  N   UNL     1      37.442 -25.509 -12.155  0.00  0.00    -0.131 NA
ATOM      4  N   UNL     1      36.949 -25.040 -10.962  0.00  0.00    -0.133 NA
ATOM      5  C   UNL     1      34.487 -23.845 -13.265  0.00  0.00    +0.068 C 
ATOM      6  C   UNL     1      34.565 -23.521 -14.633  0.00  0.00    +0.035 C 
ATOM      7  C   UNL     1      36.607 -25.148 -13.105  0.00  0.00    +0.172 A 
ATOM      8  C   UNL     1      35.849 -23.481 -15.410  0.00  0.00    +0.078 C 
ATOM      9  C   UNL     1      36.645 -25.541 -14.531  0.00  0.00    +0.191 C 
ATOM     10  C   UNL     1      35.827 -24.406 -11.218  0.00  0.00    +0.147 A 
ATOM     11  C   UNL     1      33.282 -23.650 -12.571  0.00  0.00    +0.019 C 
ATOM     12  C   UNL     1      33.403 -23.091 -15.298  0.00  0.00    +0.027 C 
ATOM     13  C   UNL     1      32.202 -22.935 -14.607  0.00  0.00    +0.143 C 
ATOM     14  C   UNL     1      32.146 -23.197 -13.243  0.00  0.00    +0.026 C 
ATOM     15  C   UNL     1      35.074 -23.663 -10.187  0.00  0.00    +0.074 C 
ENDROOT
BRANCH   8  16
ATOM     16  C   UNL     1      36.103 -22.300 -16.289  0.00  0.00    +0.017 C 
ATOM     17  C   UNL     1      35.432 -22.179 -17.506  0.00  0.00    +0.001 C 
ATOM     18  C   UNL     1      37.011 -21.318 -15.893  0.00  0.00    +0.001 C 
ATOM     19  C   UNL     1      35.669 -21.077 -18.327  0.00  0.00    +0.000 C 
ATOM     20  C   UNL     1      37.247 -20.215 -16.714  0.00  0.00    +0.000 C 
ATOM     21  C   UNL     1      36.577 -20.095 -17.931  0.00  0.00    +0.000 C 
ENDBRANCH   8  16
BRANCH  13  24
ATOM     22  O   UNL     1      31.099 -22.306 -16.531  0.00  0.00    -0.126 OA
ATOM     23  O   UNL     1      29.988 -22.288 -14.638  0.00  0.00    -0.126 OA
ATOM     24  N   UNL     1      31.041 -22.488 -15.291  0.00  0.00    +0.058 N 
ENDBRANCH  13  24
TORSDOF 2
ENDMDL
MODEL 6
REMARK VINA RESULT:      -9.3      2.424      4.615
REMARK  Name = 20317278
REMARK  2 active torsions:
REMARK  status: ('A' for Active; 'I' for Inactive)
REMARK    1  A    between atoms: C_8  and  C_16
REMARK    2  A    between atoms: C_13  and  N_24
REMARK                            x       y       z     vdW  Elec       q    Type
REMARK                         _______ _______ _______ _____ _____    ______ ____
ROOT
ATOM      1  N   UNL     1      35.584 -24.402 -12.569  0.00  0.00    -0.279 N 
ATOM      2  N   UNL     1      36.771 -24.375 -15.381  0.00  0.00    -0.262 NA
ATOM      3  N   UNL     1      37.446 -25.509 -12.163  0.00  0.00    -0.131 NA
ATOM      4  N   UNL     1      36.960 -25.037 -10.969  0.00  0.00    -0.133 NA
ATOM      5  C   UNL     1      34.486 -23.846 -13.261  0.00  0.00    +0.068 C 
ATOM      6  C   UNL     1      34.556 -23.525 -14.631  0.00  0.00    +0.035 C 
ATOM      7  C   UNL     1      36.606 -25.150 -13.110  0.00  0.00    +0.172 A 
ATOM      8  C   UNL     1      35.837 -23.488 -15.415  0.00  0.00    +0.078 C 
ATOM      9  C   UNL     1      36.636 -25.546 -14.535  0.00  0.00    +0.191 C 
ATOM     10  C   UNL     1      35.837 -24.403 -11.221  0.00  0.00    +0.147 A 
ATOM     11  C   UNL     1      33.284 -23.648 -12.561  0.00  0.00    +0.019 C 
ATOM     12  C   UNL     1      33.391 -23.096 -15.291  0.00  0.00    +0.027 C 
ATOM     13  C   UNL     1      32.194 -22.938 -14.593  0.00  0.00    +0.143 C 
ATOM     14  C   UNL     1      32.146 -23.197 -13.228  0.00  0.00    +0.026 C 
ATOM     15  C   UNL     1      35.089 -23.656 -10.187  0.00  0.00    +0.074 C 
ENDROOT
BRANCH   8  16
ATOM     16  C   UNL     1      36.086 -22.308 -16.298  0.00  0.00    +0.017 C 
ATOM     17  C   UNL     1      37.001 -21.329 -15.911  0.00  0.00    +0.001 C 
ATOM     18  C   UNL     1      35.405 -22.187 -17.508  0.00  0.00    +0.001 C 
ATOM     19  C   UNL     1      37.234 -20.229 -16.736  0.00  0.00    +0.000 C 
ATOM     20  C   UNL     1      35.638 -21.087 -18.333  0.00  0.00    +0.000 C 
ATOM     21  C   UNL     1      36.552 -20.107 -17.946  0.00  0.00    +0.000 C 
ENDBRANCH   8  16
BRANCH  13  24
ATOM     22  O   UNL     1      29.982 -22.286 -14.613  0.00  0.00    -0.126 OA
ATOM     23  O   UNL     1      31.080 -22.312 -16.513  0.00  0.00    -0.126 OA
ATOM     24  N   UNL     1      31.030 -22.491 -15.273  0.00  0.00    +0.058 N 
ENDBRANCH  13  24
TORSDOF 2
ENDMDL
