MODEL 1
REMARK VINA RESULT:     -13.0      0.000      0.000
REMARK  Name = 4249
REMARK  7 active torsions:
REMARK  status: ('A' for Active; 'I' for Inactive)
REMARK    1  A    between atoms: N_1  and  C_17
REMARK    2  A    between atoms: C_2  and  C_8
REMARK    3  A    between atoms: C_2  and  O_15
REMARK    4  A    between atoms: C_17  and  C_18
REMARK    5  A    between atoms: C_18  and  C_19
REMARK    6  A    between atoms: C_19  and  C_21
REMARK    7  A    between atoms: C_21  and  C_23
REMARK                            x       y       z     vdW  Elec       q    Type
REMARK                         _______ _______ _______ _____ _____    ______ ____
ROOT
ATOM      1  N   UNL     1      34.848 -19.957 -19.984  0.00  0.00    +0.387 N 
ATOM      2  C   UNL     1      33.448 -22.025 -18.376  0.00  0.00    +0.103 C 
ATOM      3  C   UNL     1      32.729 -20.864 -19.098  0.00  0.00    +0.008 C 
ATOM      4  C   UNL     1      34.924 -21.624 -18.148  0.00  0.00    +0.008 C 
ATOM      5  C   UNL     1      33.484 -20.367 -20.336  0.00  0.00    -0.075 C 
ATOM      6  C   UNL     1      35.604 -21.074 -19.409  0.00  0.00    -0.075 C 
ATOM      7  H   UNL     1      34.783 -19.223 -19.278  0.00  0.00    -0.080 HD
ENDROOT
BRANCH   2   8
ATOM      8  C   UNL     1      32.804 -22.465 -17.060  0.00  0.00    +0.002 C 
ATOM      9  C   UNL     1      31.423 -22.366 -16.896  0.00  0.00    -0.002 C 
ATOM     10  C   UNL     1      33.598 -22.966 -16.030  0.00  0.00    -0.002 C 
ATOM     11  C   UNL     1      30.836 -22.769 -15.696  0.00  0.00    -0.005 C 
ATOM     12  C   UNL     1      33.010 -23.368 -14.831  0.00  0.00    -0.005 C 
ATOM     13  C   UNL     1      31.629 -23.270 -14.664  0.00  0.00    -0.022 C 
ATOM     14  C   UNL     1      31.000 -23.699 -13.381  0.00  0.00    +0.031 C 
ENDBRANCH   2   8
BRANCH   2  15
ATOM     15  O   UNL     1      33.393 -23.176 -19.233  0.00  0.00    -0.383 OA
ATOM     16  H   UNL     1      32.926 -22.948 -20.051  0.00  0.00    +0.211 HD
ENDBRANCH   2  15
BRANCH   1  17
ATOM     17  C   UNL     1      35.539 -19.417 -21.155  0.00  0.00    -0.077 C 
BRANCH  17  18
ATOM     18  C   UNL     1      34.525 -18.921 -22.187  0.00  0.00    -0.015 C 
BRANCH  18  19
ATOM     19  C   UNL     1      34.800 -17.480 -22.626  0.00  0.00    +0.067 C 
BRANCH  19  21
ATOM     20  O   UNL     1      34.947 -16.726 -20.338  0.00  0.00    -0.291 OA
ATOM     21  C   UNL     1      34.648 -16.467 -21.501  0.00  0.00    +0.173 C 
BRANCH  21  23
ATOM     22  F   UNL     1      32.734 -11.369 -22.737  0.00  0.00    -0.204 F 
ATOM     23  C   UNL     1      34.135 -15.106 -21.831  0.00  0.00    +0.035 C 
ATOM     24  C   UNL     1      33.756 -14.274 -20.801  0.00  0.00    +0.005 C 
ATOM     25  C   UNL     1      34.062 -14.730 -23.154  0.00  0.00    +0.005 C 
ATOM     26  C   UNL     1      33.279 -13.000 -21.110  0.00  0.00    +0.030 C 
ATOM     27  C   UNL     1      33.584 -13.456 -23.463  0.00  0.00    +0.030 C 
ATOM     28  C   UNL     1      33.193 -12.591 -22.440  0.00  0.00    +0.140 C 
ENDBRANCH  21  23
ENDBRANCH  19  21
ENDBRANCH  18  19
ENDBRANCH  17  18
ENDBRANCH   1  17
TORSDOF 7
ENDMDL
MODEL 2
REMARK VINA RESULT:     -12.4      1.164      1.647
REMARK  Name = 4249
REMARK  7 active torsions:
REMARK  status: ('A' for Active; 'I' for Inactive)
REMARK    1  A    between atoms: N_1  and  C_17
REMARK    2  A    between atoms: C_2  and  C_8
REMARK    3  A    between atoms: C_2  and  O_15
REMARK    4  A    between atoms: C_17  and  C_18
REMARK    5  A    between atoms: C_18  and  C_19
REMARK    6  A    between atoms: C_19  and  C_21
REMARK    7  A    between atoms: C_21  and  C_23
REMARK                            x       y       z     vdW  Elec       q    Type
REMARK                         _______ _______ _______ _____ _____    ______ ____
ROOT
ATOM      1  N   UNL     1      34.115 -19.623 -20.411  0.00  0.00    +0.387 N 
ATOM      2  C   UNL     1      33.522 -21.886 -18.580  0.00  0.00    +0.103 C 
ATOM      3  C   UNL     1      32.468 -20.854 -19.043  0.00  0.00    +0.008 C 
ATOM      4  C   UNL     1      34.926 -21.255 -18.727  0.00  0.00    +0.008 C 
ATOM      5  C   UNL     1      32.787 -20.244 -20.413  0.00  0.00    -0.075 C 
ATOM      6  C   UNL     1      35.158 -20.605 -20.098  0.00  0.00    -0.075 C 
ATOM      7  H   UNL     1      34.126 -18.908 -19.682  0.00  0.00    -0.080 HD
ENDROOT
BRANCH   2   8
ATOM      8  C   UNL     1      33.321 -22.421 -17.162  0.00  0.00    +0.002 C 
ATOM      9  C   UNL     1      34.425 -22.638 -16.338  0.00  0.00    -0.002 C 
ATOM     10  C   UNL     1      32.036 -22.692 -16.695  0.00  0.00    -0.002 C 
ATOM     11  C   UNL     1      34.241 -23.126 -15.044  0.00  0.00    -0.005 C 
ATOM     12  C   UNL     1      31.854 -23.179 -15.401  0.00  0.00    -0.005 C 
ATOM     13  C   UNL     1      32.956 -23.396 -14.576  0.00  0.00    -0.022 C 
ATOM     14  C   UNL     1      32.761 -23.919 -13.192  0.00  0.00    +0.031 C 
ENDBRANCH   2   8
BRANCH   2  15
ATOM     15  O   UNL     1      33.420 -23.032 -19.439  0.00  0.00    -0.383 OA
ATOM     16  H   UNL     1      33.974 -22.898 -20.224  0.00  0.00    +0.211 HD
ENDBRANCH   2  15
BRANCH   1  17
ATOM     17  C   UNL     1      34.383 -18.982 -21.697  0.00  0.00    -0.077 C 
BRANCH  17  18
ATOM     18  C   UNL     1      35.346 -17.807 -21.514  0.00  0.00    -0.015 C 
BRANCH  18  19
ATOM     19  C   UNL     1      34.633 -16.541 -21.031  0.00  0.00    +0.067 C 
BRANCH  19  21
ATOM     20  O   UNL     1      35.082 -15.539 -23.180  0.00  0.00    -0.291 OA
ATOM     21  C   UNL     1      34.466 -15.490 -22.118  0.00  0.00    +0.173 C 
BRANCH  21  23
ATOM     22  F   UNL     1      30.867 -11.309 -21.261  0.00  0.00    -0.204 F 
ATOM     23  C   UNL     1      33.504 -14.374 -21.889  0.00  0.00    +0.035 C 
ATOM     24  C   UNL     1      32.996 -14.188 -20.623  0.00  0.00    +0.005 C 
ATOM     25  C   UNL     1      33.161 -13.569 -22.952  0.00  0.00    +0.005 C 
ATOM     26  C   UNL     1      32.096 -13.143 -20.409  0.00  0.00    +0.030 C 
ATOM     27  C   UNL     1      32.261 -12.523 -22.738  0.00  0.00    +0.030 C 
ATOM     28  C   UNL     1      31.730 -12.311 -21.466  0.00  0.00    +0.140 C 
ENDBRANCH  21  23
ENDBRANCH  19  21
ENDBRANCH  18  19
ENDBRANCH  17  18
ENDBRANCH   1  17
TORSDOF 7
ENDMDL
MODEL 3
REMARK VINA RESULT:     -12.4      1.267      2.045
REMARK  Name = 4249
REMARK  7 active torsions:
REMARK  status: ('A' for Active; 'I' for Inactive)
REMARK    1  A    between atoms: N_1  and  C_17
REMARK    2  A    between atoms: C_2  and  C_8
REMARK    3  A    between atoms: C_2  and  O_15
REMARK    4  A    between atoms: C_17  and  C_18
REMARK    5  A    between atoms: C_18  and  C_19
REMARK    6  A    between atoms: C_19  and  C_21
REMARK    7  A    between atoms: C_21  and  C_23
REMARK                            x       y       z     vdW  Elec       q    Type
REMARK                         _______ _______ _______ _____ _____    ______ ____
ROOT
ATOM      1  N   UNL     1      33.727 -19.740 -20.408  0.00  0.00    +0.387 N 
ATOM      2  C   UNL     1      33.653 -21.954 -18.429  0.00  0.00    +0.103 C 
ATOM      3  C   UNL     1      32.445 -21.045 -18.749  0.00  0.00    +0.008 C 
ATOM      4  C   UNL     1      34.949 -21.208 -18.824  0.00  0.00    +0.008 C 
ATOM      5  C   UNL     1      32.481 -20.477 -20.173  0.00  0.00    -0.075 C 
ATOM      6  C   UNL     1      34.896 -20.609 -20.236  0.00  0.00    -0.075 C 
ATOM      7  H   UNL     1      33.785 -18.992 -19.716  0.00  0.00    -0.080 HD
ENDROOT
BRANCH   2   8
ATOM      8  C   UNL     1      33.733 -22.435 -16.979  0.00  0.00    +0.002 C 
ATOM      9  C   UNL     1      34.946 -22.379 -16.294  0.00  0.00    -0.002 C 
ATOM     10  C   UNL     1      32.593 -22.926 -16.345  0.00  0.00    -0.002 C 
ATOM     11  C   UNL     1      35.018 -22.817 -14.972  0.00  0.00    -0.005 C 
ATOM     12  C   UNL     1      32.666 -23.364 -15.023  0.00  0.00    -0.005 C 
ATOM     13  C   UNL     1      33.878 -23.309 -14.336  0.00  0.00    -0.022 C 
ATOM     14  C   UNL     1      33.957 -23.778 -12.922  0.00  0.00    +0.031 C 
ENDBRANCH   2   8
BRANCH   2  15
ATOM     15  O   UNL     1      33.527 -23.145 -19.220  0.00  0.00    -0.383 OA
ATOM     16  H   UNL     1      32.603 -23.439 -19.219  0.00  0.00    +0.211 HD
ENDBRANCH   2  15
BRANCH   1  17
ATOM     17  C   UNL     1      33.725 -19.142 -21.743  0.00  0.00    -0.077 C 
BRANCH  17  18
ATOM     18  C   UNL     1      35.144 -19.110 -22.312  0.00  0.00    -0.015 C 
BRANCH  18  19
ATOM     19  C   UNL     1      35.839 -17.768 -22.066  0.00  0.00    +0.067 C 
BRANCH  19  21
ATOM     20  O   UNL     1      34.616 -16.527 -20.396  0.00  0.00    -0.291 OA
ATOM     21  C   UNL     1      34.894 -16.678 -21.584  0.00  0.00    +0.173 C 
BRANCH  21  23
ATOM     22  F   UNL     1      32.681 -13.200 -25.350  0.00  0.00    -0.204 F 
ATOM     23  C   UNL     1      34.304 -15.748 -22.590  0.00  0.00    +0.035 C 
ATOM     24  C   UNL     1      34.083 -16.212 -23.868  0.00  0.00    +0.005 C 
ATOM     25  C   UNL     1      34.000 -14.462 -22.203  0.00  0.00    +0.005 C 
ATOM     26  C   UNL     1      33.530 -15.342 -24.808  0.00  0.00    +0.030 C 
ATOM     27  C   UNL     1      33.447 -13.593 -23.144  0.00  0.00    +0.030 C 
ATOM     28  C   UNL     1      33.211 -14.034 -24.447  0.00  0.00    +0.140 C 
ENDBRANCH  21  23
ENDBRANCH  19  21
ENDBRANCH  18  19
ENDBRANCH  17  18
ENDBRANCH   1  17
TORSDOF 7
ENDMDL
MODEL 4
REMARK VINA RESULT:     -12.3      3.867     10.455
REMARK  Name = 4249
REMARK  7 active torsions:
REMARK  status: ('A' for Active; 'I' for Inactive)
REMARK    1  A    between atoms: N_1  and  C_17
REMARK    2  A    between atoms: C_2  and  C_8
REMARK    3  A    between atoms: C_2  and  O_15
REMARK    4  A    between atoms: C_17  and  C_18
REMARK    5  A    between atoms: C_18  and  C_19
REMARK    6  A    between atoms: C_19  and  C_21
REMARK    7  A    between atoms: C_21  and  C_23
REMARK                            x       y       z     vdW  Elec       q    Type
REMARK                         _______ _______ _______ _____ _____    ______ ____
ROOT
ATOM      1  N   UNL     1      34.144 -14.326 -22.500  0.00  0.00    +0.387 N 
ATOM      2  C   UNL     1      32.203 -12.096 -22.215  0.00  0.00    +0.103 C 
ATOM      3  C   UNL     1      32.936 -12.436 -23.532  0.00  0.00    +0.008 C 
ATOM      4  C   UNL     1      33.020 -12.669 -21.034  0.00  0.00    +0.008 C 
ATOM      5  C   UNL     1      33.320 -13.916 -23.641  0.00  0.00    -0.075 C 
ATOM      6  C   UNL     1      33.428 -14.135 -21.235  0.00  0.00    -0.075 C 
ATOM      7  H   UNL     1      34.976 -13.734 -22.484  0.00  0.00    -0.080 HD
ENDROOT
BRANCH   2   8
ATOM      8  C   UNL     1      31.919 -10.609 -21.998  0.00  0.00    +0.002 C 
ATOM      9  C   UNL     1      32.197  -9.694 -23.013  0.00  0.00    -0.002 C 
ATOM     10  C   UNL     1      31.384 -10.171 -20.788  0.00  0.00    -0.002 C 
ATOM     11  C   UNL     1      31.937  -8.337 -22.815  0.00  0.00    -0.005 C 
ATOM     12  C   UNL     1      31.125  -8.815 -20.592  0.00  0.00    -0.005 C 
ATOM     13  C   UNL     1      31.401  -7.898 -21.605  0.00  0.00    -0.022 C 
ATOM     14  C   UNL     1      31.125  -6.448 -21.394  0.00  0.00    +0.031 C 
ENDBRANCH   2   8
BRANCH   2  15
ATOM     15  O   UNL     1      30.914 -12.729 -22.255  0.00  0.00    -0.383 OA
ATOM     16  H   UNL     1      30.735 -13.041 -23.155  0.00  0.00    +0.211 HD
ENDBRANCH   2  15
BRANCH   1  17
ATOM     17  C   UNL     1      34.566 -15.719 -22.646  0.00  0.00    -0.077 C 
BRANCH  17  18
ATOM     18  C   UNL     1      34.561 -16.420 -21.287  0.00  0.00    -0.015 C 
BRANCH  18  19
ATOM     19  C   UNL     1      35.386 -17.710 -21.295  0.00  0.00    +0.067 C 
BRANCH  19  21
ATOM     20  O   UNL     1      34.126 -19.191 -22.722  0.00  0.00    -0.291 OA
ATOM     21  C   UNL     1      34.563 -18.952 -21.599  0.00  0.00    +0.173 C 
BRANCH  21  23
ATOM     22  F   UNL     1      33.572 -22.582 -17.475  0.00  0.00    -0.204 F 
ATOM     23  C   UNL     1      34.299 -19.921 -20.497  0.00  0.00    +0.035 C 
ATOM     24  C   UNL     1      32.993 -20.185 -20.150  0.00  0.00    +0.005 C 
ATOM     25  C   UNL     1      35.370 -20.516 -19.869  0.00  0.00    +0.005 C 
ATOM     26  C   UNL     1      32.745 -21.093 -19.119  0.00  0.00    +0.030 C 
ATOM     27  C   UNL     1      35.122 -21.424 -18.838  0.00  0.00    +0.030 C 
ATOM     28  C   UNL     1      33.809 -21.712 -18.464  0.00  0.00    +0.140 C 
ENDBRANCH  21  23
ENDBRANCH  19  21
ENDBRANCH  18  19
ENDBRANCH  17  18
ENDBRANCH   1  17
TORSDOF 7
ENDMDL
MODEL 5
REMARK VINA RESULT:     -12.3      2.760      5.256
REMARK  Name = 4249
REMARK  7 active torsions:
REMARK  status: ('A' for Active; 'I' for Inactive)
REMARK    1  A    between atoms: N_1  and  C_17
REMARK    2  A    between atoms: C_2  and  C_8
REMARK    3  A    between atoms: C_2  and  O_15
REMARK    4  A    between atoms: C_17  and  C_18
REMARK    5  A    between atoms: C_18  and  C_19
REMARK    6  A    between atoms: C_19  and  C_21
REMARK    7  A    between atoms: C_21  and  C_23
REMARK                            x       y       z     vdW  Elec       q    Type
REMARK                         _______ _______ _______ _____ _____    ______ ____
ROOT
ATOM      1  N   UNL     1      33.789 -15.803 -23.100  0.00  0.00    +0.387 N 
ATOM      2  C   UNL     1      34.700 -18.236 -21.660  0.00  0.00    +0.103 C 
ATOM      3  C   UNL     1      33.943 -18.266 -23.007  0.00  0.00    +0.008 C 
ATOM      4  C   UNL     1      34.400 -16.892 -20.957  0.00  0.00    +0.008 C 
ATOM      5  C   UNL     1      34.167 -17.005 -23.850  0.00  0.00    -0.075 C 
ATOM      6  C   UNL     1      34.581 -15.675 -21.873  0.00  0.00    -0.075 C 
ATOM      7  H   UNL     1      32.808 -15.894 -22.835  0.00  0.00    -0.080 HD
ENDROOT
BRANCH   2   8
ATOM      8  C   UNL     1      34.402 -19.409 -20.726  0.00  0.00    +0.002 C 
ATOM      9  C   UNL     1      33.081 -19.779 -20.475  0.00  0.00    -0.002 C 
ATOM     10  C   UNL     1      35.449 -20.106 -20.127  0.00  0.00    -0.002 C 
ATOM     11  C   UNL     1      32.809 -20.850 -19.623  0.00  0.00    -0.005 C 
ATOM     12  C   UNL     1      35.176 -21.176 -19.275  0.00  0.00    -0.005 C 
ATOM     13  C   UNL     1      33.856 -21.548 -19.023  0.00  0.00    -0.022 C 
ATOM     14  C   UNL     1      33.564 -22.692 -18.111  0.00  0.00    +0.031 C 
ENDBRANCH   2   8
BRANCH   2  15
ATOM     15  O   UNL     1      36.105 -18.323 -21.946  0.00  0.00    -0.383 OA
ATOM     16  H   UNL     1      36.611 -18.041 -21.168  0.00  0.00    +0.211 HD
ENDBRANCH   2  15
BRANCH   1  17
ATOM     17  C   UNL     1      33.938 -14.611 -23.934  0.00  0.00    -0.077 C 
BRANCH  17  18
ATOM     18  C   UNL     1      33.747 -13.348 -23.093  0.00  0.00    -0.015 C 
BRANCH  18  19
ATOM     19  C   UNL     1      32.275 -12.941 -22.980  0.00  0.00    +0.067 C 
BRANCH  19  21
ATOM     20  O   UNL     1      31.731 -13.340 -20.663  0.00  0.00    -0.291 OA
ATOM     21  C   UNL     1      31.869 -12.527 -21.574  0.00  0.00    +0.173 C 
BRANCH  21  23
ATOM     22  F   UNL     1      31.049  -7.106 -20.517  0.00  0.00    -0.204 F 
ATOM     23  C   UNL     1      31.651 -11.079 -21.291  0.00  0.00    +0.035 C 
ATOM     24  C   UNL     1      31.664 -10.191 -22.344  0.00  0.00    +0.005 C 
ATOM     25  C   UNL     1      31.443 -10.684 -19.989  0.00  0.00    +0.005 C 
ATOM     26  C   UNL     1      31.459  -8.837 -22.079  0.00  0.00    +0.030 C 
ATOM     27  C   UNL     1      31.238  -9.329 -19.724  0.00  0.00    +0.030 C 
ATOM     28  C   UNL     1      31.245  -8.406 -20.770  0.00  0.00    +0.140 C 
ENDBRANCH  21  23
ENDBRANCH  19  21
ENDBRANCH  18  19
ENDBRANCH  17  18
ENDBRANCH   1  17
TORSDOF 7
ENDMDL
MODEL 6
REMARK VINA RESULT:     -12.2      2.736      5.234
REMARK  Name = 4249
REMARK  7 active torsions:
REMARK  status: ('A' for Active; 'I' for Inactive)
REMARK    1  A    between atoms: N_1  and  C_17
REMARK    2  A    between atoms: C_2  and  C_8
REMARK    3  A    between atoms: C_2  and  O_15
REMARK    4  A    between atoms: C_17  and  C_18
REMARK    5  A    between atoms: C_18  and  C_19
REMARK    6  A    between atoms: C_19  and  C_21
REMARK    7  A    between atoms: C_21  and  C_23
REMARK                            x       y       z     vdW  Elec       q    Type
REMARK                         _______ _______ _______ _____ _____    ______ ____
ROOT
ATOM      1  N   UNL     1      33.784 -15.854 -23.133  0.00  0.00    +0.387 N 
ATOM      2  C   UNL     1      34.676 -18.270 -21.652  0.00  0.00    +0.103 C 
ATOM      3  C   UNL     1      33.945 -18.315 -23.013  0.00  0.00    +0.008 C 
ATOM      4  C   UNL     1      34.357 -16.920 -20.967  0.00  0.00    +0.008 C 
ATOM      5  C   UNL     1      34.181 -17.062 -23.864  0.00  0.00    -0.075 C 
ATOM      6  C   UNL     1      34.551 -15.711 -21.892  0.00  0.00    -0.075 C 
ATOM      7  H   UNL     1      32.798 -15.946 -22.886  0.00  0.00    -0.080 HD
ENDROOT
BRANCH   2   8
ATOM      8  C   UNL     1      34.363 -19.435 -20.712  0.00  0.00    +0.002 C 
ATOM      9  C   UNL     1      35.404 -20.129 -20.096  0.00  0.00    -0.002 C 
ATOM     10  C   UNL     1      33.040 -19.800 -20.472  0.00  0.00    -0.002 C 
ATOM     11  C   UNL     1      35.118 -21.191 -19.238  0.00  0.00    -0.005 C 
ATOM     12  C   UNL     1      32.756 -20.861 -19.614  0.00  0.00    -0.005 C 
ATOM     13  C   UNL     1      33.795 -21.557 -18.996  0.00  0.00    -0.022 C 
ATOM     14  C   UNL     1      33.491 -22.693 -18.079  0.00  0.00    +0.031 C 
ENDBRANCH   2   8
BRANCH   2  15
ATOM     15  O   UNL     1      36.086 -18.354 -21.909  0.00  0.00    -0.383 OA
ATOM     16  H   UNL     1      36.574 -18.246 -21.078  0.00  0.00    +0.211 HD
ENDBRANCH   2  15
BRANCH   1  17
ATOM     17  C   UNL     1      33.945 -14.669 -23.975  0.00  0.00    -0.077 C 
BRANCH  17  18
ATOM     18  C   UNL     1      33.807 -13.398 -23.135  0.00  0.00    -0.015 C 
BRANCH  18  19
ATOM     19  C   UNL     1      32.367 -12.879 -23.099  0.00  0.00    +0.067 C 
BRANCH  19  21
ATOM     20  O   UNL     1      31.698 -13.351 -20.829  0.00  0.00    -0.291 OA
ATOM     21  C   UNL     1      31.894 -12.508 -21.701  0.00  0.00    +0.173 C 
BRANCH  21  23
ATOM     22  F   UNL     1      31.103  -7.115 -20.491  0.00  0.00    -0.204 F 
ATOM     23  C   UNL     1      31.681 -11.068 -21.378  0.00  0.00    +0.035 C 
ATOM     24  C   UNL     1      31.439 -10.713 -20.070  0.00  0.00    +0.005 C 
ATOM     25  C   UNL     1      31.738 -10.147 -22.400  0.00  0.00    +0.005 C 
ATOM     26  C   UNL     1      31.242  -9.365 -19.768  0.00  0.00    +0.030 C 
ATOM     27  C   UNL     1      31.540  -8.798 -22.098  0.00  0.00    +0.030 C 
ATOM     28  C   UNL     1      31.293  -8.409 -20.781  0.00  0.00    +0.140 C 
ENDBRANCH  21  23
ENDBRANCH  19  21
ENDBRANCH  18  19
ENDBRANCH  17  18
ENDBRANCH   1  17
TORSDOF 7
ENDMDL
MODEL 7
REMARK VINA RESULT:     -11.6      4.799     10.037
REMARK  Name = 4249
REMARK  7 active torsions:
REMARK  status: ('A' for Active; 'I' for Inactive)
REMARK    1  A    between atoms: N_1  and  C_17
REMARK    2  A    between atoms: C_2  and  C_8
REMARK    3  A    between atoms: C_2  and  O_15
REMARK    4  A    between atoms: C_17  and  C_18
REMARK    5  A    between atoms: C_18  and  C_19
REMARK    6  A    between atoms: C_19  and  C_21
REMARK    7  A    between atoms: C_21  and  C_23
REMARK                            x       y       z     vdW  Elec       q    Type
REMARK                         _______ _______ _______ _____ _____    ______ ____
ROOT
ATOM      1  N   UNL     1      32.624 -22.918 -15.023  0.00  0.00    +0.387 N 
ATOM      2  C   UNL     1      33.300 -22.351 -17.860  0.00  0.00    +0.103 C 
ATOM      3  C   UNL     1      34.344 -22.410 -16.722  0.00  0.00    +0.008 C 
ATOM      4  C   UNL     1      31.912 -22.062 -17.240  0.00  0.00    +0.008 C 
ATOM      5  C   UNL     1      33.923 -23.328 -15.568  0.00  0.00    -0.075 C 
ATOM      6  C   UNL     1      31.579 -22.971 -16.050  0.00  0.00    -0.075 C 
ATOM      7  H   UNL     1      32.708 -21.950 -14.707  0.00  0.00    -0.080 HD
ENDROOT
BRANCH   2   8
ATOM      8  C   UNL     1      33.611 -21.346 -18.969  0.00  0.00    +0.002 C 
ATOM      9  C   UNL     1      34.935 -21.065 -19.302  0.00  0.00    -0.002 C 
ATOM     10  C   UNL     1      32.570 -20.713 -19.647  0.00  0.00    -0.002 C 
ATOM     11  C   UNL     1      35.219 -20.149 -20.315  0.00  0.00    -0.005 C 
ATOM     12  C   UNL     1      32.854 -19.797 -20.660  0.00  0.00    -0.005 C 
ATOM     13  C   UNL     1      34.179 -19.515 -20.994  0.00  0.00    -0.022 C 
ATOM     14  C   UNL     1      34.483 -18.535 -22.076  0.00  0.00    +0.031 C 
ENDBRANCH   2   8
BRANCH   2  15
ATOM     15  O   UNL     1      33.278 -23.635 -18.502  0.00  0.00    -0.383 OA
ATOM     16  H   UNL     1      33.827 -23.606 -19.301  0.00  0.00    +0.211 HD
ENDBRANCH   2  15
BRANCH   1  17
ATOM     17  C   UNL     1      32.262 -23.752 -13.878  0.00  0.00    -0.077 C 
BRANCH  17  18
ATOM     18  C   UNL     1      33.494 -24.489 -13.349  0.00  0.00    -0.015 C 
BRANCH  18  19
ATOM     19  C   UNL     1      34.244 -23.681 -12.286  0.00  0.00    +0.067 C 
BRANCH  19  21
ATOM     20  O   UNL     1      35.629 -24.823 -10.674  0.00  0.00    -0.291 OA
ATOM     21  C   UNL     1      35.520 -24.353 -11.804  0.00  0.00    +0.173 C 
BRANCH  21  23
ATOM     22  F   UNL     1      39.823 -24.758 -15.339  0.00  0.00    -0.204 F 
ATOM     23  C   UNL     1      36.670 -24.461 -12.748  0.00  0.00    +0.035 C 
ATOM     24  C   UNL     1      37.531 -25.528 -12.621  0.00  0.00    +0.005 C 
ATOM     25  C   UNL     1      36.828 -23.489 -13.711  0.00  0.00    +0.005 C 
ATOM     26  C   UNL     1      38.606 -25.629 -13.505  0.00  0.00    +0.030 C 
ATOM     27  C   UNL     1      37.903 -23.590 -14.595  0.00  0.00    +0.030 C 
ATOM     28  C   UNL     1      38.792 -24.661 -14.491  0.00  0.00    +0.140 C 
ENDBRANCH  21  23
ENDBRANCH  19  21
ENDBRANCH  18  19
ENDBRANCH  17  18
ENDBRANCH   1  17
TORSDOF 7
ENDMDL
MODEL 8
REMARK VINA RESULT:     -11.5      4.901     10.921
REMARK  Name = 4249
REMARK  7 active torsions:
REMARK  status: ('A' for Active; 'I' for Inactive)
REMARK    1  A    between atoms: N_1  and  C_17
REMARK    2  A    between atoms: C_2  and  C_8
REMARK    3  A    between atoms: C_2  and  O_15
REMARK    4  A    between atoms: C_17  and  C_18
REMARK    5  A    between atoms: C_18  and  C_19
REMARK    6  A    between atoms: C_19  and  C_21
REMARK    7  A    between atoms: C_21  and  C_23
REMARK                            x       y       z     vdW  Elec       q    Type
REMARK                         _______ _______ _______ _____ _____    ______ ____
ROOT
ATOM      1  N   UNL     1      33.168 -12.990 -21.770  0.00  0.00    +0.387 N 
ATOM      2  C   UNL     1      31.483 -10.548 -21.638  0.00  0.00    +0.103 C 
ATOM      3  C   UNL     1      32.390 -10.904 -22.837  0.00  0.00    +0.008 C 
ATOM      4  C   UNL     1      32.009 -11.288 -20.386  0.00  0.00    +0.008 C 
ATOM      5  C   UNL     1      32.610 -12.412 -22.997  0.00  0.00    -0.075 C 
ATOM      6  C   UNL     1      32.270 -12.781 -20.631  0.00  0.00    -0.075 C 
ATOM      7  H   UNL     1      34.048 -12.513 -21.570  0.00  0.00    -0.080 HD
ENDROOT
BRANCH   2   8
ATOM      8  C   UNL     1      31.344  -9.051 -21.355  0.00  0.00    +0.002 C 
ATOM      9  C   UNL     1      30.999  -8.179 -22.387  0.00  0.00    -0.002 C 
ATOM     10  C   UNL     1      31.560  -8.562 -20.069  0.00  0.00    -0.002 C 
ATOM     11  C   UNL     1      30.871  -6.813 -22.129  0.00  0.00    -0.005 C 
ATOM     12  C   UNL     1      31.432  -7.198 -19.811  0.00  0.00    -0.005 C 
ATOM     13  C   UNL     1      31.087  -6.323 -20.841  0.00  0.00    -0.022 C 
ATOM     14  C   UNL     1      30.951  -4.863 -20.566  0.00  0.00    +0.031 C 
ENDBRANCH   2   8
BRANCH   2  15
ATOM     15  O   UNL     1      30.156 -11.005 -21.941  0.00  0.00    -0.383 OA
ATOM     16  H   UNL     1      29.511 -10.343 -21.647  0.00  0.00    +0.211 HD
ENDBRANCH   2  15
BRANCH   1  17
ATOM     17  C   UNL     1      33.441 -14.415 -21.953  0.00  0.00    -0.077 C 
BRANCH  17  18
ATOM     18  C   UNL     1      33.394 -14.778 -23.439  0.00  0.00    -0.015 C 
BRANCH  18  19
ATOM     19  C   UNL     1      34.536 -15.714 -23.845  0.00  0.00    +0.067 C 
BRANCH  19  21
ATOM     20  O   UNL     1      33.483 -17.734 -24.643  0.00  0.00    -0.291 OA
ATOM     21  C   UNL     1      34.162 -17.187 -23.777  0.00  0.00    +0.173 C 
BRANCH  21  23
ATOM     22  F   UNL     1      36.013 -20.215 -19.466  0.00  0.00    -0.204 F 
ATOM     23  C   UNL     1      34.657 -17.997 -22.626  0.00  0.00    +0.035 C 
ATOM     24  C   UNL     1      35.911 -17.732 -22.123  0.00  0.00    +0.005 C 
ATOM     25  C   UNL     1      33.841 -18.977 -22.108  0.00  0.00    +0.005 C 
ATOM     26  C   UNL     1      36.373 -18.489 -21.045  0.00  0.00    +0.030 C 
ATOM     27  C   UNL     1      34.303 -19.734 -21.031  0.00  0.00    +0.030 C 
ATOM     28  C   UNL     1      35.569 -19.489 -20.499  0.00  0.00    +0.140 C 
ENDBRANCH  21  23
ENDBRANCH  19  21
ENDBRANCH  18  19
ENDBRANCH  17  18
ENDBRANCH   1  17
TORSDOF 7
ENDMDL
MODEL 9
REMARK VINA RESULT:     -11.3      4.264     10.122
REMARK  Name = 4249
REMARK  7 active torsions:
REMARK  status: ('A' for Active; 'I' for Inactive)
REMARK    1  A    between atoms: N_1  and  C_17
REMARK    2  A    between atoms: C_2  and  C_8
REMARK    3  A    between atoms: C_2  and  O_15
REMARK    4  A    between atoms: C_17  and  C_18
REMARK    5  A    between atoms: C_18  and  C_19
REMARK    6  A    between atoms: C_19  and  C_21
REMARK    7  A    between atoms: C_21  and  C_23
REMARK                            x       y       z     vdW  Elec       q    Type
REMARK                         _______ _______ _______ _____ _____    ______ ____
ROOT
ATOM      1  N   UNL     1      35.153 -20.125 -19.535  0.00  0.00    +0.387 N 
ATOM      2  C   UNL     1      34.795 -18.144 -21.720  0.00  0.00    +0.103 C 
ATOM      3  C   UNL     1      36.075 -18.256 -20.861  0.00  0.00    +0.008 C 
ATOM      4  C   UNL     1      33.618 -18.767 -20.934  0.00  0.00    +0.008 C 
ATOM      5  C   UNL     1      36.310 -19.669 -20.314  0.00  0.00    -0.075 C 
ATOM      6  C   UNL     1      33.940 -20.152 -20.358  0.00  0.00    -0.075 C 
ATOM      7  H   UNL     1      35.005 -19.460 -18.775  0.00  0.00    -0.080 HD
ENDROOT
BRANCH   2   8
ATOM      8  C   UNL     1      34.445 -16.727 -22.176  0.00  0.00    +0.002 C 
ATOM      9  C   UNL     1      34.263 -15.718 -21.231  0.00  0.00    -0.002 C 
ATOM     10  C   UNL     1      34.310 -16.446 -23.535  0.00  0.00    -0.002 C 
ATOM     11  C   UNL     1      33.945 -14.425 -21.648  0.00  0.00    -0.005 C 
ATOM     12  C   UNL     1      33.991 -15.154 -23.950  0.00  0.00    -0.005 C 
ATOM     13  C   UNL     1      33.809 -14.143 -23.007  0.00  0.00    -0.022 C 
ATOM     14  C   UNL     1      33.468 -12.761 -23.451  0.00  0.00    +0.031 C 
ENDBRANCH   2   8
BRANCH   2  15
ATOM     15  O   UNL     1      35.012 -18.892 -22.927  0.00  0.00    -0.383 OA
ATOM     16  H   UNL     1      35.962 -19.043 -23.048  0.00  0.00    +0.211 HD
ENDBRANCH   2  15
BRANCH   1  17
ATOM     17  C   UNL     1      35.412 -21.443 -18.957  0.00  0.00    -0.077 C 
BRANCH  17  18
ATOM     18  C   UNL     1      36.305 -21.314 -17.722  0.00  0.00    -0.015 C 
BRANCH  18  19
ATOM     19  C   UNL     1      35.672 -21.947 -16.479  0.00  0.00    +0.067 C 
BRANCH  19  21
ATOM     20  O   UNL     1      37.902 -22.403 -15.678  0.00  0.00    -0.291 OA
ATOM     21  C   UNL     1      36.693 -22.428 -15.460  0.00  0.00    +0.173 C 
BRANCH  21  23
ATOM     22  F   UNL     1      34.866 -24.304 -10.528  0.00  0.00    -0.204 F 
ATOM     23  C   UNL     1      36.205 -22.928 -14.142  0.00  0.00    +0.035 C 
ATOM     24  C   UNL     1      34.911 -23.392 -14.049  0.00  0.00    +0.005 C 
ATOM     25  C   UNL     1      37.066 -22.910 -13.068  0.00  0.00    +0.005 C 
ATOM     26  C   UNL     1      34.455 -23.861 -12.817  0.00  0.00    +0.030 C 
ATOM     27  C   UNL     1      36.610 -23.379 -11.835  0.00  0.00    +0.030 C 
ATOM     28  C   UNL     1      35.304 -23.855 -11.711  0.00  0.00    +0.140 C 
ENDBRANCH  21  23
ENDBRANCH  19  21
ENDBRANCH  18  19
ENDBRANCH  17  18
ENDBRANCH   1  17
TORSDOF 7
ENDMDL
