MODEL 1
REMARK VINA RESULT:     -10.9      0.000      0.000
REMARK  Name = 42628075
REMARK  8 active torsions:
REMARK  status: ('A' for Active; 'I' for Inactive)
REMARK    1  A    between atoms: C_1  and  C_5
REMARK    2  A    between atoms: C_1  and  C_13
REMARK    3  A    between atoms: C_1  and  C_21
REMARK    4  A    between atoms: N_4  and  C_7
REMARK    5  A    between atoms: C_18  and  O_19
REMARK    6  A    between atoms: C_21  and  C_22
REMARK    7  A    between atoms: C_23  and  O_31
REMARK    8  A    between atoms: C_25  and  N_30
REMARK                            x       y       z     vdW  Elec       q    Type
REMARK                         _______ _______ _______ _____ _____    ______ ____
ROOT
ATOM      1  C   UNL     1      34.131 -23.247 -14.783  0.00  0.00    +0.064 C 
ENDROOT
BRANCH   1   4
ATOM      2  N   UNL     1      32.158 -24.270 -13.530  0.00  0.00    -0.308 N 
ATOM      3  N   UNL     1      30.559 -22.734 -13.653  0.00  0.00    -0.305 N 
ATOM      4  C   UNL     1      32.693 -23.230 -14.237  0.00  0.00    +0.042 C 
ATOM      5  C   UNL     1      31.687 -22.294 -14.299  0.00  0.00    +0.070 C 
ATOM      6  C   UNL     1      30.876 -23.927 -13.202  0.00  0.00    +0.204 C 
ATOM      7  H   UNL     1      32.613 -25.113 -13.300  0.00  0.00    +0.149 HD
ATOM      8  H   UNL     1      29.703 -22.260 -13.550  0.00  0.00    +0.150 HD
BRANCH   6   9
ATOM      9  N   UNL     1      30.138 -24.808 -12.492  0.00  0.00    -0.291 NA
ATOM     10  H   UNL     1      30.252 -25.775 -12.637  0.00  0.00    +0.122 HD
ATOM     11  H   UNL     1      29.485 -24.484 -11.831  0.00  0.00    +0.122 HD
ENDBRANCH   6   9
ENDBRANCH   1   4
BRANCH   1  13
ATOM     12  F   UNL     1      36.599 -20.755 -18.155  0.00  0.00    -0.201 F 
ATOM     13  C   UNL     1      34.239 -22.662 -16.150  0.00  0.00    -0.014 C 
ATOM     14  C   UNL     1      35.390 -21.969 -16.523  0.00  0.00    +0.029 C 
ATOM     15  C   UNL     1      33.188 -22.807 -17.056  0.00  0.00    -0.001 C 
ATOM     16  C   UNL     1      35.491 -21.420 -17.802  0.00  0.00    +0.174 C 
ATOM     17  C   UNL     1      33.288 -22.259 -18.334  0.00  0.00    +0.039 C 
ATOM     18  C   UNL     1      34.440 -21.566 -18.708  0.00  0.00    +0.166 C 
BRANCH  18  19
ATOM     19  O   UNL     1      34.536 -21.033 -19.956  0.00  0.00    -0.469 OA
ATOM     20  C   UNL     1      33.623 -19.988 -20.289  0.00  0.00    +0.253 C 
ENDBRANCH  18  19
ENDBRANCH   1  13
BRANCH   1  21
ATOM     21  C   UNL     1      34.760 -24.674 -14.640  0.00  0.00    +0.040 C 
BRANCH  21  22
ATOM     22  C   UNL     1      36.077 -24.658 -13.895  0.00  0.00    +0.014 C 
ATOM     23  C   UNL     1      36.106 -24.595 -12.502  0.00  0.00    +0.135 C 
ATOM     24  C   UNL     1      37.270 -24.706 -14.617  0.00  0.00    +0.023 C 
ATOM     25  C   UNL     1      38.492 -24.691 -13.945  0.00  0.00    +0.143 C 
ATOM     26  C   UNL     1      37.329 -24.582 -11.830  0.00  0.00    +0.038 C 
ATOM     27  C   UNL     1      38.522 -24.630 -12.552  0.00  0.00    +0.027 C 
BRANCH  25  30
ATOM     28  O   UNL     1      40.658 -24.001 -14.334  0.00  0.00    -0.126 OA
ATOM     29  O   UNL     1      39.796 -25.529 -15.653  0.00  0.00    -0.126 OA
ATOM     30  N   UNL     1      39.707 -24.743 -14.679  0.00  0.00    +0.058 N 
ENDBRANCH  25  30
BRANCH  23  31
ATOM     31  O   UNL     1      34.951 -24.548 -11.782  0.00  0.00    -0.472 OA
ATOM     32  C   UNL     1      35.051 -24.121 -10.425  0.00  0.00    +0.252 C 
ENDBRANCH  23  31
ENDBRANCH  21  22
ENDBRANCH   1  21
TORSDOF 8
ENDMDL
MODEL 2
REMARK VINA RESULT:     -10.7      3.360      6.510
REMARK  Name = 42628075
REMARK  8 active torsions:
REMARK  status: ('A' for Active; 'I' for Inactive)
REMARK    1  A    between atoms: C_1  and  C_5
REMARK    2  A    between atoms: C_1  and  C_13
REMARK    3  A    between atoms: C_1  and  C_21
REMARK    4  A    between atoms: N_4  and  C_7
REMARK    5  A    between atoms: C_18  and  O_19
REMARK    6  A    between atoms: C_21  and  C_22
REMARK    7  A    between atoms: C_23  and  O_31
REMARK    8  A    between atoms: C_25  and  N_30
REMARK                            x       y       z     vdW  Elec       q    Type
REMARK                         _______ _______ _______ _____ _____    ______ ____
ROOT
ATOM      1  C   UNL     1      33.357 -22.959 -16.406  0.00  0.00    +0.064 C 
ENDROOT
BRANCH   1   4
ATOM      2  N   UNL     1      34.690 -24.750 -15.172  0.00  0.00    -0.308 N 
ATOM      3  N   UNL     1      36.601 -23.754 -14.632  0.00  0.00    -0.305 N 
ATOM      4  C   UNL     1      34.597 -23.475 -15.655  0.00  0.00    +0.042 C 
ATOM      5  C   UNL     1      35.788 -22.880 -15.309  0.00  0.00    +0.070 C 
ATOM      6  C   UNL     1      35.911 -24.870 -14.566  0.00  0.00    +0.204 C 
ATOM      7  H   UNL     1      34.005 -25.453 -15.246  0.00  0.00    +0.149 HD
ATOM      8  H   UNL     1      37.502 -23.582 -14.275  0.00  0.00    +0.150 HD
BRANCH   6   9
ATOM      9  N   UNL     1      36.235 -26.057 -14.007  0.00  0.00    -0.291 NA
ATOM     10  H   UNL     1      36.359 -26.125 -13.033  0.00  0.00    +0.122 HD
ATOM     11  H   UNL     1      36.350 -26.853 -14.575  0.00  0.00    +0.122 HD
ENDBRANCH   6   9
ENDBRANCH   1   4
BRANCH   1  13
ATOM     12  F   UNL     1      32.044 -20.417 -20.341  0.00  0.00    -0.201 F 
ATOM     13  C   UNL     1      33.703 -22.129 -17.595  0.00  0.00    -0.014 C 
ATOM     14  C   UNL     1      32.694 -21.650 -18.430  0.00  0.00    +0.029 C 
ATOM     15  C   UNL     1      35.038 -21.831 -17.873  0.00  0.00    -0.001 C 
ATOM     16  C   UNL     1      33.019 -20.874 -19.543  0.00  0.00    +0.174 C 
ATOM     17  C   UNL     1      35.363 -21.055 -18.985  0.00  0.00    +0.039 C 
ATOM     18  C   UNL     1      34.353 -20.576 -19.820  0.00  0.00    +0.166 C 
BRANCH  18  19
ATOM     19  O   UNL     1      34.671 -19.818 -20.904  0.00  0.00    -0.469 OA
ATOM     20  C   UNL     1      35.835 -18.998 -20.804  0.00  0.00    +0.253 C 
ENDBRANCH  18  19
ENDBRANCH   1  13
BRANCH   1  21
ATOM     21  C   UNL     1      32.352 -22.282 -15.416  0.00  0.00    +0.040 C 
BRANCH  21  22
ATOM     22  C   UNL     1      31.009 -22.978 -15.380  0.00  0.00    +0.014 C 
ATOM     23  C   UNL     1      30.834 -24.149 -14.644  0.00  0.00    +0.135 C 
ATOM     24  C   UNL     1      29.941 -22.435 -16.095  0.00  0.00    +0.023 C 
ATOM     25  C   UNL     1      28.697 -23.066 -16.074  0.00  0.00    +0.143 C 
ATOM     26  C   UNL     1      29.589 -24.779 -14.622  0.00  0.00    +0.038 C 
ATOM     27  C   UNL     1      28.521 -24.237 -15.337  0.00  0.00    +0.027 C 
BRANCH  25  30
ATOM     28  O   UNL     1      27.049 -23.209 -17.682  0.00  0.00    -0.126 OA
ATOM     29  O   UNL     1      27.234 -21.345 -16.538  0.00  0.00    -0.126 OA
ATOM     30  N   UNL     1      27.608 -22.513 -16.799  0.00  0.00    +0.058 N 
ENDBRANCH  25  30
BRANCH  23  31
ATOM     31  O   UNL     1      31.866 -24.692 -13.941  0.00  0.00    -0.472 OA
ATOM     32  C   UNL     1      32.214 -24.060 -12.711  0.00  0.00    +0.252 C 
ENDBRANCH  23  31
ENDBRANCH  21  22
ENDBRANCH   1  21
TORSDOF 8
ENDMDL
MODEL 3
REMARK VINA RESULT:     -10.1      3.583      6.672
REMARK  Name = 42628075
REMARK  8 active torsions:
REMARK  status: ('A' for Active; 'I' for Inactive)
REMARK    1  A    between atoms: C_1  and  C_5
REMARK    2  A    between atoms: C_1  and  C_13
REMARK    3  A    between atoms: C_1  and  C_21
REMARK    4  A    between atoms: N_4  and  C_7
REMARK    5  A    between atoms: C_18  and  O_19
REMARK    6  A    between atoms: C_21  and  C_22
REMARK    7  A    between atoms: C_23  and  O_31
REMARK    8  A    between atoms: C_25  and  N_30
REMARK                            x       y       z     vdW  Elec       q    Type
REMARK                         _______ _______ _______ _____ _____    ______ ____
ROOT
ATOM      1  C   UNL     1      32.958 -22.780 -15.766  0.00  0.00    +0.064 C 
ENDROOT
BRANCH   1   4
ATOM      2  N   UNL     1      33.675 -22.877 -13.320  0.00  0.00    -0.308 N 
ATOM      3  N   UNL     1      35.013 -24.646 -13.198  0.00  0.00    -0.305 N 
ATOM      4  C   UNL     1      33.725 -23.396 -14.583  0.00  0.00    +0.042 C 
ATOM      5  C   UNL     1      34.557 -24.487 -14.483  0.00  0.00    +0.070 C 
ATOM      6  C   UNL     1      34.465 -23.661 -12.524  0.00  0.00    +0.204 C 
ATOM      7  H   UNL     1      33.165 -22.085 -13.035  0.00  0.00    +0.149 HD
ATOM      8  H   UNL     1      35.618 -25.344 -12.858  0.00  0.00    +0.150 HD
BRANCH   6   9
ATOM      9  N   UNL     1      34.573 -23.341 -11.215  0.00  0.00    -0.291 NA
ATOM     10  H   UNL     1      33.949 -23.730 -10.561  0.00  0.00    +0.122 HD
ATOM     11  H   UNL     1      35.274 -22.719 -10.917  0.00  0.00    +0.122 HD
ENDBRANCH   6   9
ENDBRANCH   1   4
BRANCH   1  13
ATOM     12  F   UNL     1      29.033 -24.598 -13.538  0.00  0.00    -0.201 F 
ATOM     13  C   UNL     1      31.478 -22.890 -15.618  0.00  0.00    -0.014 C 
ATOM     14  C   UNL     1      30.934 -23.707 -14.628  0.00  0.00    +0.029 C 
ATOM     15  C   UNL     1      30.637 -22.174 -16.471  0.00  0.00    -0.001 C 
ATOM     16  C   UNL     1      29.550 -23.810 -14.491  0.00  0.00    +0.174 C 
ATOM     17  C   UNL     1      29.254 -22.276 -16.334  0.00  0.00    +0.039 C 
ATOM     18  C   UNL     1      28.710 -23.094 -15.343  0.00  0.00    +0.166 C 
BRANCH  18  19
ATOM     19  O   UNL     1      27.359 -23.192 -15.210  0.00  0.00    -0.469 OA
ATOM     20  C   UNL     1      26.583 -22.064 -15.611  0.00  0.00    +0.253 C 
ENDBRANCH  18  19
ENDBRANCH   1  13
BRANCH   1  21
ATOM     21  C   UNL     1      33.512 -23.320 -17.127  0.00  0.00    +0.040 C 
BRANCH  21  22
ATOM     22  C   UNL     1      34.098 -22.226 -17.993  0.00  0.00    +0.014 C 
ATOM     23  C   UNL     1      35.420 -21.817 -17.825  0.00  0.00    +0.135 C 
ATOM     24  C   UNL     1      33.299 -21.627 -18.967  0.00  0.00    +0.023 C 
ATOM     25  C   UNL     1      33.824 -20.616 -19.773  0.00  0.00    +0.143 C 
ATOM     26  C   UNL     1      35.945 -20.806 -18.632  0.00  0.00    +0.038 C 
ATOM     27  C   UNL     1      35.147 -20.206 -19.606  0.00  0.00    +0.027 C 
BRANCH  25  30
ATOM     28  O   UNL     1      31.767 -20.147 -20.705  0.00  0.00    -0.126 OA
ATOM     29  O   UNL     1      33.563 -19.346 -21.680  0.00  0.00    -0.126 OA
ATOM     30  N   UNL     1      33.013 -20.007 -20.767  0.00  0.00    +0.058 N 
ENDBRANCH  25  30
BRANCH  23  31
ATOM     31  O   UNL     1      36.214 -22.392 -16.879  0.00  0.00    -0.472 OA
ATOM     32  C   UNL     1      36.770 -21.529 -15.889  0.00  0.00    +0.252 C 
ENDBRANCH  23  31
ENDBRANCH  21  22
ENDBRANCH   1  21
TORSDOF 8
ENDMDL
MODEL 4
REMARK VINA RESULT:     -10.1      1.797      3.203
REMARK  Name = 42628075
REMARK  8 active torsions:
REMARK  status: ('A' for Active; 'I' for Inactive)
REMARK    1  A    between atoms: C_1  and  C_5
REMARK    2  A    between atoms: C_1  and  C_13
REMARK    3  A    between atoms: C_1  and  C_21
REMARK    4  A    between atoms: N_4  and  C_7
REMARK    5  A    between atoms: C_18  and  O_19
REMARK    6  A    between atoms: C_21  and  C_22
REMARK    7  A    between atoms: C_23  and  O_31
REMARK    8  A    between atoms: C_25  and  N_30
REMARK                            x       y       z     vdW  Elec       q    Type
REMARK                         _______ _______ _______ _____ _____    ______ ____
ROOT
ATOM      1  C   UNL     1      34.208 -23.006 -15.067  0.00  0.00    +0.064 C 
ENDROOT
BRANCH   1   4
ATOM      2  N   UNL     1      32.176 -24.199 -14.089  0.00  0.00    -0.308 N 
ATOM      3  N   UNL     1      30.476 -22.825 -14.481  0.00  0.00    -0.305 N 
ATOM      4  C   UNL     1      32.709 -23.120 -14.736  0.00  0.00    +0.042 C 
ATOM      5  C   UNL     1      31.641 -22.286 -14.968  0.00  0.00    +0.070 C 
ATOM      6  C   UNL     1      30.833 -23.977 -13.959  0.00  0.00    +0.204 C 
ATOM      7  H   UNL     1      32.668 -24.992 -13.774  0.00  0.00    +0.149 HD
ATOM      8  H   UNL     1      29.573 -22.434 -14.516  0.00  0.00    +0.150 HD
BRANCH   6   9
ATOM      9  N   UNL     1      30.084 -24.917 -13.343  0.00  0.00    -0.291 NA
ATOM     10  H   UNL     1      29.737 -25.684 -13.854  0.00  0.00    +0.122 HD
ATOM     11  H   UNL     1      29.882 -24.834 -12.383  0.00  0.00    +0.122 HD
ENDBRANCH   6   9
ENDBRANCH   1   4
BRANCH   1  13
ATOM     12  F   UNL     1      32.737 -21.973 -19.588  0.00  0.00    -0.201 F 
ATOM     13  C   UNL     1      34.461 -22.432 -16.419  0.00  0.00    -0.014 C 
ATOM     14  C   UNL     1      33.462 -22.470 -17.392  0.00  0.00    +0.029 C 
ATOM     15  C   UNL     1      35.699 -21.858 -16.712  0.00  0.00    -0.001 C 
ATOM     16  C   UNL     1      33.700 -21.933 -18.658  0.00  0.00    +0.174 C 
ATOM     17  C   UNL     1      35.937 -21.321 -17.977  0.00  0.00    +0.039 C 
ATOM     18  C   UNL     1      34.937 -21.359 -18.950  0.00  0.00    +0.166 C 
BRANCH  18  19
ATOM     19  O   UNL     1      35.171 -20.834 -20.184  0.00  0.00    -0.469 OA
ATOM     20  C   UNL     1      34.431 -19.669 -20.545  0.00  0.00    +0.253 C 
ENDBRANCH  18  19
ENDBRANCH   1  13
BRANCH   1  21
ATOM     21  C   UNL     1      34.940 -24.362 -14.793  0.00  0.00    +0.040 C 
BRANCH  21  22
ATOM     22  C   UNL     1      35.875 -24.292 -13.605  0.00  0.00    +0.014 C 
ATOM     23  C   UNL     1      37.254 -24.409 -13.777  0.00  0.00    +0.135 C 
ATOM     24  C   UNL     1      35.343 -24.109 -12.329  0.00  0.00    +0.023 C 
ATOM     25  C   UNL     1      36.191 -24.043 -11.224  0.00  0.00    +0.143 C 
ATOM     26  C   UNL     1      38.103 -24.342 -12.672  0.00  0.00    +0.038 C 
ATOM     27  C   UNL     1      37.571 -24.159 -11.395  0.00  0.00    +0.027 C 
BRANCH  25  30
ATOM     28  O   UNL     1      36.000 -22.845  -9.262  0.00  0.00    -0.126 OA
ATOM     29  O   UNL     1      34.842 -24.698  -9.472  0.00  0.00    -0.126 OA
ATOM     30  N   UNL     1      35.652 -23.853  -9.924  0.00  0.00    +0.058 N 
ENDBRANCH  25  30
BRANCH  23  31
ATOM     31  O   UNL     1      37.789 -24.588 -15.017  0.00  0.00    -0.472 OA
ATOM     32  C   UNL     1      39.191 -24.840 -15.086  0.00  0.00    +0.252 C 
ENDBRANCH  23  31
ENDBRANCH  21  22
ENDBRANCH   1  21
TORSDOF 8
ENDMDL
MODEL 5
REMARK VINA RESULT:     -10.0      3.142      4.554
REMARK  Name = 42628075
REMARK  8 active torsions:
REMARK  status: ('A' for Active; 'I' for Inactive)
REMARK    1  A    between atoms: C_1  and  C_5
REMARK    2  A    between atoms: C_1  and  C_13
REMARK    3  A    between atoms: C_1  and  C_21
REMARK    4  A    between atoms: N_4  and  C_7
REMARK    5  A    between atoms: C_18  and  O_19
REMARK    6  A    between atoms: C_21  and  C_22
REMARK    7  A    between atoms: C_23  and  O_31
REMARK    8  A    between atoms: C_25  and  N_30
REMARK                            x       y       z     vdW  Elec       q    Type
REMARK                         _______ _______ _______ _____ _____    ______ ____
ROOT
ATOM      1  C   UNL     1      34.671 -22.922 -15.357  0.00  0.00    +0.064 C 
ENDROOT
BRANCH   1   4
ATOM      2  N   UNL     1      34.627 -22.075 -17.763  0.00  0.00    -0.308 N 
ATOM      3  N   UNL     1      36.392 -20.735 -17.917  0.00  0.00    -0.305 N 
ATOM      4  C   UNL     1      35.220 -22.094 -16.532  0.00  0.00    +0.042 C 
ATOM      5  C   UNL     1      36.307 -21.259 -16.652  0.00  0.00    +0.070 C 
ATOM      6  C   UNL     1      35.367 -21.246 -18.561  0.00  0.00    +0.204 C 
ATOM      7  H   UNL     1      33.817 -22.567 -18.027  0.00  0.00    +0.149 HD
ATOM      8  H   UNL     1      37.071 -20.114 -18.265  0.00  0.00    +0.150 HD
BRANCH   6   9
ATOM      9  N   UNL     1      34.970 -21.065 -19.840  0.00  0.00    -0.291 NA
ATOM     10  H   UNL     1      35.635 -21.063 -20.566  0.00  0.00    +0.122 HD
ATOM     11  H   UNL     1      34.017 -20.934 -20.046  0.00  0.00    +0.122 HD
ENDBRANCH   6   9
ENDBRANCH   1   4
BRANCH   1  13
ATOM     12  F   UNL     1      30.570 -22.976 -12.740  0.00  0.00    -0.201 F 
ATOM     13  C   UNL     1      33.183 -22.885 -15.267  0.00  0.00    -0.014 C 
ATOM     14  C   UNL     1      32.557 -22.948 -14.022  0.00  0.00    +0.029 C 
ATOM     15  C   UNL     1      32.416 -22.788 -16.429  0.00  0.00    -0.001 C 
ATOM     16  C   UNL     1      31.165 -22.914 -13.939  0.00  0.00    +0.174 C 
ATOM     17  C   UNL     1      31.025 -22.754 -16.345  0.00  0.00    +0.039 C 
ATOM     18  C   UNL     1      30.399 -22.817 -15.100  0.00  0.00    +0.166 C 
BRANCH  18  19
ATOM     19  O   UNL     1      29.041 -22.783 -15.020  0.00  0.00    -0.469 OA
ATOM     20  C   UNL     1      28.327 -23.857 -15.630  0.00  0.00    +0.253 C 
ENDBRANCH  18  19
ENDBRANCH   1  13
BRANCH   1  21
ATOM     21  C   UNL     1      35.408 -22.552 -14.027  0.00  0.00    +0.040 C 
BRANCH  21  22
ATOM     22  C   UNL     1      36.400 -23.610 -13.596  0.00  0.00    +0.014 C 
ATOM     23  C   UNL     1      36.120 -24.453 -12.521  0.00  0.00    +0.135 C 
ATOM     24  C   UNL     1      37.606 -23.735 -14.286  0.00  0.00    +0.023 C 
ATOM     25  C   UNL     1      38.532 -24.704 -13.900  0.00  0.00    +0.143 C 
ATOM     26  C   UNL     1      37.046 -25.424 -12.136  0.00  0.00    +0.038 C 
ATOM     27  C   UNL     1      38.252 -25.549 -12.826  0.00  0.00    +0.027 C 
BRANCH  25  30
ATOM     28  O   UNL     1      39.860 -25.718 -15.490  0.00  0.00    -0.126 OA
ATOM     29  O   UNL     1      40.708 -24.065 -14.320  0.00  0.00    -0.126 OA
ATOM     30  N   UNL     1      39.759 -24.835 -14.604  0.00  0.00    +0.058 N 
ENDBRANCH  25  30
BRANCH  23  31
ATOM     31  O   UNL     1      34.947 -24.344 -11.837  0.00  0.00    -0.472 OA
ATOM     32  C   UNL     1      35.036 -24.085 -10.437  0.00  0.00    +0.252 C 
ENDBRANCH  23  31
ENDBRANCH  21  22
ENDBRANCH   1  21
TORSDOF 8
ENDMDL
MODEL 6
REMARK VINA RESULT:      -9.4      3.765      7.325
REMARK  Name = 42628075
REMARK  8 active torsions:
REMARK  status: ('A' for Active; 'I' for Inactive)
REMARK    1  A    between atoms: C_1  and  C_5
REMARK    2  A    between atoms: C_1  and  C_13
REMARK    3  A    between atoms: C_1  and  C_21
REMARK    4  A    between atoms: N_4  and  C_7
REMARK    5  A    between atoms: C_18  and  O_19
REMARK    6  A    between atoms: C_21  and  C_22
REMARK    7  A    between atoms: C_23  and  O_31
REMARK    8  A    between atoms: C_25  and  N_30
REMARK                            x       y       z     vdW  Elec       q    Type
REMARK                         _______ _______ _______ _____ _____    ______ ____
ROOT
ATOM      1  C   UNL     1      33.482 -22.433 -16.407  0.00  0.00    +0.064 C 
ENDROOT
BRANCH   1   4
ATOM      2  N   UNL     1      32.486 -21.338 -18.484  0.00  0.00    -0.308 N 
ATOM      3  N   UNL     1      34.209 -21.075 -19.860  0.00  0.00    -0.305 N 
ATOM      4  C   UNL     1      33.573 -21.836 -17.822  0.00  0.00    +0.042 C 
ATOM      5  C   UNL     1      34.624 -21.662 -18.691  0.00  0.00    +0.070 C 
ATOM      6  C   UNL     1      32.918 -20.893 -19.704  0.00  0.00    +0.204 C 
ATOM      7  H   UNL     1      31.562 -21.306 -18.146  0.00  0.00    +0.149 HD
ATOM      8  H   UNL     1      34.759 -20.841 -20.643  0.00  0.00    +0.150 HD
BRANCH   6   9
ATOM      9  N   UNL     1      32.011 -20.351 -20.546  0.00  0.00    -0.291 NA
ATOM     10  H   UNL     1      32.178 -20.353 -21.516  0.00  0.00    +0.122 HD
ATOM     11  H   UNL     1      31.185 -19.952 -20.189  0.00  0.00    +0.122 HD
ENDBRANCH   6   9
ENDBRANCH   1   4
BRANCH   1  13
ATOM     12  F   UNL     1      36.357 -25.526 -13.990  0.00  0.00    -0.201 F 
ATOM     13  C   UNL     1      34.813 -22.810 -15.850  0.00  0.00    -0.014 C 
ATOM     14  C   UNL     1      34.969 -24.016 -15.167  0.00  0.00    +0.029 C 
ATOM     15  C   UNL     1      35.904 -21.954 -16.012  0.00  0.00    -0.001 C 
ATOM     16  C   UNL     1      36.214 -24.366 -14.646  0.00  0.00    +0.174 C 
ATOM     17  C   UNL     1      37.149 -22.305 -15.491  0.00  0.00    +0.039 C 
ATOM     18  C   UNL     1      37.304 -23.512 -14.808  0.00  0.00    +0.166 C 
BRANCH  18  19
ATOM     19  O   UNL     1      38.520 -23.853 -14.301  0.00  0.00    -0.469 OA
ATOM     20  C   UNL     1      39.325 -24.735 -15.082  0.00  0.00    +0.253 C 
ENDBRANCH  18  19
ENDBRANCH   1  13
BRANCH   1  21
ATOM     21  C   UNL     1      32.414 -23.577 -16.356  0.00  0.00    +0.040 C 
BRANCH  21  22
ATOM     22  C   UNL     1      31.115 -23.134 -15.719  0.00  0.00    +0.014 C 
ATOM     23  C   UNL     1      31.027 -22.947 -14.339  0.00  0.00    +0.135 C 
ATOM     24  C   UNL     1      30.000 -22.913 -16.526  0.00  0.00    +0.023 C 
ATOM     25  C   UNL     1      28.794 -22.507 -15.954  0.00  0.00    +0.143 C 
ATOM     26  C   UNL     1      29.821 -22.538 -13.767  0.00  0.00    +0.038 C 
ATOM     27  C   UNL     1      28.706 -22.318 -14.575  0.00  0.00    +0.027 C 
BRANCH  25  30
ATOM     28  O   UNL     1      27.294 -23.178 -17.571  0.00  0.00    -0.126 OA
ATOM     29  O   UNL     1      27.052 -21.185 -16.685  0.00  0.00    -0.126 OA
ATOM     30  N   UNL     1      27.659 -22.279 -16.776  0.00  0.00    +0.058 N 
ENDBRANCH  25  30
BRANCH  23  31
ATOM     31  O   UNL     1      32.107 -23.158 -13.536  0.00  0.00    -0.472 OA
ATOM     32  C   UNL     1      32.205 -24.432 -12.905  0.00  0.00    +0.252 C 
ENDBRANCH  23  31
ENDBRANCH  21  22
ENDBRANCH   1  21
TORSDOF 8
ENDMDL
MODEL 7
REMARK VINA RESULT:      -9.1      3.409      5.629
REMARK  Name = 42628075
REMARK  8 active torsions:
REMARK  status: ('A' for Active; 'I' for Inactive)
REMARK    1  A    between atoms: C_1  and  C_5
REMARK    2  A    between atoms: C_1  and  C_13
REMARK    3  A    between atoms: C_1  and  C_21
REMARK    4  A    between atoms: N_4  and  C_7
REMARK    5  A    between atoms: C_18  and  O_19
REMARK    6  A    between atoms: C_21  and  C_22
REMARK    7  A    between atoms: C_23  and  O_31
REMARK    8  A    between atoms: C_25  and  N_30
REMARK                            x       y       z     vdW  Elec       q    Type
REMARK                         _______ _______ _______ _____ _____    ______ ____
ROOT
ATOM      1  C   UNL     1      34.506 -22.948 -15.677  0.00  0.00    +0.064 C 
ENDROOT
BRANCH   1   4
ATOM      2  N   UNL     1      35.513 -21.492 -17.514  0.00  0.00    -0.308 N 
ATOM      3  N   UNL     1      34.145 -21.748 -19.245  0.00  0.00    -0.305 N 
ATOM      4  C   UNL     1      34.535 -22.350 -17.095  0.00  0.00    +0.042 C 
ATOM      5  C   UNL     1      33.703 -22.493 -18.180  0.00  0.00    +0.070 C 
ATOM      6  C   UNL     1      35.236 -21.157 -18.811  0.00  0.00    +0.204 C 
ATOM      7  H   UNL     1      36.276 -21.172 -16.980  0.00  0.00    +0.149 HD
ATOM      8  H   UNL     1      33.736 -21.673 -20.137  0.00  0.00    +0.150 HD
BRANCH   6   9
ATOM      9  N   UNL     1      36.073 -20.310 -19.448  0.00  0.00    -0.291 NA
ATOM     10  H   UNL     1      36.764 -20.663 -20.053  0.00  0.00    +0.122 HD
ATOM     11  H   UNL     1      35.994 -19.340 -19.305  0.00  0.00    +0.122 HD
ENDBRANCH   6   9
ENDBRANCH   1   4
BRANCH   1  13
ATOM     12  F   UNL     1      31.415 -25.176 -12.651  0.00  0.00    -0.201 F 
ATOM     13  C   UNL     1      33.122 -23.201 -15.183  0.00  0.00    -0.014 C 
ATOM     14  C   UNL     1      32.909 -24.086 -14.127  0.00  0.00    +0.029 C 
ATOM     15  C   UNL     1      32.039 -22.553 -15.779  0.00  0.00    -0.001 C 
ATOM     16  C   UNL     1      31.614 -24.324 -13.666  0.00  0.00    +0.174 C 
ATOM     17  C   UNL     1      30.745 -22.790 -15.319  0.00  0.00    +0.039 C 
ATOM     18  C   UNL     1      30.532 -23.676 -14.261  0.00  0.00    +0.166 C 
BRANCH  18  19
ATOM     19  O   UNL     1      29.268 -23.905 -13.812  0.00  0.00    -0.469 OA
ATOM     20  C   UNL     1      28.625 -25.097 -14.260  0.00  0.00    +0.253 C 
ENDBRANCH  18  19
ENDBRANCH   1  13
BRANCH   1  21
ATOM     21  C   UNL     1      35.395 -22.105 -14.702  0.00  0.00    +0.040 C 
BRANCH  21  22
ATOM     22  C   UNL     1      36.106 -22.960 -13.676  0.00  0.00    +0.014 C 
ATOM     23  C   UNL     1      37.304 -23.601 -13.991  0.00  0.00    +0.135 C 
ATOM     24  C   UNL     1      35.551 -23.103 -12.404  0.00  0.00    +0.023 C 
ATOM     25  C   UNL     1      36.194 -23.889 -11.448  0.00  0.00    +0.143 C 
ATOM     26  C   UNL     1      37.948 -24.386 -13.034  0.00  0.00    +0.038 C 
ATOM     27  C   UNL     1      37.393 -24.530 -11.762  0.00  0.00    +0.027 C 
BRANCH  25  30
ATOM     28  O   UNL     1      34.770 -24.925  -9.959  0.00  0.00    -0.126 OA
ATOM     29  O   UNL     1      36.010 -23.264  -9.236  0.00  0.00    -0.126 OA
ATOM     30  N   UNL     1      35.631 -24.033 -10.152  0.00  0.00    +0.058 N 
ENDBRANCH  25  30
BRANCH  23  31
ATOM     31  O   UNL     1      37.860 -23.472 -15.228  0.00  0.00    -0.472 OA
ATOM     32  C   UNL     1      39.119 -24.106 -15.441  0.00  0.00    +0.252 C 
ENDBRANCH  23  31
ENDBRANCH  21  22
ENDBRANCH   1  21
TORSDOF 8
ENDMDL
MODEL 8
REMARK VINA RESULT:      -9.1      3.588      4.968
REMARK  Name = 42628075
REMARK  8 active torsions:
REMARK  status: ('A' for Active; 'I' for Inactive)
REMARK    1  A    between atoms: C_1  and  C_5
REMARK    2  A    between atoms: C_1  and  C_13
REMARK    3  A    between atoms: C_1  and  C_21
REMARK    4  A    between atoms: N_4  and  C_7
REMARK    5  A    between atoms: C_18  and  O_19
REMARK    6  A    between atoms: C_21  and  C_22
REMARK    7  A    between atoms: C_23  and  O_31
REMARK    8  A    between atoms: C_25  and  N_30
REMARK                            x       y       z     vdW  Elec       q    Type
REMARK                         _______ _______ _______ _____ _____    ______ ____
ROOT
ATOM      1  C   UNL     1      33.347 -23.329 -15.544  0.00  0.00    +0.064 C 
ENDROOT
BRANCH   1   4
ATOM      2  N   UNL     1      34.957 -21.894 -16.906  0.00  0.00    -0.308 N 
ATOM      3  N   UNL     1      34.079 -21.849 -18.946  0.00  0.00    -0.305 N 
ATOM      4  C   UNL     1      33.816 -22.644 -16.839  0.00  0.00    +0.042 C 
ATOM      5  C   UNL     1      33.292 -22.601 -18.110  0.00  0.00    +0.070 C 
ATOM      6  C   UNL     1      35.073 -21.438 -18.191  0.00  0.00    +0.204 C 
ATOM      7  H   UNL     1      35.581 -21.715 -16.166  0.00  0.00    +0.149 HD
ATOM      8  H   UNL     1      33.932 -21.661 -19.901  0.00  0.00    +0.150 HD
BRANCH   6   9
ATOM      9  N   UNL     1      36.136 -20.666 -18.504  0.00  0.00    -0.291 NA
ATOM     10  H   UNL     1      36.021 -19.697 -18.628  0.00  0.00    +0.122 HD
ATOM     11  H   UNL     1      37.026 -21.074 -18.610  0.00  0.00    +0.122 HD
ENDBRANCH   6   9
ENDBRANCH   1   4
BRANCH   1  13
ATOM     12  F   UNL     1      29.324 -24.493 -13.067  0.00  0.00    -0.201 F 
ATOM     13  C   UNL     1      31.868 -23.274 -15.362  0.00  0.00    -0.014 C 
ATOM     14  C   UNL     1      31.273 -23.920 -14.279  0.00  0.00    +0.029 C 
ATOM     15  C   UNL     1      31.078 -22.577 -16.278  0.00  0.00    -0.001 C 
ATOM     16  C   UNL     1      29.889 -23.869 -14.110  0.00  0.00    +0.174 C 
ATOM     17  C   UNL     1      29.695 -22.526 -16.109  0.00  0.00    +0.039 C 
ATOM     18  C   UNL     1      29.101 -23.172 -15.025  0.00  0.00    +0.166 C 
BRANCH  18  19
ATOM     19  O   UNL     1      27.750 -23.120 -14.861  0.00  0.00    -0.469 OA
ATOM     20  C   UNL     1      27.033 -22.187 -15.668  0.00  0.00    +0.253 C 
ENDBRANCH  18  19
ENDBRANCH   1  13
BRANCH   1  21
ATOM     21  C   UNL     1      34.168 -22.812 -14.315  0.00  0.00    +0.040 C 
BRANCH  21  22
ATOM     22  C   UNL     1      35.123 -23.852 -13.773  0.00  0.00    +0.014 C 
ATOM     23  C   UNL     1      35.539 -23.811 -12.442  0.00  0.00    +0.135 C 
ATOM     24  C   UNL     1      35.589 -24.858 -14.619  0.00  0.00    +0.023 C 
ATOM     25  C   UNL     1      36.472 -25.823 -14.135  0.00  0.00    +0.143 C 
ATOM     26  C   UNL     1      36.421 -24.777 -11.957  0.00  0.00    +0.038 C 
ATOM     27  C   UNL     1      36.887 -25.783 -12.804  0.00  0.00    +0.027 C 
BRANCH  25  30
ATOM     28  O   UNL     1      37.971 -27.493 -14.667  0.00  0.00    -0.126 OA
ATOM     29  O   UNL     1      36.324 -27.084 -16.060  0.00  0.00    -0.126 OA
ATOM     30  N   UNL     1      36.945 -26.850 -14.995  0.00  0.00    +0.058 N 
ENDBRANCH  25  30
BRANCH  23  31
ATOM     31  O   UNL     1      35.094 -22.836 -11.602  0.00  0.00    -0.472 OA
ATOM     32  C   UNL     1      35.326 -23.026 -10.208  0.00  0.00    +0.252 C 
ENDBRANCH  23  31
ENDBRANCH  21  22
ENDBRANCH   1  21
TORSDOF 8
ENDMDL
MODEL 9
REMARK VINA RESULT:      -9.0     13.593     17.539
REMARK  Name = 42628075
REMARK  8 active torsions:
REMARK  status: ('A' for Active; 'I' for Inactive)
REMARK    1  A    between atoms: C_1  and  C_5
REMARK    2  A    between atoms: C_1  and  C_13
REMARK    3  A    between atoms: C_1  and  C_21
REMARK    4  A    between atoms: N_4  and  C_7
REMARK    5  A    between atoms: C_18  and  O_19
REMARK    6  A    between atoms: C_21  and  C_22
REMARK    7  A    between atoms: C_23  and  O_31
REMARK    8  A    between atoms: C_25  and  N_30
REMARK                            x       y       z     vdW  Elec       q    Type
REMARK                         _______ _______ _______ _____ _____    ______ ____
ROOT
ATOM      1  C   UNL     1      32.292  -7.855 -22.764  0.00  0.00    +0.064 C 
ENDROOT
BRANCH   1   4
ATOM      2  N   UNL     1      31.171  -5.909 -21.554  0.00  0.00    -0.308 N 
ATOM      3  N   UNL     1      32.162  -5.839 -19.568  0.00  0.00    -0.305 N 
ATOM      4  C   UNL     1      32.087  -6.923 -21.557  0.00  0.00    +0.042 C 
ATOM      5  C   UNL     1      32.686  -6.859 -20.320  0.00  0.00    +0.070 C 
ATOM      6  C   UNL     1      31.252  -5.287 -20.339  0.00  0.00    +0.204 C 
ATOM      7  H   UNL     1      30.563  -5.671 -22.291  0.00  0.00    +0.149 HD
ATOM      8  H   UNL     1      32.411  -5.579 -18.652  0.00  0.00    +0.150 HD
BRANCH   6   9
ATOM      9  N   UNL     1      30.432  -4.241 -20.098  0.00  0.00    -0.291 NA
ATOM     10  H   UNL     1      30.570  -3.680 -19.300  0.00  0.00    +0.122 HD
ATOM     11  H   UNL     1      29.694  -4.041 -20.718  0.00  0.00    +0.122 HD
ENDBRANCH   6   9
ENDBRANCH   1   4
BRANCH   1  13
ATOM     12  F   UNL     1      35.245  -5.554 -25.872  0.00  0.00    -0.201 F 
ATOM     13  C   UNL     1      32.520  -7.114 -24.037  0.00  0.00    -0.014 C 
ATOM     14  C   UNL     1      33.800  -6.672 -24.368  0.00  0.00    +0.029 C 
ATOM     15  C   UNL     1      31.451  -6.863 -24.898  0.00  0.00    -0.001 C 
ATOM     16  C   UNL     1      34.012  -5.978 -25.560  0.00  0.00    +0.174 C 
ATOM     17  C   UNL     1      31.663  -6.169 -26.089  0.00  0.00    +0.039 C 
ATOM     18  C   UNL     1      32.944  -5.727 -26.420  0.00  0.00    +0.166 C 
BRANCH  18  19
ATOM     19  O   UNL     1      33.149  -5.051 -27.584  0.00  0.00    -0.469 OA
ATOM     20  C   UNL     1      33.040  -3.629 -27.537  0.00  0.00    +0.253 C 
ENDBRANCH  18  19
ENDBRANCH   1  13
BRANCH   1  21
ATOM     21  C   UNL     1      31.153  -8.926 -22.835  0.00  0.00    +0.040 C 
BRANCH  21  22
ATOM     22  C   UNL     1      31.578 -10.268 -22.280  0.00  0.00    +0.014 C 
ATOM     23  C   UNL     1      31.297 -10.614 -20.959  0.00  0.00    +0.135 C 
ATOM     24  C   UNL     1      32.260 -11.163 -23.106  0.00  0.00    +0.023 C 
ATOM     25  C   UNL     1      32.660 -12.403 -22.609  0.00  0.00    +0.143 C 
ATOM     26  C   UNL     1      31.696 -11.855 -20.462  0.00  0.00    +0.038 C 
ATOM     27  C   UNL     1      32.378 -12.750 -21.288  0.00  0.00    +0.027 C 
BRANCH  25  30
ATOM     28  O   UNL     1      34.289 -13.996 -22.967  0.00  0.00    -0.126 OA
ATOM     29  O   UNL     1      33.006 -13.416 -24.651  0.00  0.00    -0.126 OA
ATOM     30  N   UNL     1      33.351 -13.316 -23.450  0.00  0.00    +0.058 N 
ENDBRANCH  25  30
BRANCH  23  31
ATOM     31  O   UNL     1      30.632  -9.752 -20.139  0.00  0.00    -0.472 OA
ATOM     32  C   UNL     1      31.153  -9.579 -18.823  0.00  0.00    +0.252 C 
ENDBRANCH  23  31
ENDBRANCH  21  22
ENDBRANCH   1  21
TORSDOF 8
ENDMDL
