MODEL 1
REMARK VINA RESULT:     -11.2      0.000      0.000
REMARK  Name = 24779677
REMARK  3 active torsions:
REMARK  status: ('A' for Active; 'I' for Inactive)
REMARK    1  A    between atoms: N_1  and  C_27
REMARK    2  A    between atoms: N_6  and  C_19
REMARK    3  A    between atoms: C_15  and  C_26
REMARK                            x       y       z     vdW  Elec       q    Type
REMARK                         _______ _______ _______ _____ _____    ______ ____
ROOT
ATOM      1  N   UNL     1      33.862 -20.183 -20.551  0.00  0.00    +0.389 N 
ATOM      2  N   UNL     1      33.859 -21.918 -18.294  0.00  0.00    -0.238 N 
ATOM      3  N   UNL     1      35.051 -22.698 -16.486  0.00  0.00    -0.314 NA
ATOM      4  N   UNL     1      32.663 -22.698 -16.438  0.00  0.00    -0.295 NA
ATOM      5  N   UNL     1      33.833 -23.480 -14.633  0.00  0.00    -0.123 N 
ATOM      6  N   UNL     1      31.473 -23.493 -14.549  0.00  0.00    -0.274 N 
ATOM      7  N   UNL     1      33.944 -24.007 -13.399  0.00  0.00    -0.170 NA
ATOM      8  C   UNL     1      32.695 -20.249 -19.660  0.00  0.00    -0.055 C 
ATOM      9  C   UNL     1      35.099 -20.425 -19.792  0.00  0.00    -0.055 C 
ATOM     10  C   UNL     1      32.605 -21.615 -18.978  0.00  0.00    +0.080 C 
ATOM     11  C   UNL     1      35.062 -21.794 -19.113  0.00  0.00    +0.080 C 
ATOM     12  C   UNL     1      33.889 -22.448 -17.050  0.00  0.00    +0.206 C 
ATOM     13  C   UNL     1      35.027 -23.229 -15.243  0.00  0.00    +0.219 C 
ATOM     14  C   UNL     1      32.618 -23.209 -15.242  0.00  0.00    +0.279 C 
ATOM     15  C   UNL     1      35.990 -23.621 -14.342  0.00  0.00    +0.203 C 
ATOM     16  C   UNL     1      35.266 -24.092 -13.229  0.00  0.00    +0.116 C 
ATOM     17  H   UNL     1      33.770 -20.910 -21.260  0.00  0.00    -0.080 HD
ATOM     18  H   UNL     1      31.587 -23.879 -13.650  0.00  0.00    +0.156 HD
ENDROOT
BRANCH   6  19
ATOM     19  C   UNL     1      30.160 -23.295 -14.980  0.00  0.00    +0.051 C 
ATOM     20  C   UNL     1      29.485 -24.316 -15.648  0.00  0.00    +0.015 C 
ATOM     21  C   UNL     1      29.524 -22.077 -14.742  0.00  0.00    +0.015 C 
ATOM     22  C   UNL     1      28.173 -24.119 -16.077  0.00  0.00    +0.001 C 
ATOM     23  C   UNL     1      28.211 -21.879 -15.171  0.00  0.00    +0.001 C 
ATOM     24  C   UNL     1      27.536 -22.901 -15.840  0.00  0.00    +0.000 C 
ENDBRANCH   6  19
BRANCH  15  26
ATOM     25  N   UNL     1      38.549 -23.504 -14.667  0.00  0.00    -0.195 NA
ATOM     26  C   UNL     1      37.399 -23.557 -14.521  0.00  0.00    +0.087 C 
ENDBRANCH  15  26
BRANCH   1  27
ATOM     27  C   UNL     1      33.921 -18.887 -21.227  0.00  0.00    -0.077 C 
ATOM     28  C   UNL     1      35.339 -18.345 -21.251  0.00  0.00    -0.025 C 
ENDBRANCH   1  27
TORSDOF 3
ENDMDL
MODEL 2
REMARK VINA RESULT:     -11.0      1.623      5.615
REMARK  Name = 24779677
REMARK  3 active torsions:
REMARK  status: ('A' for Active; 'I' for Inactive)
REMARK    1  A    between atoms: N_1  and  C_27
REMARK    2  A    between atoms: N_6  and  C_19
REMARK    3  A    between atoms: C_15  and  C_26
REMARK                            x       y       z     vdW  Elec       q    Type
REMARK                         _______ _______ _______ _____ _____    ______ ____
ROOT
ATOM      1  N   UNL     1      37.788 -24.309 -13.750  0.00  0.00    +0.389 N 
ATOM      2  N   UNL     1      35.738 -22.972 -15.204  0.00  0.00    -0.238 N 
ATOM      3  N   UNL     1      35.145 -21.989 -17.198  0.00  0.00    -0.314 NA
ATOM      4  N   UNL     1      33.468 -22.929 -15.780  0.00  0.00    -0.295 NA
ATOM      5  N   UNL     1      32.861 -21.953 -17.759  0.00  0.00    -0.123 N 
ATOM      6  N   UNL     1      31.177 -22.874 -16.383  0.00  0.00    -0.274 N 
ATOM      7  N   UNL     1      31.974 -21.563 -18.693  0.00  0.00    -0.170 NA
ATOM      8  C   UNL     1      36.403 -24.803 -13.717  0.00  0.00    -0.055 C 
ATOM      9  C   UNL     1      38.077 -23.687 -15.051  0.00  0.00    -0.055 C 
ATOM     10  C   UNL     1      35.411 -23.664 -13.960  0.00  0.00    +0.080 C 
ATOM     11  C   UNL     1      37.123 -22.524 -15.323  0.00  0.00    +0.080 C 
ATOM     12  C   UNL     1      34.788 -22.611 -16.096  0.00  0.00    +0.206 C 
ATOM     13  C   UNL     1      34.157 -21.649 -18.057  0.00  0.00    +0.219 C 
ATOM     14  C   UNL     1      32.503 -22.610 -16.593  0.00  0.00    +0.279 C 
ATOM     15  C   UNL     1      34.115 -21.012 -19.276  0.00  0.00    +0.203 C 
ATOM     16  C   UNL     1      32.748 -20.987 -19.618  0.00  0.00    +0.116 C 
ATOM     17  H   UNL     1      37.897 -23.604 -13.022  0.00  0.00    -0.080 HD
ATOM     18  H   UNL     1      30.553 -22.575 -17.084  0.00  0.00    +0.156 HD
ENDROOT
BRANCH   6  19
ATOM     19  C   UNL     1      30.614 -23.521 -15.282  0.00  0.00    +0.051 C 
ATOM     20  C   UNL     1      30.949 -23.117 -13.990  0.00  0.00    +0.015 C 
ATOM     21  C   UNL     1      29.716 -24.571 -15.475  0.00  0.00    +0.015 C 
ATOM     22  C   UNL     1      30.385 -23.763 -12.890  0.00  0.00    +0.001 C 
ATOM     23  C   UNL     1      29.151 -25.217 -14.374  0.00  0.00    +0.001 C 
ATOM     24  C   UNL     1      29.487 -24.813 -13.081  0.00  0.00    +0.000 C 
ENDBRANCH   6  19
BRANCH  15  26
ATOM     25  N   UNL     1      36.124 -20.084 -20.604  0.00  0.00    -0.195 NA
ATOM     26  C   UNL     1      35.221 -20.501 -20.008  0.00  0.00    +0.087 C 
ENDBRANCH  15  26
BRANCH   1  27
ATOM     27  C   UNL     1      38.728 -25.397 -13.480  0.00  0.00    -0.077 C 
ATOM     28  C   UNL     1      39.881 -25.382 -14.468  0.00  0.00    -0.025 C 
ENDBRANCH   1  27
TORSDOF 3
ENDMDL
MODEL 3
REMARK VINA RESULT:     -10.7      1.559      6.064
REMARK  Name = 24779677
REMARK  3 active torsions:
REMARK  status: ('A' for Active; 'I' for Inactive)
REMARK    1  A    between atoms: N_1  and  C_27
REMARK    2  A    between atoms: N_6  and  C_19
REMARK    3  A    between atoms: C_15  and  C_26
REMARK                            x       y       z     vdW  Elec       q    Type
REMARK                         _______ _______ _______ _____ _____    ______ ____
ROOT
ATOM      1  N   UNL     1      29.752 -23.795 -14.380  0.00  0.00    +0.389 N 
ATOM      2  N   UNL     1      32.501 -23.080 -14.577  0.00  0.00    -0.238 N 
ATOM      3  N   UNL     1      34.653 -23.582 -13.935  0.00  0.00    -0.314 NA
ATOM      4  N   UNL     1      34.251 -22.445 -15.997  0.00  0.00    -0.295 NA
ATOM      5  N   UNL     1      36.398 -22.934 -15.372  0.00  0.00    -0.123 N 
ATOM      6  N   UNL     1      36.039 -21.812 -17.419  0.00  0.00    -0.274 N 
ATOM      7  N   UNL     1      37.734 -22.942 -15.537  0.00  0.00    -0.170 NA
ATOM      8  C   UNL     1      30.345 -23.457 -15.682  0.00  0.00    -0.055 C 
ATOM      9  C   UNL     1      30.755 -24.431 -13.511  0.00  0.00    -0.055 C 
ATOM     10  C   UNL     1      31.534 -22.509 -15.510  0.00  0.00    +0.080 C 
ATOM     11  C   UNL     1      31.951 -23.505 -13.292  0.00  0.00    +0.080 C 
ATOM     12  C   UNL     1      33.832 -23.050 -14.814  0.00  0.00    +0.206 C 
ATOM     13  C   UNL     1      35.974 -23.525 -14.218  0.00  0.00    +0.219 C 
ATOM     14  C   UNL     1      35.518 -22.380 -16.287  0.00  0.00    +0.279 C 
ATOM     15  C   UNL     1      37.116 -23.950 -13.580  0.00  0.00    +0.203 C 
ATOM     16  C   UNL     1      38.167 -23.565 -14.437  0.00  0.00    +0.116 C 
ATOM     17  H   UNL     1      29.437 -22.934 -13.934  0.00  0.00    -0.080 HD
ATOM     18  H   UNL     1      37.019 -21.832 -17.510  0.00  0.00    +0.156 HD
ENDROOT
BRANCH   6  19
ATOM     19  C   UNL     1      35.330 -21.206 -18.456  0.00  0.00    +0.051 C 
ATOM     20  C   UNL     1      35.982 -20.342 -19.336  0.00  0.00    +0.015 C 
ATOM     21  C   UNL     1      33.968 -21.465 -18.614  0.00  0.00    +0.015 C 
ATOM     22  C   UNL     1      35.274 -19.737 -20.373  0.00  0.00    +0.001 C 
ATOM     23  C   UNL     1      33.258 -20.860 -19.652  0.00  0.00    +0.001 C 
ATOM     24  C   UNL     1      33.912 -19.995 -20.532  0.00  0.00    +0.000 C 
ENDBRANCH   6  19
BRANCH  15  26
ATOM     25  N   UNL     1      37.255 -25.179 -11.314  0.00  0.00    -0.195 NA
ATOM     26  C   UNL     1      37.193 -24.627 -12.333  0.00  0.00    +0.087 C 
ENDBRANCH  15  26
BRANCH   1  27
ATOM     27  C   UNL     1      28.594 -24.672 -14.555  0.00  0.00    -0.077 C 
ATOM     28  C   UNL     1      27.831 -24.324 -15.821  0.00  0.00    -0.025 C 
ENDBRANCH   1  27
TORSDOF 3
ENDMDL
MODEL 4
REMARK VINA RESULT:     -10.0      1.565      6.845
REMARK  Name = 24779677
REMARK  3 active torsions:
REMARK  status: ('A' for Active; 'I' for Inactive)
REMARK    1  A    between atoms: N_1  and  C_27
REMARK    2  A    between atoms: N_6  and  C_19
REMARK    3  A    between atoms: C_15  and  C_26
REMARK                            x       y       z     vdW  Elec       q    Type
REMARK                         _______ _______ _______ _____ _____    ______ ____
ROOT
ATOM      1  N   UNL     1      36.792 -23.963 -13.490  0.00  0.00    +0.389 N 
ATOM      2  N   UNL     1      34.388 -23.766 -15.001  0.00  0.00    -0.238 N 
ATOM      3  N   UNL     1      32.087 -23.786 -14.936  0.00  0.00    -0.314 NA
ATOM      4  N   UNL     1      33.228 -22.610 -16.675  0.00  0.00    -0.295 NA
ATOM      5  N   UNL     1      30.939 -22.622 -16.627  0.00  0.00    -0.123 N 
ATOM      6  N   UNL     1      32.033 -21.447 -18.359  0.00  0.00    -0.274 N 
ATOM      7  N   UNL     1      29.718 -22.295 -17.089  0.00  0.00    -0.170 NA
ATOM      8  C   UNL     1      36.637 -22.922 -14.516  0.00  0.00    -0.055 C 
ATOM      9  C   UNL     1      35.493 -24.269 -12.871  0.00  0.00    -0.055 C 
ATOM     10  C   UNL     1      35.657 -23.368 -15.603  0.00  0.00    +0.080 C 
ATOM     11  C   UNL     1      34.489 -24.745 -13.921  0.00  0.00    +0.080 C 
ATOM     12  C   UNL     1      33.197 -23.396 -15.525  0.00  0.00    +0.206 C 
ATOM     13  C   UNL     1      30.924 -23.390 -15.500  0.00  0.00    +0.219 C 
ATOM     14  C   UNL     1      32.119 -22.220 -17.233  0.00  0.00    +0.279 C 
ATOM     15  C   UNL     1      29.594 -23.580 -15.202  0.00  0.00    +0.203 C 
ATOM     16  C   UNL     1      28.900 -22.885 -16.213  0.00  0.00    +0.116 C 
ATOM     17  H   UNL     1      37.145 -24.808 -13.937  0.00  0.00    -0.080 HD
ATOM     18  H   UNL     1      31.126 -21.226 -18.673  0.00  0.00    +0.156 HD
ENDROOT
BRANCH   6  19
ATOM     19  C   UNL     1      33.093 -20.941 -19.112  0.00  0.00    +0.051 C 
ATOM     20  C   UNL     1      32.844 -20.054 -20.159  0.00  0.00    +0.015 C 
ATOM     21  C   UNL     1      34.402 -21.322 -18.817  0.00  0.00    +0.015 C 
ATOM     22  C   UNL     1      33.903 -19.547 -20.911  0.00  0.00    +0.001 C 
ATOM     23  C   UNL     1      35.463 -20.815 -19.569  0.00  0.00    +0.001 C 
ATOM     24  C   UNL     1      35.213 -19.927 -20.617  0.00  0.00    +0.000 C 
ENDBRANCH   6  19
BRANCH  15  26
ATOM     25  N   UNL     1      28.630 -24.923 -13.219  0.00  0.00    -0.195 NA
ATOM     26  C   UNL     1      29.063 -24.320 -14.110  0.00  0.00    +0.087 C 
ENDBRANCH  15  26
BRANCH   1  27
ATOM     27  C   UNL     1      37.758 -23.543 -12.474  0.00  0.00    -0.077 C 
ATOM     28  C   UNL     1      37.195 -22.428 -11.611  0.00  0.00    -0.025 C 
ENDBRANCH   1  27
TORSDOF 3
ENDMDL
MODEL 5
REMARK VINA RESULT:      -9.8      1.157      1.262
REMARK  Name = 24779677
REMARK  3 active torsions:
REMARK  status: ('A' for Active; 'I' for Inactive)
REMARK    1  A    between atoms: N_1  and  C_27
REMARK    2  A    between atoms: N_6  and  C_19
REMARK    3  A    between atoms: C_15  and  C_26
REMARK                            x       y       z     vdW  Elec       q    Type
REMARK                         _______ _______ _______ _____ _____    ______ ____
ROOT
ATOM      1  N   UNL     1      34.969 -20.727 -19.729  0.00  0.00    +0.389 N 
ATOM      2  N   UNL     1      34.406 -22.193 -17.355  0.00  0.00    -0.238 N 
ATOM      3  N   UNL     1      35.083 -22.686 -15.211  0.00  0.00    -0.314 NA
ATOM      4  N   UNL     1      32.774 -22.836 -15.803  0.00  0.00    -0.295 NA
ATOM      5  N   UNL     1      33.431 -23.333 -13.668  0.00  0.00    -0.123 N 
ATOM      6  N   UNL     1      31.139 -23.490 -14.216  0.00  0.00    -0.274 N 
ATOM      7  N   UNL     1      33.218 -23.710 -12.393  0.00  0.00    -0.170 NA
ATOM      8  C   UNL     1      33.605 -20.768 -19.181  0.00  0.00    -0.055 C 
ATOM      9  C   UNL     1      35.958 -20.801 -18.643  0.00  0.00    -0.055 C 
ATOM     10  C   UNL     1      33.377 -22.052 -18.381  0.00  0.00    +0.080 C 
ATOM     11  C   UNL     1      35.782 -22.085 -17.832  0.00  0.00    +0.080 C 
ATOM     12  C   UNL     1      34.112 -22.577 -16.092  0.00  0.00    +0.206 C 
ATOM     13  C   UNL     1      34.738 -23.074 -13.963  0.00  0.00    +0.219 C 
ATOM     14  C   UNL     1      32.421 -23.212 -14.608  0.00  0.00    +0.279 C 
ATOM     15  C   UNL     1      35.430 -23.300 -12.796  0.00  0.00    +0.203 C 
ATOM     16  C   UNL     1      34.445 -23.688 -11.866  0.00  0.00    +0.116 C 
ATOM     17  H   UNL     1      35.097 -21.533 -20.339  0.00  0.00    -0.080 HD
ATOM     18  H   UNL     1      31.016 -23.764 -13.278  0.00  0.00    +0.156 HD
ENDROOT
BRANCH   6  19
ATOM     19  C   UNL     1      29.989 -23.428 -15.003  0.00  0.00    +0.051 C 
ATOM     20  C   UNL     1      29.370 -24.604 -15.427  0.00  0.00    +0.015 C 
ATOM     21  C   UNL     1      29.457 -22.190 -15.365  0.00  0.00    +0.015 C 
ATOM     22  C   UNL     1      28.219 -24.542 -16.213  0.00  0.00    +0.001 C 
ATOM     23  C   UNL     1      28.306 -22.127 -16.151  0.00  0.00    +0.001 C 
ATOM     24  C   UNL     1      27.688 -23.304 -16.576  0.00  0.00    +0.000 C 
ENDBRANCH   6  19
BRANCH  15  26
ATOM     25  N   UNL     1      37.975 -23.053 -12.437  0.00  0.00    -0.195 NA
ATOM     26  C   UNL     1      36.832 -23.164 -12.598  0.00  0.00    +0.087 C 
ENDBRANCH  15  26
BRANCH   1  27
ATOM     27  C   UNL     1      35.168 -19.514 -20.522  0.00  0.00    -0.077 C 
ATOM     28  C   UNL     1      33.918 -19.165 -21.311  0.00  0.00    -0.025 C 
ENDBRANCH   1  27
TORSDOF 3
ENDMDL
