MODEL 1
REMARK VINA RESULT:     -13.6      0.000      0.000
REMARK  Name = 10156987
REMARK  5 active torsions:
REMARK  status: ('A' for Active; 'I' for Inactive)
REMARK    1  A    between atoms: C_2  and  C_23
REMARK    2  A    between atoms: C_9  and  C_13
REMARK    3  A    between atoms: C_23  and  N_24
REMARK    4  A    between atoms: C_25  and  C_31
REMARK    5  A    between atoms: C_31  and  N_32
REMARK                            x       y       z     vdW  Elec       q    Type
REMARK                         _______ _______ _______ _____ _____    ______ ____
ROOT
ATOM      1  N   UNL     1      34.589 -21.202 -18.525  0.00  0.00    -0.312 N 
ATOM      2  C   UNL     1      34.672 -18.934 -21.955  0.00  0.00    -0.043 C 
ATOM      3  C   UNL     1      33.486 -19.405 -21.390  0.00  0.00    -0.005 C 
ATOM      4  C   UNL     1      35.907 -19.208 -21.380  0.00  0.00    -0.005 C 
ATOM      5  C   UNL     1      33.552 -20.176 -20.212  0.00  0.00    +0.014 C 
ATOM      6  C   UNL     1      34.804 -20.441 -19.652  0.00  0.00    +0.048 C 
ATOM      7  C   UNL     1      35.996 -19.971 -20.212  0.00  0.00    +0.014 C 
ATOM      8  C   UNL     1      32.582 -20.804 -19.382  0.00  0.00    +0.016 C 
ATOM      9  C   UNL     1      33.250 -21.427 -18.354  0.00  0.00    +0.053 C 
ATOM     10  H   UNL     1      35.298 -21.537 -17.928  0.00  0.00    +0.152 HD
ENDROOT
BRANCH   9  13
ATOM     11  O   UNL     1      35.064 -22.674 -16.532  0.00  0.00    -0.270 OA
ATOM     12  N   UNL     1      33.377 -23.541 -15.245  0.00  0.00    -0.280 N 
ATOM     13  C   UNL     1      32.834 -22.205 -17.229  0.00  0.00    +0.067 C 
ATOM     14  C   UNL     1      31.522 -22.381 -16.990  0.00  0.00    +0.007 C 
ATOM     15  C   UNL     1      33.860 -22.816 -16.318  0.00  0.00    +0.251 C 
ATOM     16  C   UNL     1      31.062 -23.163 -15.845  0.00  0.00    +0.014 C 
ATOM     17  C   UNL     1      32.010 -23.729 -14.986  0.00  0.00    +0.051 C 
ATOM     18  C   UNL     1      29.702 -23.353 -15.587  0.00  0.00    +0.001 C 
ATOM     19  C   UNL     1      31.608 -24.482 -13.879  0.00  0.00    +0.015 C 
ATOM     20  C   UNL     1      29.299 -24.105 -14.480  0.00  0.00    +0.000 C 
ATOM     21  C   UNL     1      30.249 -24.667 -13.629  0.00  0.00    +0.001 C 
ATOM     22  H   UNL     1      34.028 -23.947 -14.628  0.00  0.00    +0.155 HD
ENDBRANCH   9  13
BRANCH   2  23
ATOM     23  C   UNL     1      34.609 -18.113 -23.210  0.00  0.00    -0.050 C 
BRANCH  23  24
ATOM     24  N   UNL     1      33.992 -16.807 -22.980  0.00  0.00    +0.390 N 
ATOM     25  C   UNL     1      33.952 -13.877 -22.859  0.00  0.00    -0.026 C 
ATOM     26  C   UNL     1      34.011 -14.751 -21.602  0.00  0.00    -0.025 C 
ATOM     27  C   UNL     1      33.306 -14.662 -24.005  0.00  0.00    -0.025 C 
ATOM     28  C   UNL     1      34.678 -16.097 -21.891  0.00  0.00    -0.077 C 
ATOM     29  C   UNL     1      33.996 -16.012 -24.215  0.00  0.00    -0.077 C 
ATOM     30  H   UNL     1      33.021 -16.948 -22.700  0.00  0.00    -0.079 HD
BRANCH  25  31
ATOM     31  C   UNL     1      33.197 -12.578 -22.590  0.00  0.00    -0.086 C 
BRANCH  31  32
ATOM     32  N   UNL     1      33.674 -11.512 -23.457  0.00  0.00    +0.380 N 
ATOM     33  H   UNL     1      33.691 -11.841 -24.422  0.00  0.00    -0.089 HD
ATOM     34  H   UNL     1      34.615 -11.239 -23.174  0.00  0.00    -0.089 HD
ATOM     35  H   UNL     1      33.050 -10.708 -23.382  0.00  0.00    -0.089 HD
ENDBRANCH  31  32
ENDBRANCH  25  31
ENDBRANCH  23  24
ENDBRANCH   2  23
TORSDOF 5
ENDMDL
MODEL 2
REMARK VINA RESULT:     -13.6      2.065      2.842
REMARK  Name = 10156987
REMARK  5 active torsions:
REMARK  status: ('A' for Active; 'I' for Inactive)
REMARK    1  A    between atoms: C_2  and  C_23
REMARK    2  A    between atoms: C_9  and  C_13
REMARK    3  A    between atoms: C_23  and  N_24
REMARK    4  A    between atoms: C_25  and  C_31
REMARK    5  A    between atoms: C_31  and  N_32
REMARK                            x       y       z     vdW  Elec       q    Type
REMARK                         _______ _______ _______ _____ _____    ______ ____
ROOT
ATOM      1  N   UNL     1      35.754 -20.250 -19.298  0.00  0.00    -0.312 N 
ATOM      2  C   UNL     1      34.796 -18.059 -22.646  0.00  0.00    -0.043 C 
ATOM      3  C   UNL     1      33.864 -18.840 -21.963  0.00  0.00    -0.005 C 
ATOM      4  C   UNL     1      36.118 -17.977 -22.225  0.00  0.00    -0.005 C 
ATOM      5  C   UNL     1      34.280 -19.559 -20.824  0.00  0.00    +0.014 C 
ATOM      6  C   UNL     1      35.613 -19.462 -20.420  0.00  0.00    +0.048 C 
ATOM      7  C   UNL     1      36.554 -18.681 -21.099  0.00  0.00    +0.014 C 
ATOM      8  C   UNL     1      33.628 -20.430 -19.907  0.00  0.00    +0.016 C 
ATOM      9  C   UNL     1      34.560 -20.838 -18.982  0.00  0.00    +0.053 C 
ATOM     10  H   UNL     1      36.593 -20.372 -18.798  0.00  0.00    +0.152 HD
ENDROOT
BRANCH   9  13
ATOM     11  O   UNL     1      32.239 -22.314 -18.206  0.00  0.00    -0.270 OA
ATOM     12  N   UNL     1      33.288 -23.266 -16.405  0.00  0.00    -0.280 N 
ATOM     13  C   UNL     1      34.512 -21.698 -17.840  0.00  0.00    +0.067 C 
ATOM     14  C   UNL     1      35.602 -21.839 -17.067  0.00  0.00    +0.007 C 
ATOM     15  C   UNL     1      33.249 -22.444 -17.515  0.00  0.00    +0.251 C 
ATOM     16  C   UNL     1      35.591 -22.717 -15.899  0.00  0.00    +0.014 C 
ATOM     17  C   UNL     1      34.422 -23.420 -15.591  0.00  0.00    +0.051 C 
ATOM     18  C   UNL     1      36.718 -22.870 -15.087  0.00  0.00    +0.001 C 
ATOM     19  C   UNL     1      34.373 -24.271 -14.483  0.00  0.00    +0.015 C 
ATOM     20  C   UNL     1      36.671 -23.720 -13.979  0.00  0.00    +0.000 C 
ATOM     21  C   UNL     1      35.502 -24.418 -13.678  0.00  0.00    +0.001 C 
ATOM     22  H   UNL     1      32.476 -23.771 -16.171  0.00  0.00    +0.155 HD
ENDBRANCH   9  13
BRANCH   2  23
ATOM     23  C   UNL     1      34.360 -17.293 -23.860  0.00  0.00    -0.050 C 
BRANCH  23  24
ATOM     24  N   UNL     1      33.686 -16.044 -23.506  0.00  0.00    +0.390 N 
ATOM     25  C   UNL     1      33.476 -13.133 -23.219  0.00  0.00    -0.026 C 
ATOM     26  C   UNL     1      33.698 -14.064 -22.022  0.00  0.00    -0.025 C 
ATOM     27  C   UNL     1      32.781 -13.900 -24.349  0.00  0.00    -0.025 C 
ATOM     28  C   UNL     1      34.420 -15.346 -22.441  0.00  0.00    -0.077 C 
ATOM     29  C   UNL     1      33.532 -15.189 -24.691  0.00  0.00    -0.077 C 
ATOM     30  H   UNL     1      32.754 -16.263 -23.154  0.00  0.00    -0.079 HD
BRANCH  25  31
ATOM     31  C   UNL     1      32.668 -11.902 -22.815  0.00  0.00    -0.086 C 
BRANCH  31  32
ATOM     32  N   UNL     1      31.514 -12.279 -22.014  0.00  0.00    +0.380 N 
ATOM     33  H   UNL     1      30.760 -11.610 -22.170  0.00  0.00    -0.089 HD
ATOM     34  H   UNL     1      31.770 -12.277 -21.027  0.00  0.00    -0.089 HD
ATOM     35  H   UNL     1      31.202 -13.212 -22.284  0.00  0.00    -0.089 HD
ENDBRANCH  31  32
ENDBRANCH  25  31
ENDBRANCH  23  24
ENDBRANCH   2  23
TORSDOF 5
ENDMDL
MODEL 3
REMARK VINA RESULT:     -13.5      4.528     12.379
REMARK  Name = 10156987
REMARK  5 active torsions:
REMARK  status: ('A' for Active; 'I' for Inactive)
REMARK    1  A    between atoms: C_2  and  C_23
REMARK    2  A    between atoms: C_9  and  C_13
REMARK    3  A    between atoms: C_23  and  N_24
REMARK    4  A    between atoms: C_25  and  C_31
REMARK    5  A    between atoms: C_31  and  N_32
REMARK                            x       y       z     vdW  Elec       q    Type
REMARK                         _______ _______ _______ _____ _____    ______ ____
ROOT
ATOM      1  N   UNL     1      32.811 -11.769 -21.477  0.00  0.00    -0.312 N 
ATOM      2  C   UNL     1      34.310 -15.512 -22.290  0.00  0.00    -0.043 C 
ATOM      3  C   UNL     1      34.135 -14.539 -23.275  0.00  0.00    -0.005 C 
ATOM      4  C   UNL     1      33.983 -15.265 -20.963  0.00  0.00    -0.005 C 
ATOM      5  C   UNL     1      33.615 -13.282 -22.906  0.00  0.00    +0.014 C 
ATOM      6  C   UNL     1      33.293 -13.056 -21.566  0.00  0.00    +0.048 C 
ATOM      7  C   UNL     1      33.465 -14.027 -20.574  0.00  0.00    +0.014 C 
ATOM      8  C   UNL     1      33.310 -12.087 -23.616  0.00  0.00    +0.016 C 
ATOM      9  C   UNL     1      32.818 -11.176 -22.711  0.00  0.00    +0.053 C 
ATOM     10  H   UNL     1      32.506 -11.338 -20.646  0.00  0.00    +0.152 HD
ENDROOT
BRANCH   9  13
ATOM     11  O   UNL     1      30.185 -10.353 -21.965  0.00  0.00    -0.270 OA
ATOM     12  N   UNL     1      30.577  -8.161 -22.508  0.00  0.00    -0.280 N 
ATOM     13  C   UNL     1      32.349  -9.829 -22.816  0.00  0.00    +0.067 C 
ATOM     14  C   UNL     1      33.167  -8.874 -23.291  0.00  0.00    +0.007 C 
ATOM     15  C   UNL     1      30.950  -9.487 -22.389  0.00  0.00    +0.251 C 
ATOM     16  C   UNL     1      32.723  -7.487 -23.402  0.00  0.00    +0.014 C 
ATOM     17  C   UNL     1      31.425  -7.156 -23.002  0.00  0.00    +0.051 C 
ATOM     18  C   UNL     1      33.564  -6.486 -23.896  0.00  0.00    +0.001 C 
ATOM     19  C   UNL     1      30.964  -5.840 -23.092  0.00  0.00    +0.015 C 
ATOM     20  C   UNL     1      33.106  -5.169 -23.986  0.00  0.00    +0.000 C 
ATOM     21  C   UNL     1      31.810  -4.847 -23.586  0.00  0.00    +0.001 C 
ATOM     22  H   UNL     1      29.667  -7.907 -22.230  0.00  0.00    +0.155 HD
ENDBRANCH   9  13
BRANCH   2  23
ATOM     23  C   UNL     1      34.862 -16.853 -22.677  0.00  0.00    -0.050 C 
BRANCH  23  24
ATOM     24  N   UNL     1      34.877 -17.785 -21.550  0.00  0.00    +0.390 N 
ATOM     25  C   UNL     1      35.297 -20.388 -20.268  0.00  0.00    -0.026 C 
ATOM     26  C   UNL     1      33.901 -19.846 -20.589  0.00  0.00    -0.025 C 
ATOM     27  C   UNL     1      36.280 -19.224 -20.107  0.00  0.00    -0.025 C 
ATOM     28  C   UNL     1      33.936 -18.890 -21.783  0.00  0.00    -0.077 C 
ATOM     29  C   UNL     1      36.237 -18.288 -21.317  0.00  0.00    -0.077 C 
ATOM     30  H   UNL     1      34.577 -17.288 -20.711  0.00  0.00    -0.079 HD
BRANCH  25  31
ATOM     31  C   UNL     1      35.272 -21.261 -19.016  0.00  0.00    -0.086 C 
BRANCH  31  32
ATOM     32  N   UNL     1      36.217 -20.773 -18.023  0.00  0.00    +0.380 N 
ATOM     33  H   UNL     1      35.713 -20.268 -17.295  0.00  0.00    -0.089 HD
ATOM     34  H   UNL     1      36.886 -20.146 -18.470  0.00  0.00    -0.089 HD
ATOM     35  H   UNL     1      36.714 -21.561 -17.609  0.00  0.00    -0.089 HD
ENDBRANCH  31  32
ENDBRANCH  25  31
ENDBRANCH  23  24
ENDBRANCH   2  23
TORSDOF 5
ENDMDL
MODEL 4
REMARK VINA RESULT:     -13.5      2.449      3.585
REMARK  Name = 10156987
REMARK  5 active torsions:
REMARK  status: ('A' for Active; 'I' for Inactive)
REMARK    1  A    between atoms: C_2  and  C_23
REMARK    2  A    between atoms: C_9  and  C_13
REMARK    3  A    between atoms: C_23  and  N_24
REMARK    4  A    between atoms: C_25  and  C_31
REMARK    5  A    between atoms: C_31  and  N_32
REMARK                            x       y       z     vdW  Elec       q    Type
REMARK                         _______ _______ _______ _____ _____    ______ ____
ROOT
ATOM      1  N   UNL     1      33.909 -21.675 -17.846  0.00  0.00    -0.312 N 
ATOM      2  C   UNL     1      34.596 -19.480 -21.256  0.00  0.00    -0.043 C 
ATOM      3  C   UNL     1      35.622 -19.894 -20.406  0.00  0.00    -0.005 C 
ATOM      4  C   UNL     1      33.268 -19.792 -20.993  0.00  0.00    -0.005 C 
ATOM      5  C   UNL     1      35.295 -20.644 -19.258  0.00  0.00    +0.014 C 
ATOM      6  C   UNL     1      33.953 -20.945 -19.013  0.00  0.00    +0.048 C 
ATOM      7  C   UNL     1      32.919 -20.534 -19.861  0.00  0.00    +0.014 C 
ATOM      8  C   UNL     1      36.051 -21.217 -18.199  0.00  0.00    +0.016 C 
ATOM      9  C   UNL     1      35.172 -21.844 -17.347  0.00  0.00    +0.053 C 
ATOM     10  H   UNL     1      33.087 -22.024 -17.430  0.00  0.00    +0.152 HD
ENDROOT
BRANCH   9  13
ATOM     11  O   UNL     1      32.977 -22.793 -15.783  0.00  0.00    -0.270 OA
ATOM     12  N   UNL     1      34.344 -23.767 -14.222  0.00  0.00    -0.280 N 
ATOM     13  C   UNL     1      35.325 -22.580 -16.131  0.00  0.00    +0.067 C 
ATOM     14  C   UNL     1      36.558 -22.855 -15.670  0.00  0.00    +0.007 C 
ATOM     15  C   UNL     1      34.112 -23.049 -15.380  0.00  0.00    +0.251 C 
ATOM     16  C   UNL     1      36.750 -23.613 -14.435  0.00  0.00    +0.014 C 
ATOM     17  C   UNL     1      35.627 -24.060 -13.732  0.00  0.00    +0.051 C 
ATOM     18  C   UNL     1      38.026 -23.904 -13.946  0.00  0.00    +0.001 C 
ATOM     19  C   UNL     1      35.771 -24.790 -12.549  0.00  0.00    +0.015 C 
ATOM     20  C   UNL     1      38.172 -24.634 -12.763  0.00  0.00    +0.000 C 
ATOM     21  C   UNL     1      37.047 -25.075 -12.067  0.00  0.00    +0.001 C 
ATOM     22  H   UNL     1      33.566 -24.092 -13.713  0.00  0.00    +0.155 HD
ENDBRANCH   9  13
BRANCH   2  23
ATOM     23  C   UNL     1      34.937 -18.680 -22.479  0.00  0.00    -0.050 C 
BRANCH  23  24
ATOM     24  N   UNL     1      34.261 -17.384 -22.492  0.00  0.00    +0.390 N 
ATOM     25  C   UNL     1      34.113 -14.473 -22.820  0.00  0.00    -0.026 C 
ATOM     26  C   UNL     1      34.107 -15.148 -21.444  0.00  0.00    -0.025 C 
ATOM     27  C   UNL     1      33.582 -15.448 -23.876  0.00  0.00    -0.025 C 
ATOM     28  C   UNL     1      34.839 -16.490 -21.479  0.00  0.00    -0.077 C 
ATOM     29  C   UNL     1      34.331 -16.781 -23.831  0.00  0.00    -0.077 C 
ATOM     30  H   UNL     1      33.277 -17.525 -22.263  0.00  0.00    -0.079 HD
BRANCH  25  31
ATOM     31  C   UNL     1      33.297 -13.183 -22.803  0.00  0.00    -0.086 C 
BRANCH  31  32
ATOM     32  N   UNL     1      32.352 -13.153 -23.908  0.00  0.00    +0.380 N 
ATOM     33  H   UNL     1      32.587 -12.383 -24.534  0.00  0.00    -0.089 HD
ATOM     34  H   UNL     1      31.408 -13.019 -23.545  0.00  0.00    -0.089 HD
ATOM     35  H   UNL     1      32.398 -14.034 -24.420  0.00  0.00    -0.089 HD
ENDBRANCH  31  32
ENDBRANCH  25  31
ENDBRANCH  23  24
ENDBRANCH   2  23
TORSDOF 5
ENDMDL
MODEL 5
REMARK VINA RESULT:     -13.4      3.429     10.565
REMARK  Name = 10156987
REMARK  5 active torsions:
REMARK  status: ('A' for Active; 'I' for Inactive)
REMARK    1  A    between atoms: C_2  and  C_23
REMARK    2  A    between atoms: C_9  and  C_13
REMARK    3  A    between atoms: C_23  and  N_24
REMARK    4  A    between atoms: C_25  and  C_31
REMARK    5  A    between atoms: C_31  and  N_32
REMARK                            x       y       z     vdW  Elec       q    Type
REMARK                         _______ _______ _______ _____ _____    ______ ____
ROOT
ATOM      1  N   UNL     1      33.430 -14.413 -23.056  0.00  0.00    -0.312 N 
ATOM      2  C   UNL     1      35.073 -17.992 -21.869  0.00  0.00    -0.043 C 
ATOM      3  C   UNL     1      34.842 -16.937 -20.985  0.00  0.00    -0.005 C 
ATOM      4  C   UNL     1      34.755 -17.888 -23.217  0.00  0.00    -0.005 C 
ATOM      5  C   UNL     1      34.274 -15.745 -21.479  0.00  0.00    +0.014 C 
ATOM      6  C   UNL     1      33.963 -15.664 -22.838  0.00  0.00    +0.048 C 
ATOM      7  C   UNL     1      34.192 -16.717 -23.730  0.00  0.00    +0.014 C 
ATOM      8  C   UNL     1      33.909 -14.503 -20.891  0.00  0.00    +0.016 C 
ATOM      9  C   UNL     1      33.393 -13.704 -21.885  0.00  0.00    +0.053 C 
ATOM     10  H   UNL     1      33.120 -14.077 -23.928  0.00  0.00    +0.152 HD
ENDROOT
BRANCH   9  13
ATOM     11  O   UNL     1      33.260 -12.109 -24.252  0.00  0.00    -0.270 OA
ATOM     12  N   UNL     1      32.293 -10.341 -23.161  0.00  0.00    -0.280 N 
ATOM     13  C   UNL     1      32.868 -12.375 -21.917  0.00  0.00    +0.067 C 
ATOM     14  C   UNL     1      32.406 -11.815 -20.785  0.00  0.00    +0.007 C 
ATOM     15  C   UNL     1      32.829 -11.614 -23.212  0.00  0.00    +0.251 C 
ATOM     16  C   UNL     1      31.855 -10.461 -20.784  0.00  0.00    +0.014 C 
ATOM     17  C   UNL     1      31.807  -9.747 -21.985  0.00  0.00    +0.051 C 
ATOM     18  C   UNL     1      31.373  -9.868 -19.613  0.00  0.00    +0.001 C 
ATOM     19  C   UNL     1      31.285  -8.452 -22.023  0.00  0.00    +0.015 C 
ATOM     20  C   UNL     1      30.850  -8.573 -19.650  0.00  0.00    +0.000 C 
ATOM     21  C   UNL     1      30.807  -7.867 -20.852  0.00  0.00    +0.001 C 
ATOM     22  H   UNL     1      32.249  -9.822 -23.997  0.00  0.00    +0.155 HD
ENDBRANCH   9  13
BRANCH   2  23
ATOM     23  C   UNL     1      35.679 -19.263 -21.349  0.00  0.00    -0.050 C 
BRANCH  23  24
ATOM     24  N   UNL     1      34.936 -19.796 -20.207  0.00  0.00    +0.390 N 
ATOM     25  C   UNL     1      33.440 -21.849 -18.742  0.00  0.00    -0.026 C 
ATOM     26  C   UNL     1      32.756 -20.648 -19.404  0.00  0.00    -0.025 C 
ATOM     27  C   UNL     1      34.894 -21.498 -18.412  0.00  0.00    -0.025 C 
ATOM     28  C   UNL     1      33.562 -20.139 -20.600  0.00  0.00    -0.077 C 
ATOM     29  C   UNL     1      35.631 -20.960 -19.641  0.00  0.00    -0.077 C 
ATOM     30  H   UNL     1      34.887 -19.078 -19.485  0.00  0.00    -0.079 HD
BRANCH  25  31
ATOM     31  C   UNL     1      32.684 -22.290 -17.491  0.00  0.00    -0.086 C 
BRANCH  31  32
ATOM     32  N   UNL     1      31.265 -21.997 -17.612  0.00  0.00    +0.380 N 
ATOM     33  H   UNL     1      31.106 -21.420 -18.437  0.00  0.00    -0.089 HD
ATOM     34  H   UNL     1      30.949 -21.495 -16.781  0.00  0.00    -0.089 HD
ATOM     35  H   UNL     1      30.743 -22.869 -17.701  0.00  0.00    -0.089 HD
ENDBRANCH  31  32
ENDBRANCH  25  31
ENDBRANCH  23  24
ENDBRANCH   2  23
TORSDOF 5
ENDMDL
MODEL 6
REMARK VINA RESULT:     -12.9      3.559     11.330
REMARK  Name = 10156987
REMARK  5 active torsions:
REMARK  status: ('A' for Active; 'I' for Inactive)
REMARK    1  A    between atoms: C_2  and  C_23
REMARK    2  A    between atoms: C_9  and  C_13
REMARK    3  A    between atoms: C_23  and  N_24
REMARK    4  A    between atoms: C_25  and  C_31
REMARK    5  A    between atoms: C_31  and  N_32
REMARK                            x       y       z     vdW  Elec       q    Type
REMARK                         _______ _______ _______ _____ _____    ______ ____
ROOT
ATOM      1  N   UNL     1      32.825 -13.464 -23.571  0.00  0.00    -0.312 N 
ATOM      2  C   UNL     1      34.762 -16.999 -22.757  0.00  0.00    -0.043 C 
ATOM      3  C   UNL     1      34.715 -15.939 -21.851  0.00  0.00    -0.005 C 
ATOM      4  C   UNL     1      34.147 -16.918 -24.000  0.00  0.00    -0.005 C 
ATOM      5  C   UNL     1      34.028 -14.763 -22.214  0.00  0.00    +0.014 C 
ATOM      6  C   UNL     1      33.418 -14.703 -23.469  0.00  0.00    +0.048 C 
ATOM      7  C   UNL     1      33.461 -15.762 -24.381  0.00  0.00    +0.014 C 
ATOM      8  C   UNL     1      33.780 -13.520 -21.569  0.00  0.00    +0.016 C 
ATOM      9  C   UNL     1      33.038 -12.742 -22.428  0.00  0.00    +0.053 C 
ATOM     10  H   UNL     1      32.320 -13.144 -24.353  0.00  0.00    +0.152 HD
ENDROOT
BRANCH   9  13
ATOM     11  O   UNL     1      30.829 -12.036 -20.759  0.00  0.00    -0.270 OA
ATOM     12  N   UNL     1      30.878  -9.837 -21.406  0.00  0.00    -0.280 N 
ATOM     13  C   UNL     1      32.494 -11.422 -22.350  0.00  0.00    +0.067 C 
ATOM     14  C   UNL     1      33.028 -10.438 -23.093  0.00  0.00    +0.007 C 
ATOM     15  C   UNL     1      31.336 -11.141 -21.435  0.00  0.00    +0.251 C 
ATOM     16  C   UNL     1      32.502  -9.076 -23.032  0.00  0.00    +0.014 C 
ATOM     17  C   UNL     1      31.428  -8.802 -22.178  0.00  0.00    +0.051 C 
ATOM     18  C   UNL     1      33.047  -8.044 -23.801  0.00  0.00    +0.001 C 
ATOM     19  C   UNL     1      30.900  -7.511 -22.090  0.00  0.00    +0.015 C 
ATOM     20  C   UNL     1      32.520  -6.753 -23.714  0.00  0.00    +0.000 C 
ATOM     21  C   UNL     1      31.449  -6.488 -22.861  0.00  0.00    +0.001 C 
ATOM     22  H   UNL     1      30.123  -9.623 -20.811  0.00  0.00    +0.155 HD
ENDBRANCH   9  13
BRANCH   2  23
ATOM     23  C   UNL     1      35.494 -18.254 -22.377  0.00  0.00    -0.050 C 
BRANCH  23  24
ATOM     24  N   UNL     1      34.919 -18.884 -21.189  0.00  0.00    +0.390 N 
ATOM     25  C   UNL     1      33.871 -21.132 -19.624  0.00  0.00    -0.026 C 
ATOM     26  C   UNL     1      32.961 -20.070 -20.249  0.00  0.00    -0.025 C 
ATOM     27  C   UNL     1      35.266 -20.544 -19.386  0.00  0.00    -0.025 C 
ATOM     28  C   UNL     1      33.599 -19.453 -21.495  0.00  0.00    -0.077 C 
ATOM     29  C   UNL     1      35.828 -19.911 -20.661  0.00  0.00    -0.077 C 
ATOM     30  H   UNL     1      34.796 -18.173 -20.468  0.00  0.00    -0.079 HD
BRANCH  25  31
ATOM     31  C   UNL     1      33.275 -21.672 -18.327  0.00  0.00    -0.086 C 
BRANCH  31  32
ATOM     32  N   UNL     1      31.822 -21.638 -18.370  0.00  0.00    +0.380 N 
ATOM     33  H   UNL     1      31.518 -20.931 -19.039  0.00  0.00    -0.089 HD
ATOM     34  H   UNL     1      31.460 -21.406 -17.444  0.00  0.00    -0.089 HD
ATOM     35  H   UNL     1      31.467 -22.551 -18.654  0.00  0.00    -0.089 HD
ENDBRANCH  31  32
ENDBRANCH  25  31
ENDBRANCH  23  24
ENDBRANCH   2  23
TORSDOF 5
ENDMDL
MODEL 7
REMARK VINA RESULT:     -12.9      6.318     10.530
REMARK  Name = 10156987
REMARK  5 active torsions:
REMARK  status: ('A' for Active; 'I' for Inactive)
REMARK    1  A    between atoms: C_2  and  C_23
REMARK    2  A    between atoms: C_9  and  C_13
REMARK    3  A    between atoms: C_23  and  N_24
REMARK    4  A    between atoms: C_25  and  C_31
REMARK    5  A    between atoms: C_31  and  N_32
REMARK                            x       y       z     vdW  Elec       q    Type
REMARK                         _______ _______ _______ _____ _____    ______ ____
ROOT
ATOM      1  N   UNL     1      31.961 -12.572 -22.093  0.00  0.00    -0.312 N 
ATOM      2  C   UNL     1      31.473  -8.508 -22.498  0.00  0.00    -0.043 C 
ATOM      3  C   UNL     1      32.414  -9.232 -23.231  0.00  0.00    -0.005 C 
ATOM      4  C   UNL     1      30.636  -9.130 -21.580  0.00  0.00    -0.005 C 
ATOM      5  C   UNL     1      32.513 -10.623 -23.028  0.00  0.00    +0.014 C 
ATOM      6  C   UNL     1      31.663 -11.227 -22.099  0.00  0.00    +0.048 C 
ATOM      7  C   UNL     1      30.716 -10.508 -21.361  0.00  0.00    +0.014 C 
ATOM      8  C   UNL     1      33.329 -11.650 -23.577  0.00  0.00    +0.016 C 
ATOM      9  C   UNL     1      32.967 -12.837 -22.983  0.00  0.00    +0.053 C 
ATOM     10  H   UNL     1      31.515 -13.245 -21.529  0.00  0.00    +0.152 HD
ENDROOT
BRANCH   9  13
ATOM     11  O   UNL     1      32.863 -14.309 -25.430  0.00  0.00    -0.270 OA
ATOM     12  N   UNL     1      33.797 -16.180 -24.493  0.00  0.00    -0.280 N 
ATOM     13  C   UNL     1      33.414 -14.188 -23.114  0.00  0.00    +0.067 C 
ATOM     14  C   UNL     1      33.914 -14.831 -22.044  0.00  0.00    +0.007 C 
ATOM     15  C   UNL     1      33.331 -14.880 -24.445  0.00  0.00    +0.251 C 
ATOM     16  C   UNL     1      34.388 -16.209 -22.146  0.00  0.00    +0.014 C 
ATOM     17  C   UNL     1      34.321 -16.860 -23.381  0.00  0.00    +0.051 C 
ATOM     18  C   UNL     1      34.908 -16.888 -21.040  0.00  0.00    +0.001 C 
ATOM     19  C   UNL     1      34.767 -18.177 -23.518  0.00  0.00    +0.015 C 
ATOM     20  C   UNL     1      35.355 -18.205 -21.175  0.00  0.00    +0.000 C 
ATOM     21  C   UNL     1      35.284 -18.848 -22.411  0.00  0.00    +0.001 C 
ATOM     22  H   UNL     1      33.760 -16.656 -25.354  0.00  0.00    +0.155 HD
ENDBRANCH   9  13
BRANCH   2  23
ATOM     23  C   UNL     1      31.364  -7.026 -22.709  0.00  0.00    -0.050 C 
BRANCH  23  24
ATOM     24  N   UNL     1      32.233  -6.562 -23.790  0.00  0.00    +0.390 N 
ATOM     25  C   UNL     1      33.259  -4.595 -25.708  0.00  0.00    -0.026 C 
ATOM     26  C   UNL     1      32.334  -5.744 -26.123  0.00  0.00    -0.025 C 
ATOM     27  C   UNL     1      34.022  -4.979 -24.436  0.00  0.00    -0.025 C 
ATOM     28  C   UNL     1      31.436  -6.182 -24.965  0.00  0.00    -0.077 C 
ATOM     29  C   UNL     1      33.068  -5.443 -23.333  0.00  0.00    -0.077 C 
ATOM     30  H   UNL     1      32.852  -7.325 -24.063  0.00  0.00    -0.079 HD
BRANCH  25  31
ATOM     31  C   UNL     1      34.221  -4.229 -26.835  0.00  0.00    -0.086 C 
BRANCH  31  32
ATOM     32  N   UNL     1      33.854  -4.905 -28.070  0.00  0.00    +0.380 N 
ATOM     33  H   UNL     1      33.227  -5.681 -27.859  0.00  0.00    -0.089 HD
ATOM     34  H   UNL     1      34.695  -5.260 -28.526  0.00  0.00    -0.089 HD
ATOM     35  H   UNL     1      33.383  -4.246 -28.692  0.00  0.00    -0.089 HD
ENDBRANCH  31  32
ENDBRANCH  25  31
ENDBRANCH  23  24
ENDBRANCH   2  23
TORSDOF 5
ENDMDL
MODEL 8
REMARK VINA RESULT:     -11.8      2.868     10.338
REMARK  Name = 10156987
REMARK  5 active torsions:
REMARK  status: ('A' for Active; 'I' for Inactive)
REMARK    1  A    between atoms: C_2  and  C_23
REMARK    2  A    between atoms: C_9  and  C_13
REMARK    3  A    between atoms: C_23  and  N_24
REMARK    4  A    between atoms: C_25  and  C_31
REMARK    5  A    between atoms: C_31  and  N_32
REMARK                            x       y       z     vdW  Elec       q    Type
REMARK                         _______ _______ _______ _____ _____    ______ ____
ROOT
ATOM      1  N   UNL     1      33.665 -18.848 -21.361  0.00  0.00    -0.312 N 
ATOM      2  C   UNL     1      35.742 -21.089 -18.607  0.00  0.00    -0.043 C 
ATOM      3  C   UNL     1      36.284 -19.961 -19.224  0.00  0.00    -0.005 C 
ATOM      4  C   UNL     1      34.453 -21.521 -18.892  0.00  0.00    -0.005 C 
ATOM      5  C   UNL     1      35.499 -19.252 -20.157  0.00  0.00    +0.014 C 
ATOM      6  C   UNL     1      34.207 -19.706 -20.429  0.00  0.00    +0.048 C 
ATOM      7  C   UNL     1      33.658 -20.835 -19.814  0.00  0.00    +0.014 C 
ATOM      8  C   UNL     1      35.713 -18.095 -20.957  0.00  0.00    +0.016 C 
ATOM      9  C   UNL     1      34.568 -17.872 -21.686  0.00  0.00    +0.053 C 
ATOM     10  H   UNL     1      32.759 -18.927 -21.739  0.00  0.00    +0.152 HD
ENDROOT
BRANCH   9  13
ATOM     11  O   UNL     1      33.796 -18.488 -24.367  0.00  0.00    -0.270 OA
ATOM     12  N   UNL     1      33.404 -16.292 -24.895  0.00  0.00    -0.280 N 
ATOM     13  C   UNL     1      34.180 -16.886 -22.645  0.00  0.00    +0.067 C 
ATOM     14  C   UNL     1      34.171 -15.587 -22.298  0.00  0.00    +0.007 C 
ATOM     15  C   UNL     1      33.780 -17.304 -24.031  0.00  0.00    +0.251 C 
ATOM     16  C   UNL     1      33.772 -14.554 -23.251  0.00  0.00    +0.014 C 
ATOM     17  C   UNL     1      33.390 -14.933 -24.542  0.00  0.00    +0.051 C 
ATOM     18  C   UNL     1      33.759 -13.201 -22.902  0.00  0.00    +0.001 C 
ATOM     19  C   UNL     1      33.000 -13.974 -25.480  0.00  0.00    +0.015 C 
ATOM     20  C   UNL     1      33.369 -12.240 -23.838  0.00  0.00    +0.000 C 
ATOM     21  C   UNL     1      32.991 -12.626 -25.124  0.00  0.00    +0.001 C 
ATOM     22  H   UNL     1      33.131 -16.538 -25.808  0.00  0.00    +0.155 HD
ENDBRANCH   9  13
BRANCH   2  23
ATOM     23  C   UNL     1      36.573 -21.848 -17.614  0.00  0.00    -0.050 C 
BRANCH  23  24
ATOM     24  N   UNL     1      35.899 -21.978 -16.322  0.00  0.00    +0.390 N 
ATOM     25  C   UNL     1      34.790 -23.460 -14.047  0.00  0.00    -0.026 C 
ATOM     26  C   UNL     1      33.906 -22.838 -15.134  0.00  0.00    -0.025 C 
ATOM     27  C   UNL     1      36.120 -22.703 -13.967  0.00  0.00    -0.025 C 
ATOM     28  C   UNL     1      34.650 -22.739 -16.467  0.00  0.00    -0.077 C 
ATOM     29  C   UNL     1      36.791 -22.608 -15.339  0.00  0.00    -0.077 C 
ATOM     30  H   UNL     1      35.663 -21.047 -15.981  0.00  0.00    -0.079 HD
BRANCH  25  31
ATOM     31  C   UNL     1      34.079 -23.464 -12.697  0.00  0.00    -0.086 C 
BRANCH  31  32
ATOM     32  N   UNL     1      34.987 -23.071 -11.631  0.00  0.00    +0.380 N 
ATOM     33  H   UNL     1      35.890 -22.819 -12.030  0.00  0.00    -0.089 HD
ATOM     34  H   UNL     1      35.106 -23.849 -10.982  0.00  0.00    -0.089 HD
ATOM     35  H   UNL     1      34.600 -22.269 -11.132  0.00  0.00    -0.089 HD
ENDBRANCH  31  32
ENDBRANCH  25  31
ENDBRANCH  23  24
ENDBRANCH   2  23
TORSDOF 5
ENDMDL
MODEL 9
REMARK VINA RESULT:     -11.8      6.228     10.345
REMARK  Name = 10156987
REMARK  5 active torsions:
REMARK  status: ('A' for Active; 'I' for Inactive)
REMARK    1  A    between atoms: C_2  and  C_23
REMARK    2  A    between atoms: C_9  and  C_13
REMARK    3  A    between atoms: C_23  and  N_24
REMARK    4  A    between atoms: C_25  and  C_31
REMARK    5  A    between atoms: C_31  and  N_32
REMARK                            x       y       z     vdW  Elec       q    Type
REMARK                         _______ _______ _______ _____ _____    ______ ____
ROOT
ATOM      1  N   UNL     1      31.958 -12.431 -21.674  0.00  0.00    -0.312 N 
ATOM      2  C   UNL     1      31.236  -8.556 -22.851  0.00  0.00    -0.043 C 
ATOM      3  C   UNL     1      32.146  -9.387 -23.506  0.00  0.00    -0.005 C 
ATOM      4  C   UNL     1      30.514  -9.000 -21.750  0.00  0.00    -0.005 C 
ATOM      5  C   UNL     1      32.330 -10.702 -23.034  0.00  0.00    +0.014 C 
ATOM      6  C   UNL     1      31.595 -11.126 -21.925  0.00  0.00    +0.048 C 
ATOM      7  C   UNL     1      30.681 -10.299 -21.263  0.00  0.00    +0.014 C 
ATOM      8  C   UNL     1      33.146 -11.796 -23.437  0.00  0.00    +0.016 C 
ATOM      9  C   UNL     1      32.895 -12.843 -22.582  0.00  0.00    +0.053 C 
ATOM     10  H   UNL     1      31.597 -12.986 -20.945  0.00  0.00    +0.152 HD
ENDROOT
BRANCH   9  13
ATOM     11  O   UNL     1      34.178 -13.874 -20.246  0.00  0.00    -0.270 OA
ATOM     12  N   UNL     1      34.492 -15.946 -21.176  0.00  0.00    -0.280 N 
ATOM     13  C   UNL     1      33.396 -14.178 -22.477  0.00  0.00    +0.067 C 
ATOM     14  C   UNL     1      33.274 -15.019 -23.519  0.00  0.00    +0.007 C 
ATOM     15  C   UNL     1      34.048 -14.637 -21.203  0.00  0.00    +0.251 C 
ATOM     16  C   UNL     1      33.767 -16.392 -23.442  0.00  0.00    +0.014 C 
ATOM     17  C   UNL     1      34.369 -16.832 -22.259  0.00  0.00    +0.051 C 
ATOM     18  C   UNL     1      33.647 -17.275 -24.519  0.00  0.00    +0.001 C 
ATOM     19  C   UNL     1      34.850 -18.139 -22.146  0.00  0.00    +0.015 C 
ATOM     20  C   UNL     1      34.127 -18.582 -24.408  0.00  0.00    +0.000 C 
ATOM     21  C   UNL     1      34.728 -19.012 -23.225  0.00  0.00    +0.001 C 
ATOM     22  H   UNL     1      34.918 -16.275 -20.351  0.00  0.00    +0.155 HD
ENDBRANCH   9  13
BRANCH   2  23
ATOM     23  C   UNL     1      31.036  -7.155 -23.348  0.00  0.00    -0.050 C 
BRANCH  23  24
ATOM     24  N   UNL     1      32.211  -6.654 -24.062  0.00  0.00    +0.390 N 
ATOM     25  C   UNL     1      33.836  -4.600 -25.382  0.00  0.00    -0.026 C 
ATOM     26  C   UNL     1      33.054  -5.659 -26.166  0.00  0.00    -0.025 C 
ATOM     27  C   UNL     1      34.155  -5.126 -23.979  0.00  0.00    -0.025 C 
ATOM     28  C   UNL     1      31.828  -6.138 -25.384  0.00  0.00    -0.077 C 
ATOM     29  C   UNL     1      32.894  -5.623 -23.269  0.00  0.00    -0.077 C 
ATOM     30  H   UNL     1      32.862  -7.426 -24.202  0.00  0.00    -0.079 HD
BRANCH  25  31
ATOM     31  C   UNL     1      35.110  -4.200 -26.121  0.00  0.00    -0.086 C 
BRANCH  31  32
ATOM     32  N   UNL     1      35.434  -5.167 -27.158  0.00  0.00    +0.380 N 
ATOM     33  H   UNL     1      36.406  -5.047 -27.442  0.00  0.00    -0.089 HD
ATOM     34  H   UNL     1      34.824  -5.019 -27.963  0.00  0.00    -0.089 HD
ATOM     35  H   UNL     1      35.299  -6.111 -26.797  0.00  0.00    -0.089 HD
ENDBRANCH  31  32
ENDBRANCH  25  31
ENDBRANCH  23  24
ENDBRANCH   2  23
TORSDOF 5
ENDMDL
