MODEL 1
REMARK VINA RESULT:     -12.6      0.000      0.000
REMARK  Name = 5951796
REMARK  4 active torsions:
REMARK  status: ('A' for Active; 'I' for Inactive)
REMARK    1  A    between atoms: C_2  and  C_16
REMARK    2  A    between atoms: C_3  and  C_10
REMARK    3  A    between atoms: C_19  and  C_23
REMARK    4  A    between atoms: C_23  and  O_24
REMARK                            x       y       z     vdW  Elec       q    Type
REMARK                         _______ _______ _______ _____ _____    ______ ____
ROOT
ATOM      1  O   UNL     1      34.245 -18.621 -21.745  0.00  0.00    -0.453 OA
ATOM      2  C   UNL     1      35.126 -19.202 -20.893  0.00  0.00    +0.145 C 
ATOM      3  C   UNL     1      34.968 -17.776 -22.525  0.00  0.00    +0.147 C 
ATOM      4  C   UNL     1      36.399 -18.744 -21.112  0.00  0.00    +0.041 C 
ATOM      5  C   UNL     1      36.299 -17.815 -22.176  0.00  0.00    +0.041 C 
ENDROOT
BRANCH   3  10
ATOM      6  S   UNL     1      33.991 -14.705 -22.050  0.00  0.00    -0.027 S 
ATOM      7  O   UNL     1      33.144 -15.429 -25.687  0.00  0.00    -0.209 OA
ATOM      8  N   UNL     1      32.957 -13.669 -24.190  0.00  0.00    -0.311 NA
ATOM      9  N   UNL     1      33.015 -12.233 -22.284  0.00  0.00    -0.327 N 
ATOM     10  C   UNL     1      34.371 -16.993 -23.539  0.00  0.00    +0.057 C 
ATOM     11  C   UNL     1      33.927 -15.697 -23.447  0.00  0.00    +0.131 C 
ATOM     12  C   UNL     1      33.309 -14.950 -24.573  0.00  0.00    +0.213 C 
ATOM     13  C   UNL     1      33.237 -13.400 -22.951  0.00  0.00    +0.222 C 
ATOM     14  H   UNL     1      33.275 -12.150 -21.337  0.00  0.00    +0.145 HD
ATOM     15  H   UNL     1      32.595 -11.473 -22.748  0.00  0.00    +0.145 HD
ENDBRANCH   3  10
BRANCH   2  16
ATOM     16  C   UNL     1      34.551 -20.147 -19.967  0.00  0.00    +0.035 C 
ATOM     17  C   UNL     1      35.378 -20.898 -19.132  0.00  0.00    +0.003 C 
ATOM     18  C   UNL     1      33.167 -20.309 -19.907  0.00  0.00    +0.003 C 
ATOM     19  C   UNL     1      33.437 -21.973 -18.176  0.00  0.00    +0.075 C 
ATOM     20  C   UNL     1      34.821 -21.811 -18.237  0.00  0.00    +0.007 C 
ATOM     21  C   UNL     1      32.609 -21.223 -19.011  0.00  0.00    +0.007 C 
BRANCH  19  23
ATOM     22  O   UNL     1      31.647 -23.105 -17.062  0.00  0.00    -0.245 OA
ATOM     23  C   UNL     1      32.856 -22.925 -17.242  0.00  0.00    +0.338 C 
BRANCH  23  24
ATOM     24  O   UNL     1      33.801 -23.627 -16.560  0.00  0.00    -0.477 OA
ATOM     25  H   UNL     1      33.556 -24.139 -15.815  0.00  0.00    +0.295 HD
ENDBRANCH  23  24
ENDBRANCH  19  23
ENDBRANCH   2  16
TORSDOF 4
ENDMDL
MODEL 2
REMARK VINA RESULT:     -11.6      3.985      8.458
REMARK  Name = 5951796
REMARK  4 active torsions:
REMARK  status: ('A' for Active; 'I' for Inactive)
REMARK    1  A    between atoms: C_2  and  C_16
REMARK    2  A    between atoms: C_3  and  C_10
REMARK    3  A    between atoms: C_19  and  C_23
REMARK    4  A    between atoms: C_23  and  O_24
REMARK                            x       y       z     vdW  Elec       q    Type
REMARK                         _______ _______ _______ _____ _____    ______ ____
ROOT
ATOM      1  O   UNL     1      34.579 -17.465 -21.676  0.00  0.00    -0.453 OA
ATOM      2  C   UNL     1      34.133 -17.003 -22.870  0.00  0.00    +0.145 C 
ATOM      3  C   UNL     1      34.775 -18.800 -21.832  0.00  0.00    +0.147 C 
ATOM      4  C   UNL     1      34.038 -18.017 -23.787  0.00  0.00    +0.041 C 
ATOM      5  C   UNL     1      34.457 -19.189 -23.113  0.00  0.00    +0.041 C 
ENDROOT
BRANCH   3  10
ATOM      6  S   UNL     1      32.788 -20.508 -19.896  0.00  0.00    -0.027 S 
ATOM      7  O   UNL     1      36.283 -21.298 -18.620  0.00  0.00    -0.209 OA
ATOM      8  N   UNL     1      34.093 -21.862 -18.111  0.00  0.00    -0.311 NA
ATOM      9  N   UNL     1      31.718 -22.092 -18.033  0.00  0.00    -0.327 N 
ATOM     10  C   UNL     1      35.243 -19.620 -20.779  0.00  0.00    +0.057 C 
ATOM     11  C   UNL     1      34.497 -20.377 -19.910  0.00  0.00    +0.131 C 
ATOM     12  C   UNL     1      35.081 -21.212 -18.829  0.00  0.00    +0.213 C 
ATOM     13  C   UNL     1      32.891 -21.608 -18.530  0.00  0.00    +0.222 C 
ATOM     14  H   UNL     1      30.863 -21.823 -18.441  0.00  0.00    +0.145 HD
ATOM     15  H   UNL     1      31.726 -22.711 -17.268  0.00  0.00    +0.145 HD
ENDBRANCH   3  10
BRANCH   2  16
ATOM     16  C   UNL     1      33.862 -15.587 -22.916  0.00  0.00    +0.035 C 
ATOM     17  C   UNL     1      33.410 -15.000 -24.098  0.00  0.00    +0.003 C 
ATOM     18  C   UNL     1      34.052 -14.803 -21.778  0.00  0.00    +0.003 C 
ATOM     19  C   UNL     1      33.337 -12.848 -23.003  0.00  0.00    +0.075 C 
ATOM     20  C   UNL     1      33.147 -13.632 -24.142  0.00  0.00    +0.007 C 
ATOM     21  C   UNL     1      33.789 -13.433 -21.821  0.00  0.00    +0.007 C 
BRANCH  19  23
ATOM     22  O   UNL     1      32.065 -10.866 -22.573  0.00  0.00    -0.245 OA
ATOM     23  C   UNL     1      33.062 -11.421 -23.048  0.00  0.00    +0.338 C 
BRANCH  23  24
ATOM     24  O   UNL     1      34.042 -10.722 -23.685  0.00  0.00    -0.477 OA
ATOM     25  H   UNL     1      34.744 -10.346 -23.192  0.00  0.00    +0.295 HD
ENDBRANCH  23  24
ENDBRANCH  19  23
ENDBRANCH   2  16
TORSDOF 4
ENDMDL
MODEL 3
REMARK VINA RESULT:     -11.5      4.280      8.523
REMARK  Name = 5951796
REMARK  4 active torsions:
REMARK  status: ('A' for Active; 'I' for Inactive)
REMARK    1  A    between atoms: C_2  and  C_16
REMARK    2  A    between atoms: C_3  and  C_10
REMARK    3  A    between atoms: C_19  and  C_23
REMARK    4  A    between atoms: C_23  and  O_24
REMARK                            x       y       z     vdW  Elec       q    Type
REMARK                         _______ _______ _______ _____ _____    ______ ____
ROOT
ATOM      1  O   UNL     1      34.206 -18.644 -21.052  0.00  0.00    -0.453 OA
ATOM      2  C   UNL     1      35.124 -17.834 -21.635  0.00  0.00    +0.145 C 
ATOM      3  C   UNL     1      34.904 -19.638 -20.444  0.00  0.00    +0.147 C 
ATOM      4  C   UNL     1      36.396 -18.291 -21.414  0.00  0.00    +0.041 C 
ATOM      5  C   UNL     1      36.256 -19.467 -20.637  0.00  0.00    +0.041 C 
ENDROOT
BRANCH   3  10
ATOM      6  S   UNL     1      36.132 -20.927 -17.716  0.00  0.00    -0.027 S 
ATOM      7  O   UNL     1      32.887 -22.824 -18.296  0.00  0.00    -0.209 OA
ATOM      8  N   UNL     1      34.618 -22.798 -16.755  0.00  0.00    -0.311 NA
ATOM      9  N   UNL     1      36.604 -22.350 -15.509  0.00  0.00    -0.327 N 
ATOM     10  C   UNL     1      34.266 -20.677 -19.728  0.00  0.00    +0.057 C 
ATOM     11  C   UNL     1      34.693 -21.287 -18.575  0.00  0.00    +0.131 C 
ATOM     12  C   UNL     1      33.951 -22.376 -17.890  0.00  0.00    +0.213 C 
ATOM     13  C   UNL     1      35.729 -22.164 -16.537  0.00  0.00    +0.222 C 
ATOM     14  H   UNL     1      37.420 -21.800 -15.451  0.00  0.00    +0.145 HD
ATOM     15  H   UNL     1      36.421 -23.032 -14.823  0.00  0.00    +0.145 HD
ENDBRANCH   3  10
BRANCH   2  16
ATOM     16  C   UNL     1      34.579 -16.701 -22.343  0.00  0.00    +0.035 C 
ATOM     17  C   UNL     1      34.274 -16.806 -23.700  0.00  0.00    +0.003 C 
ATOM     18  C   UNL     1      34.356 -15.500 -21.670  0.00  0.00    +0.003 C 
ATOM     19  C   UNL     1      33.523 -14.510 -23.710  0.00  0.00    +0.075 C 
ATOM     20  C   UNL     1      33.746 -15.711 -24.383  0.00  0.00    +0.007 C 
ATOM     21  C   UNL     1      33.828 -14.404 -22.353  0.00  0.00    +0.007 C 
BRANCH  19  23
ATOM     22  O   UNL     1      33.067 -12.188 -24.067  0.00  0.00    -0.245 OA
ATOM     23  C   UNL     1      32.972 -13.368 -24.422  0.00  0.00    +0.338 C 
BRANCH  23  24
ATOM     24  O   UNL     1      32.320 -13.730 -25.561  0.00  0.00    -0.477 OA
ATOM     25  H   UNL     1      31.597 -13.220 -25.867  0.00  0.00    +0.295 HD
ENDBRANCH  23  24
ENDBRANCH  19  23
ENDBRANCH   2  16
TORSDOF 4
ENDMDL
MODEL 4
REMARK VINA RESULT:     -11.5      1.506      2.221
REMARK  Name = 5951796
REMARK  4 active torsions:
REMARK  status: ('A' for Active; 'I' for Inactive)
REMARK    1  A    between atoms: C_2  and  C_16
REMARK    2  A    between atoms: C_3  and  C_10
REMARK    3  A    between atoms: C_19  and  C_23
REMARK    4  A    between atoms: C_23  and  O_24
REMARK                            x       y       z     vdW  Elec       q    Type
REMARK                         _______ _______ _______ _____ _____    ______ ____
ROOT
ATOM      1  O   UNL     1      34.184 -17.668 -20.800  0.00  0.00    -0.453 OA
ATOM      2  C   UNL     1      34.483 -18.937 -21.172  0.00  0.00    +0.145 C 
ATOM      3  C   UNL     1      34.545 -16.870 -21.839  0.00  0.00    +0.147 C 
ATOM      4  C   UNL     1      35.029 -18.967 -22.429  0.00  0.00    +0.041 C 
ATOM      5  C   UNL     1      35.070 -17.620 -22.866  0.00  0.00    +0.041 C 
ENDROOT
BRANCH   3  10
ATOM      6  S   UNL     1      33.333 -15.164 -24.335  0.00  0.00    -0.027 S 
ATOM      7  O   UNL     1      34.055 -12.562 -21.656  0.00  0.00    -0.209 OA
ATOM      8  N   UNL     1      33.210 -12.627 -23.813  0.00  0.00    -0.311 NA
ATOM      9  N   UNL     1      32.434 -13.264 -25.980  0.00  0.00    -0.327 N 
ATOM     10  C   UNL     1      34.377 -15.467 -21.802  0.00  0.00    +0.057 C 
ATOM     11  C   UNL     1      33.878 -14.655 -22.792  0.00  0.00    +0.131 C 
ATOM     12  C   UNL     1      33.738 -13.182 -22.662  0.00  0.00    +0.213 C 
ATOM     13  C   UNL     1      32.955 -13.498 -24.742  0.00  0.00    +0.222 C 
ATOM     14  H   UNL     1      32.285 -14.014 -26.600  0.00  0.00    +0.145 HD
ATOM     15  H   UNL     1      32.207 -12.346 -26.253  0.00  0.00    +0.145 HD
ENDBRANCH   3  10
BRANCH   2  16
ATOM     16  C   UNL     1      34.172 -19.951 -20.195  0.00  0.00    +0.035 C 
ATOM     17  C   UNL     1      32.841 -20.261 -19.910  0.00  0.00    +0.003 C 
ATOM     18  C   UNL     1      35.200 -20.622 -19.534  0.00  0.00    +0.003 C 
ATOM     19  C   UNL     1      33.570 -21.914 -18.305  0.00  0.00    +0.075 C 
ATOM     20  C   UNL     1      32.541 -21.242 -18.966  0.00  0.00    +0.007 C 
ATOM     21  C   UNL     1      34.900 -21.604 -18.589  0.00  0.00    +0.007 C 
BRANCH  19  23
ATOM     22  O   UNL     1      34.080 -23.525 -16.611  0.00  0.00    -0.245 OA
ATOM     23  C   UNL     1      33.256 -22.937 -17.321  0.00  0.00    +0.338 C 
BRANCH  23  24
ATOM     24  O   UNL     1      31.922 -23.197 -17.246  0.00  0.00    -0.477 OA
ATOM     25  H   UNL     1      31.333 -22.536 -16.940  0.00  0.00    +0.295 HD
ENDBRANCH  23  24
ENDBRANCH  19  23
ENDBRANCH   2  16
TORSDOF 4
ENDMDL
MODEL 5
REMARK VINA RESULT:     -11.2      6.550     10.413
REMARK  Name = 5951796
REMARK  4 active torsions:
REMARK  status: ('A' for Active; 'I' for Inactive)
REMARK    1  A    between atoms: C_2  and  C_16
REMARK    2  A    between atoms: C_3  and  C_10
REMARK    3  A    between atoms: C_19  and  C_23
REMARK    4  A    between atoms: C_23  and  O_24
REMARK                            x       y       z     vdW  Elec       q    Type
REMARK                         _______ _______ _______ _____ _____    ______ ____
ROOT
ATOM      1  O   UNL     1      34.819 -23.144 -16.481  0.00  0.00    -0.453 OA
ATOM      2  C   UNL     1      33.711 -22.513 -16.943  0.00  0.00    +0.145 C 
ATOM      3  C   UNL     1      34.424 -23.867 -15.400  0.00  0.00    +0.147 C 
ATOM      4  C   UNL     1      32.616 -22.817 -16.179  0.00  0.00    +0.041 C 
ATOM      5  C   UNL     1      33.078 -23.700 -15.173  0.00  0.00    +0.041 C 
ENDROOT
BRANCH   3  10
ATOM      6  S   UNL     1      35.112 -23.305 -12.266  0.00  0.00    -0.027 S 
ATOM      7  O   UNL     1      37.205 -26.348 -13.177  0.00  0.00    -0.209 OA
ATOM      8  N   UNL     1      36.817 -25.015 -11.321  0.00  0.00    -0.311 NA
ATOM      9  N   UNL     1      36.061 -23.362  -9.773  0.00  0.00    -0.327 N 
ATOM     10  C   UNL     1      35.327 -24.661 -14.656  0.00  0.00    +0.057 C 
ATOM     11  C   UNL     1      35.685 -24.513 -13.339  0.00  0.00    +0.131 C 
ATOM     12  C   UNL     1      36.647 -25.402 -12.638  0.00  0.00    +0.213 C 
ATOM     13  C   UNL     1      36.111 -23.977 -10.988  0.00  0.00    +0.222 C 
ATOM     14  H   UNL     1      35.482 -22.576  -9.643  0.00  0.00    +0.145 HD
ATOM     15  H   UNL     1      36.604 -23.703  -9.025  0.00  0.00    +0.145 HD
ENDBRANCH   3  10
BRANCH   2  16
ATOM     16  C   UNL     1      33.920 -21.682 -18.104  0.00  0.00    +0.035 C 
ATOM     17  C   UNL     1      35.216 -21.367 -18.513  0.00  0.00    +0.003 C 
ATOM     18  C   UNL     1      32.826 -21.193 -18.817  0.00  0.00    +0.003 C 
ATOM     19  C   UNL     1      34.323 -20.077 -20.350  0.00  0.00    +0.075 C 
ATOM     20  C   UNL     1      35.417 -20.565 -19.636  0.00  0.00    +0.007 C 
ATOM     21  C   UNL     1      33.027 -20.390 -19.941  0.00  0.00    +0.007 C 
BRANCH  19  23
ATOM     22  O   UNL     1      33.714 -19.058 -22.428  0.00  0.00    -0.245 OA
ATOM     23  C   UNL     1      34.533 -19.240 -21.520  0.00  0.00    +0.338 C 
BRANCH  23  24
ATOM     24  O   UNL     1      35.760 -18.650 -21.526  0.00  0.00    -0.477 OA
ATOM     25  H   UNL     1      36.037 -18.155 -22.271  0.00  0.00    +0.295 HD
ENDBRANCH  23  24
ENDBRANCH  19  23
ENDBRANCH   2  16
TORSDOF 4
ENDMDL
MODEL 6
REMARK VINA RESULT:     -11.1      4.915      8.760
REMARK  Name = 5951796
REMARK  4 active torsions:
REMARK  status: ('A' for Active; 'I' for Inactive)
REMARK    1  A    between atoms: C_2  and  C_16
REMARK    2  A    between atoms: C_3  and  C_10
REMARK    3  A    between atoms: C_19  and  C_23
REMARK    4  A    between atoms: C_23  and  O_24
REMARK                            x       y       z     vdW  Elec       q    Type
REMARK                         _______ _______ _______ _____ _____    ______ ____
ROOT
ATOM      1  O   UNL     1      33.456 -20.382 -19.706  0.00  0.00    -0.453 OA
ATOM      2  C   UNL     1      34.622 -20.018 -20.295  0.00  0.00    +0.145 C 
ATOM      3  C   UNL     1      33.766 -21.358 -18.813  0.00  0.00    +0.147 C 
ATOM      4  C   UNL     1      35.673 -20.743 -19.796  0.00  0.00    +0.041 C 
ATOM      5  C   UNL     1      35.117 -21.617 -18.830  0.00  0.00    +0.041 C 
ENDROOT
BRANCH   3  10
ATOM      6  S   UNL     1      34.360 -22.411 -15.788  0.00  0.00    -0.027 S 
ATOM      7  O   UNL     1      30.702 -23.258 -16.398  0.00  0.00    -0.209 OA
ATOM      8  N   UNL     1      32.264 -23.482 -14.700  0.00  0.00    -0.311 NA
ATOM      9  N   UNL     1      34.222 -23.451 -13.335  0.00  0.00    -0.327 N 
ATOM     10  C   UNL     1      32.784 -21.980 -18.008  0.00  0.00    +0.057 C 
ATOM     11  C   UNL     1      32.927 -22.457 -16.729  0.00  0.00    +0.131 C 
ATOM     12  C   UNL     1      31.832 -23.100 -15.957  0.00  0.00    +0.213 C 
ATOM     13  C   UNL     1      33.511 -23.202 -14.470  0.00  0.00    +0.222 C 
ATOM     14  H   UNL     1      35.170 -23.188 -13.280  0.00  0.00    +0.145 HD
ATOM     15  H   UNL     1      33.789 -23.893 -12.569  0.00  0.00    +0.145 HD
ENDBRANCH   3  10
BRANCH   2  16
ATOM     16  C   UNL     1      34.508 -18.979 -21.289  0.00  0.00    +0.035 C 
ATOM     17  C   UNL     1      33.947 -19.263 -22.534  0.00  0.00    +0.003 C 
ATOM     18  C   UNL     1      34.960 -17.691 -21.005  0.00  0.00    +0.003 C 
ATOM     19  C   UNL     1      34.287 -16.968 -23.210  0.00  0.00    +0.075 C 
ATOM     20  C   UNL     1      33.836 -18.258 -23.494  0.00  0.00    +0.007 C 
ATOM     21  C   UNL     1      34.849 -16.684 -21.966  0.00  0.00    +0.007 C 
BRANCH  19  23
ATOM     22  O   UNL     1      33.537 -16.007 -25.270  0.00  0.00    -0.245 OA
ATOM     23  C   UNL     1      34.171 -15.921 -24.212  0.00  0.00    +0.338 C 
BRANCH  23  24
ATOM     24  O   UNL     1      34.848 -14.792 -23.865  0.00  0.00    -0.477 OA
ATOM     25  H   UNL     1      34.520 -13.953 -24.122  0.00  0.00    +0.295 HD
ENDBRANCH  23  24
ENDBRANCH  19  23
ENDBRANCH   2  16
TORSDOF 4
ENDMDL
MODEL 7
REMARK VINA RESULT:     -10.8      3.525      6.046
REMARK  Name = 5951796
REMARK  4 active torsions:
REMARK  status: ('A' for Active; 'I' for Inactive)
REMARK    1  A    between atoms: C_2  and  C_16
REMARK    2  A    between atoms: C_3  and  C_10
REMARK    3  A    between atoms: C_19  and  C_23
REMARK    4  A    between atoms: C_23  and  O_24
REMARK                            x       y       z     vdW  Elec       q    Type
REMARK                         _______ _______ _______ _____ _____    ______ ____
ROOT
ATOM      1  O   UNL     1      33.502 -13.130 -23.260  0.00  0.00    -0.453 OA
ATOM      2  C   UNL     1      33.470 -14.346 -23.859  0.00  0.00    +0.145 C 
ATOM      3  C   UNL     1      32.985 -12.248 -24.155  0.00  0.00    +0.147 C 
ATOM      4  C   UNL     1      32.943 -14.259 -25.121  0.00  0.00    +0.041 C 
ATOM      5  C   UNL     1      32.626 -12.893 -25.316  0.00  0.00    +0.041 C 
ENDROOT
BRANCH   3  10
ATOM      6  S   UNL     1      31.491 -11.117 -21.490  0.00  0.00    -0.027 S 
ATOM      7  O   UNL     1      32.648  -8.000 -23.337  0.00  0.00    -0.209 OA
ATOM      8  N   UNL     1      31.512  -8.527 -21.387  0.00  0.00    -0.311 NA
ATOM      9  N   UNL     1      30.429  -9.614 -19.558  0.00  0.00    -0.327 N 
ATOM     10  C   UNL     1      32.863 -10.869 -23.868  0.00  0.00    +0.057 C 
ATOM     11  C   UNL     1      32.258 -10.289 -22.781  0.00  0.00    +0.131 C 
ATOM     12  C   UNL     1      32.177  -8.822 -22.563  0.00  0.00    +0.213 C 
ATOM     13  C   UNL     1      31.108  -9.577 -20.739  0.00  0.00    +0.222 C 
ATOM     14  H   UNL     1      30.177 -10.481 -19.163  0.00  0.00    +0.145 HD
ATOM     15  H   UNL     1      30.192  -8.776 -19.100  0.00  0.00    +0.145 HD
ENDBRANCH   3  10
BRANCH   2  16
ATOM     16  C   UNL     1      33.982 -15.434 -23.063  0.00  0.00    +0.035 C 
ATOM     17  C   UNL     1      34.308 -16.648 -23.668  0.00  0.00    +0.003 C 
ATOM     18  C   UNL     1      34.152 -15.273 -21.688  0.00  0.00    +0.003 C 
ATOM     19  C   UNL     1      34.975 -17.538 -21.523  0.00  0.00    +0.075 C 
ATOM     20  C   UNL     1      34.804 -17.700 -22.899  0.00  0.00    +0.007 C 
ATOM     21  C   UNL     1      34.649 -16.325 -20.918  0.00  0.00    +0.007 C 
BRANCH  19  23
ATOM     22  O   UNL     1      34.862 -19.649 -20.400  0.00  0.00    -0.245 OA
ATOM     23  C   UNL     1      35.493 -18.635 -20.721  0.00  0.00    +0.338 C 
BRANCH  23  24
ATOM     24  O   UNL     1      36.785 -18.439 -20.341  0.00  0.00    -0.477 OA
ATOM     25  H   UNL     1      37.476 -18.889 -20.785  0.00  0.00    +0.295 HD
ENDBRANCH  23  24
ENDBRANCH  19  23
ENDBRANCH   2  16
TORSDOF 4
ENDMDL
MODEL 8
REMARK VINA RESULT:     -10.6      6.436     10.064
REMARK  Name = 5951796
REMARK  4 active torsions:
REMARK  status: ('A' for Active; 'I' for Inactive)
REMARK    1  A    between atoms: C_2  and  C_16
REMARK    2  A    between atoms: C_3  and  C_10
REMARK    3  A    between atoms: C_19  and  C_23
REMARK    4  A    between atoms: C_23  and  O_24
REMARK                            x       y       z     vdW  Elec       q    Type
REMARK                         _______ _______ _______ _____ _____    ______ ____
ROOT
ATOM      1  O   UNL     1      34.985 -21.754 -16.393  0.00  0.00    -0.453 OA
ATOM      2  C   UNL     1      34.151 -22.086 -17.409  0.00  0.00    +0.145 C 
ATOM      3  C   UNL     1      34.706 -22.610 -15.375  0.00  0.00    +0.147 C 
ATOM      4  C   UNL     1      33.343 -23.136 -17.061  0.00  0.00    +0.041 C 
ATOM      5  C   UNL     1      33.703 -23.480 -15.736  0.00  0.00    +0.041 C 
ENDROOT
BRANCH   3  10
ATOM      6  S   UNL     1      37.303 -24.460 -14.707  0.00  0.00    -0.027 S 
ATOM      7  O   UNL     1      36.762 -22.394 -11.559  0.00  0.00    -0.209 OA
ATOM      8  N   UNL     1      38.225 -24.021 -12.324  0.00  0.00    -0.311 NA
ATOM      9  N   UNL     1      39.405 -25.666 -13.590  0.00  0.00    -0.327 N 
ATOM     10  C   UNL     1      35.392 -22.557 -14.139  0.00  0.00    +0.057 C 
ATOM     11  C   UNL     1      36.490 -23.288 -13.757  0.00  0.00    +0.131 C 
ATOM     12  C   UNL     1      37.146 -23.164 -12.430  0.00  0.00    +0.213 C 
ATOM     13  C   UNL     1      38.429 -24.737 -13.387  0.00  0.00    +0.222 C 
ATOM     14  H   UNL     1      39.457 -26.146 -14.448  0.00  0.00    +0.145 HD
ATOM     15  H   UNL     1      40.060 -25.855 -12.879  0.00  0.00    +0.145 HD
ENDBRANCH   3  10
BRANCH   2  16
ATOM     16  C   UNL     1      34.290 -21.285 -18.601  0.00  0.00    +0.035 C 
ATOM     17  C   UNL     1      33.155 -20.844 -19.282  0.00  0.00    +0.003 C 
ATOM     18  C   UNL     1      35.559 -20.951 -19.073  0.00  0.00    +0.003 C 
ATOM     19  C   UNL     1      34.559 -19.734 -20.905  0.00  0.00    +0.075 C 
ATOM     20  C   UNL     1      33.289 -20.069 -20.433  0.00  0.00    +0.007 C 
ATOM     21  C   UNL     1      35.694 -20.175 -20.225  0.00  0.00    +0.007 C 
BRANCH  19  23
ATOM     22  O   UNL     1      34.271 -19.226 -23.225  0.00  0.00    -0.245 OA
ATOM     23  C   UNL     1      34.699 -18.926 -22.105  0.00  0.00    +0.338 C 
BRANCH  23  24
ATOM     24  O   UNL     1      35.368 -17.763 -21.876  0.00  0.00    -0.477 OA
ATOM     25  H   UNL     1      36.139 -17.764 -21.345  0.00  0.00    +0.295 HD
ENDBRANCH  23  24
ENDBRANCH  19  23
ENDBRANCH   2  16
TORSDOF 4
ENDMDL
MODEL 9
REMARK VINA RESULT:     -10.6      5.275      8.400
REMARK  Name = 5951796
REMARK  4 active torsions:
REMARK  status: ('A' for Active; 'I' for Inactive)
REMARK    1  A    between atoms: C_2  and  C_16
REMARK    2  A    between atoms: C_3  and  C_10
REMARK    3  A    between atoms: C_19  and  C_23
REMARK    4  A    between atoms: C_23  and  O_24
REMARK                            x       y       z     vdW  Elec       q    Type
REMARK                         _______ _______ _______ _____ _____    ______ ____
ROOT
ATOM      1  O   UNL     1      32.489 -10.813 -22.772  0.00  0.00    -0.453 OA
ATOM      2  C   UNL     1      31.992 -11.740 -21.916  0.00  0.00    +0.145 C 
ATOM      3  C   UNL     1      31.655  -9.743 -22.703  0.00  0.00    +0.147 C 
ATOM      4  C   UNL     1      30.856 -11.284 -21.301  0.00  0.00    +0.041 C 
ATOM      5  C   UNL     1      30.634  -9.982 -21.812  0.00  0.00    +0.041 C 
ENDROOT
BRANCH   3  10
ATOM      6  S   UNL     1      31.613  -6.748 -21.422  0.00  0.00    -0.027 S 
ATOM      7  O   UNL     1      32.313  -6.200 -25.121  0.00  0.00    -0.209 OA
ATOM      8  N   UNL     1      32.048  -4.919 -23.207  0.00  0.00    -0.311 NA
ATOM      9  N   UNL     1      31.699  -4.117 -20.986  0.00  0.00    -0.327 N 
ATOM     10  C   UNL     1      31.866  -8.574 -23.471  0.00  0.00    +0.057 C 
ATOM     11  C   UNL     1      31.870  -7.273 -23.034  0.00  0.00    +0.131 C 
ATOM     12  C   UNL     1      32.102  -6.103 -23.920  0.00  0.00    +0.213 C 
ATOM     13  C   UNL     1      31.811  -5.082 -21.942  0.00  0.00    +0.222 C 
ATOM     14  H   UNL     1      31.517  -4.369 -20.051  0.00  0.00    +0.145 HD
ATOM     15  H   UNL     1      31.802  -3.168 -21.230  0.00  0.00    +0.145 HD
ENDBRANCH   3  10
BRANCH   2  16
ATOM     16  C   UNL     1      32.744 -12.969 -21.841  0.00  0.00    +0.035 C 
ATOM     17  C   UNL     1      32.934 -13.596 -20.609  0.00  0.00    +0.003 C 
ATOM     18  C   UNL     1      33.280 -13.530 -22.999  0.00  0.00    +0.003 C 
ATOM     19  C   UNL     1      34.196 -15.347 -21.696  0.00  0.00    +0.075 C 
ATOM     20  C   UNL     1      33.660 -14.784 -20.536  0.00  0.00    +0.007 C 
ATOM     21  C   UNL     1      34.007 -14.720 -22.927  0.00  0.00    +0.007 C 
BRANCH  19  23
ATOM     22  O   UNL     1      35.255 -17.179 -20.578  0.00  0.00    -0.245 OA
ATOM     23  C   UNL     1      34.953 -16.586 -21.620  0.00  0.00    +0.338 C 
BRANCH  23  24
ATOM     24  O   UNL     1      35.312 -17.053 -22.847  0.00  0.00    -0.477 OA
ATOM     25  H   UNL     1      34.877 -17.800 -23.208  0.00  0.00    +0.295 HD
ENDBRANCH  23  24
ENDBRANCH  19  23
ENDBRANCH   2  16
TORSDOF 4
ENDMDL
