MODEL 1
REMARK VINA RESULT:     -10.7      0.000      0.000
REMARK  Name = 11582002
REMARK  12 active torsions:
REMARK  status: ('A' for Active; 'I' for Inactive)
REMARK    1  A    between atoms: N_2  and  C_7
REMARK    2  A    between atoms: N_2  and  O_20
REMARK    3  A    between atoms: C_3  and  O_16
REMARK    4  A    between atoms: C_4  and  O_18
REMARK    5  A    between atoms: C_5  and  N_9
REMARK    6  A    between atoms: C_6  and  C_31
REMARK    7  A    between atoms: C_10  and  C_12
REMARK    8  A    between atoms: C_12  and  C_13
REMARK    9  A    between atoms: C_13  and  C_14
REMARK   10  A    between atoms: O_20  and  C_23
REMARK   11  A    between atoms: N_22  and  C_25
REMARK   12  A    between atoms: C_31  and  O_32
REMARK                            x       y       z     vdW  Elec       q    Type
REMARK                         _______ _______ _______ _____ _____    ______ ____
ROOT
ATOM      1  O   UNL     1      37.027 -22.870 -13.251  0.00  0.00    -0.333 OA
ATOM      2  C   UNL     1      36.000 -25.262 -14.553  0.00  0.00    +0.161 C 
ATOM      3  C   UNL     1      36.859 -25.283 -13.286  0.00  0.00    +0.169 C 
ATOM      4  C   UNL     1      35.795 -23.861 -15.131  0.00  0.00    +0.149 C 
ATOM      5  C   UNL     1      36.620 -24.016 -12.472  0.00  0.00    +0.175 C 
ATOM      6  C   UNL     1      36.702 -22.810 -14.555  0.00  0.00    +0.251 C 
ENDROOT
BRANCH   4   8
ATOM      7  O   UNL     1      33.749 -23.296 -17.089  0.00  0.00    -0.275 OA
ATOM      8  N   UNL     1      34.464 -23.364 -14.879  0.00  0.00    -0.300 N 
ATOM      9  C   UNL     1      33.545 -23.120 -15.890  0.00  0.00    +0.223 C 
ATOM     10  H   UNL     1      34.196 -23.189 -13.948  0.00  0.00    +0.150 HD
BRANCH   9  11
ATOM     11  C   UNL     1      32.228 -22.604 -15.337  0.00  0.00    +0.085 C 
BRANCH  11  12
ATOM     12  C   UNL     1      31.132 -22.544 -16.399  0.00  0.00    +0.010 C 
BRANCH  12  13
ATOM     13  C   UNL     1      29.744 -22.473 -15.764  0.00  0.00    +0.001 C 
ATOM     14  C   UNL     1      29.813 -22.646 -14.255  0.00  0.00    +0.000 C 
ENDBRANCH  12  13
ENDBRANCH  11  12
ENDBRANCH   9  11
ENDBRANCH   4   8
BRANCH   2  15
ATOM     15  O   UNL     1      36.649 -26.087 -15.525  0.00  0.00    -0.380 OA
ATOM     16  H   UNL     1      37.369 -26.580 -15.103  0.00  0.00    +0.211 HD
ENDBRANCH   2  15
BRANCH   3  17
ATOM     17  O   UNL     1      36.521 -26.449 -12.542  0.00  0.00    -0.379 OA
ATOM     18  H   UNL     1      37.270 -27.066 -12.548  0.00  0.00    +0.211 HD
ENDBRANCH   3  17
BRANCH   6  19
ATOM     19  N   UNL     1      37.147 -21.836 -15.278  0.00  0.00    +0.008 NA
BRANCH  19  20
ATOM     20  O   UNL     1      37.023 -22.196 -16.626  0.00  0.00    -0.330 OA
BRANCH  20  23
ATOM     21  O   UNL     1      36.914 -19.952 -17.093  0.00  0.00    -0.224 OA
ATOM     22  N   UNL     1      35.749 -21.548 -18.345  0.00  0.00    -0.249 N 
ATOM     23  C   UNL     1      36.588 -21.108 -17.339  0.00  0.00    +0.425 C 
ATOM     24  H   UNL     1      35.603 -22.521 -18.389  0.00  0.00    +0.158 HD
BRANCH  22  25
ATOM     25  C   UNL     1      35.075 -20.777 -19.319  0.00  0.00    +0.053 C 
ATOM     26  C   UNL     1      33.687 -20.860 -19.437  0.00  0.00    +0.015 C 
ATOM     27  C   UNL     1      35.797 -19.931 -20.160  0.00  0.00    +0.015 C 
ATOM     28  C   UNL     1      33.023 -20.098 -20.398  0.00  0.00    +0.001 C 
ATOM     29  C   UNL     1      35.132 -19.169 -21.122  0.00  0.00    +0.001 C 
ATOM     30  C   UNL     1      33.745 -19.253 -21.240  0.00  0.00    +0.000 C 
ENDBRANCH  22  25
ENDBRANCH  20  23
ENDBRANCH  19  20
ENDBRANCH   6  19
BRANCH   5  31
ATOM     31  C   UNL     1      37.430 -23.982 -11.181  0.00  0.00    +0.169 C 
BRANCH  31  32
ATOM     32  O   UNL     1      36.536 -23.874 -10.088  0.00  0.00    -0.379 OA
ATOM     33  H   UNL     1      36.581 -24.681  -9.551  0.00  0.00    +0.211 HD
ENDBRANCH  31  32
ENDBRANCH   5  31
TORSDOF 12
ENDMDL
MODEL 2
REMARK VINA RESULT:      -9.6      1.439      1.814
REMARK  Name = 11582002
REMARK  12 active torsions:
REMARK  status: ('A' for Active; 'I' for Inactive)
REMARK    1  A    between atoms: N_2  and  C_7
REMARK    2  A    between atoms: N_2  and  O_20
REMARK    3  A    between atoms: C_3  and  O_16
REMARK    4  A    between atoms: C_4  and  O_18
REMARK    5  A    between atoms: C_5  and  N_9
REMARK    6  A    between atoms: C_6  and  C_31
REMARK    7  A    between atoms: C_10  and  C_12
REMARK    8  A    between atoms: C_12  and  C_13
REMARK    9  A    between atoms: C_13  and  C_14
REMARK   10  A    between atoms: O_20  and  C_23
REMARK   11  A    between atoms: N_22  and  C_25
REMARK   12  A    between atoms: C_31  and  O_32
REMARK                            x       y       z     vdW  Elec       q    Type
REMARK                         _______ _______ _______ _____ _____    ______ ____
ROOT
ATOM      1  O   UNL     1      35.944 -22.079 -14.037  0.00  0.00    -0.333 OA
ATOM      2  C   UNL     1      34.887 -24.731 -14.604  0.00  0.00    +0.161 C 
ATOM      3  C   UNL     1      36.033 -24.461 -13.627  0.00  0.00    +0.169 C 
ATOM      4  C   UNL     1      34.393 -23.478 -15.331  0.00  0.00    +0.149 C 
ATOM      5  C   UNL     1      35.871 -23.081 -12.999  0.00  0.00    +0.175 C 
ATOM      6  C   UNL     1      35.297 -22.284 -15.199  0.00  0.00    +0.251 C 
ENDROOT
BRANCH   4   8
ATOM      7  O   UNL     1      32.014 -22.887 -16.856  0.00  0.00    -0.275 OA
ATOM      8  N   UNL     1      33.123 -23.024 -14.819  0.00  0.00    -0.300 N 
ATOM      9  C   UNL     1      32.031 -22.764 -15.634  0.00  0.00    +0.223 C 
ATOM     10  H   UNL     1      33.027 -22.892 -13.848  0.00  0.00    +0.150 HD
BRANCH   9  11
ATOM     11  C   UNL     1      30.828 -22.303 -14.829  0.00  0.00    +0.085 C 
BRANCH  11  12
ATOM     12  C   UNL     1      29.646 -23.262 -14.944  0.00  0.00    +0.010 C 
BRANCH  12  13
ATOM     13  C   UNL     1      29.971 -24.623 -14.331  0.00  0.00    +0.001 C 
ATOM     14  C   UNL     1      30.166 -24.525 -12.826  0.00  0.00    +0.000 C 
ENDBRANCH  12  13
ENDBRANCH  11  12
ENDBRANCH   9  11
ENDBRANCH   4   8
BRANCH   2  15
ATOM     15  O   UNL     1      35.356 -25.683 -15.564  0.00  0.00    -0.380 OA
ATOM     16  H   UNL     1      36.315 -25.793 -15.470  0.00  0.00    +0.211 HD
ENDBRANCH   2  15
BRANCH   3  17
ATOM     17  O   UNL     1      36.020 -25.485 -12.637  0.00  0.00    -0.379 OA
ATOM     18  H   UNL     1      35.115 -25.817 -12.526  0.00  0.00    +0.211 HD
ENDBRANCH   3  17
BRANCH   6  19
ATOM     19  N   UNL     1      35.439 -21.438 -16.165  0.00  0.00    +0.008 NA
BRANCH  19  20
ATOM     20  O   UNL     1      35.967 -22.117 -17.270  0.00  0.00    -0.330 OA
BRANCH  20  23
ATOM     21  O   UNL     1      34.344 -22.299 -18.883  0.00  0.00    -0.224 OA
ATOM     22  N   UNL     1      35.904 -20.555 -18.868  0.00  0.00    -0.249 N 
ATOM     23  C   UNL     1      35.305 -21.709 -18.400  0.00  0.00    +0.425 C 
ATOM     24  H   UNL     1      36.670 -20.225 -18.345  0.00  0.00    +0.158 HD
BRANCH  22  25
ATOM     25  C   UNL     1      35.554 -19.789 -20.003  0.00  0.00    +0.053 C 
ATOM     26  C   UNL     1      34.276 -19.899 -20.552  0.00  0.00    +0.015 C 
ATOM     27  C   UNL     1      36.486 -18.922 -20.575  0.00  0.00    +0.015 C 
ATOM     28  C   UNL     1      33.931 -19.142 -21.672  0.00  0.00    +0.001 C 
ATOM     29  C   UNL     1      36.141 -18.166 -21.695  0.00  0.00    +0.001 C 
ATOM     30  C   UNL     1      34.863 -18.276 -22.243  0.00  0.00    +0.000 C 
ENDBRANCH  22  25
ENDBRANCH  20  23
ENDBRANCH  19  20
ENDBRANCH   6  19
BRANCH   5  31
ATOM     31  C   UNL     1      36.971 -22.756 -11.994  0.00  0.00    +0.169 C 
BRANCH  31  32
ATOM     32  O   UNL     1      38.126 -23.504 -12.331  0.00  0.00    -0.379 OA
ATOM     33  H   UNL     1      38.753 -22.935 -12.806  0.00  0.00    +0.211 HD
ENDBRANCH  31  32
ENDBRANCH   5  31
TORSDOF 12
ENDMDL
MODEL 3
REMARK VINA RESULT:      -9.6      2.102      3.563
REMARK  Name = 11582002
REMARK  12 active torsions:
REMARK  status: ('A' for Active; 'I' for Inactive)
REMARK    1  A    between atoms: N_2  and  C_7
REMARK    2  A    between atoms: N_2  and  O_20
REMARK    3  A    between atoms: C_3  and  O_16
REMARK    4  A    between atoms: C_4  and  O_18
REMARK    5  A    between atoms: C_5  and  N_9
REMARK    6  A    between atoms: C_6  and  C_31
REMARK    7  A    between atoms: C_10  and  C_12
REMARK    8  A    between atoms: C_12  and  C_13
REMARK    9  A    between atoms: C_13  and  C_14
REMARK   10  A    between atoms: O_20  and  C_23
REMARK   11  A    between atoms: N_22  and  C_25
REMARK   12  A    between atoms: C_31  and  O_32
REMARK                            x       y       z     vdW  Elec       q    Type
REMARK                         _______ _______ _______ _____ _____    ______ ____
ROOT
ATOM      1  O   UNL     1      35.277 -21.855 -17.079  0.00  0.00    -0.333 OA
ATOM      2  C   UNL     1      34.930 -23.954 -15.093  0.00  0.00    +0.161 C 
ATOM      3  C   UNL     1      36.251 -23.221 -15.337  0.00  0.00    +0.169 C 
ATOM      4  C   UNL     1      33.814 -23.541 -16.054  0.00  0.00    +0.149 C 
ATOM      5  C   UNL     1      35.979 -21.800 -15.819  0.00  0.00    +0.175 C 
ATOM      6  C   UNL     1      34.276 -22.739 -17.239  0.00  0.00    +0.251 C 
ENDROOT
BRANCH   4   8
ATOM      7  O   UNL     1      31.703 -24.377 -14.270  0.00  0.00    -0.275 OA
ATOM      8  N   UNL     1      32.834 -22.699 -15.411  0.00  0.00    -0.300 N 
ATOM      9  C   UNL     1      31.852 -23.194 -14.565  0.00  0.00    +0.223 C 
ATOM     10  H   UNL     1      32.864 -21.730 -15.580  0.00  0.00    +0.150 HD
BRANCH   9  11
ATOM     11  C   UNL     1      30.962 -22.085 -14.031  0.00  0.00    +0.085 C 
BRANCH  11  12
ATOM     12  C   UNL     1      29.480 -22.357 -14.276  0.00  0.00    +0.010 C 
BRANCH  12  13
ATOM     13  C   UNL     1      29.180 -22.506 -15.768  0.00  0.00    +0.001 C 
ATOM     14  C   UNL     1      28.232 -23.665 -16.032  0.00  0.00    +0.000 C 
ENDBRANCH  12  13
ENDBRANCH  11  12
ENDBRANCH   9  11
ENDBRANCH   4   8
BRANCH   2  15
ATOM     15  O   UNL     1      35.184 -25.355 -15.234  0.00  0.00    -0.380 OA
ATOM     16  H   UNL     1      35.847 -25.631 -14.583  0.00  0.00    +0.211 HD
ENDBRANCH   2  15
BRANCH   3  17
ATOM     17  O   UNL     1      36.989 -23.223 -14.119  0.00  0.00    -0.379 OA
ATOM     18  H   UNL     1      37.600 -23.977 -14.112  0.00  0.00    +0.211 HD
ENDBRANCH   3  17
BRANCH   6  19
ATOM     19  N   UNL     1      33.710 -22.860 -18.394  0.00  0.00    +0.008 NA
BRANCH  19  20
ATOM     20  O   UNL     1      32.509 -22.140 -18.373  0.00  0.00    -0.330 OA
BRANCH  20  23
ATOM     21  O   UNL     1      31.736 -20.237 -19.396  0.00  0.00    -0.224 OA
ATOM     22  N   UNL     1      33.953 -20.957 -19.603  0.00  0.00    -0.249 N 
ATOM     23  C   UNL     1      32.647 -21.022 -19.157  0.00  0.00    +0.425 C 
ATOM     24  H   UNL     1      34.547 -21.683 -19.305  0.00  0.00    +0.158 HD
BRANCH  22  25
ATOM     25  C   UNL     1      34.542 -19.977 -20.434  0.00  0.00    +0.053 C 
ATOM     26  C   UNL     1      35.853 -19.560 -20.200  0.00  0.00    +0.015 C 
ATOM     27  C   UNL     1      33.814 -19.426 -21.489  0.00  0.00    +0.015 C 
ATOM     28  C   UNL     1      36.434 -18.593 -21.020  0.00  0.00    +0.001 C 
ATOM     29  C   UNL     1      34.395 -18.459 -22.309  0.00  0.00    +0.001 C 
ATOM     30  C   UNL     1      35.705 -18.043 -22.075  0.00  0.00    +0.000 C 
ENDBRANCH  22  25
ENDBRANCH  20  23
ENDBRANCH  19  20
ENDBRANCH   6  19
BRANCH   5  31
ATOM     31  C   UNL     1      37.257 -21.003 -16.060  0.00  0.00    +0.169 C 
BRANCH  31  32
ATOM     32  O   UNL     1      36.955 -19.909 -16.907  0.00  0.00    -0.379 OA
ATOM     33  H   UNL     1      36.640 -19.163 -16.372  0.00  0.00    +0.211 HD
ENDBRANCH  31  32
ENDBRANCH   5  31
TORSDOF 12
ENDMDL
MODEL 4
REMARK VINA RESULT:      -9.5      2.556      5.253
REMARK  Name = 11582002
REMARK  12 active torsions:
REMARK  status: ('A' for Active; 'I' for Inactive)
REMARK    1  A    between atoms: N_2  and  C_7
REMARK    2  A    between atoms: N_2  and  O_20
REMARK    3  A    between atoms: C_3  and  O_16
REMARK    4  A    between atoms: C_4  and  O_18
REMARK    5  A    between atoms: C_5  and  N_9
REMARK    6  A    between atoms: C_6  and  C_31
REMARK    7  A    between atoms: C_10  and  C_12
REMARK    8  A    between atoms: C_12  and  C_13
REMARK    9  A    between atoms: C_13  and  C_14
REMARK   10  A    between atoms: O_20  and  C_23
REMARK   11  A    between atoms: N_22  and  C_25
REMARK   12  A    between atoms: C_31  and  O_32
REMARK                            x       y       z     vdW  Elec       q    Type
REMARK                         _______ _______ _______ _____ _____    ______ ____
ROOT
ATOM      1  O   UNL     1      30.732 -23.856 -15.733  0.00  0.00    -0.333 OA
ATOM      2  C   UNL     1      31.857 -23.476 -13.076  0.00  0.00    +0.161 C 
ATOM      3  C   UNL     1      30.384 -23.792 -13.340  0.00  0.00    +0.169 C 
ATOM      4  C   UNL     1      32.683 -23.292 -14.351  0.00  0.00    +0.149 C 
ATOM      5  C   UNL     1      30.247 -24.624 -14.611  0.00  0.00    +0.175 C 
ATOM      6  C   UNL     1      31.868 -23.146 -15.606  0.00  0.00    +0.251 C 
ENDROOT
BRANCH   4   8
ATOM      7  O   UNL     1      35.570 -23.331 -14.345  0.00  0.00    -0.275 OA
ATOM      8  N   UNL     1      33.537 -24.426 -14.608  0.00  0.00    -0.300 N 
ATOM      9  C   UNL     1      34.923 -24.347 -14.583  0.00  0.00    +0.223 C 
ATOM     10  H   UNL     1      33.119 -25.293 -14.811  0.00  0.00    +0.150 HD
BRANCH   9  11
ATOM     11  C   UNL     1      35.565 -25.690 -14.888  0.00  0.00    +0.085 C 
BRANCH  11  12
ATOM     12  C   UNL     1      36.979 -25.802 -14.324  0.00  0.00    +0.010 C 
BRANCH  12  13
ATOM     13  C   UNL     1      36.959 -26.106 -12.827  0.00  0.00    +0.001 C 
ATOM     14  C   UNL     1      37.608 -24.991 -12.023  0.00  0.00    +0.000 C 
ENDBRANCH  12  13
ENDBRANCH  11  12
ENDBRANCH   9  11
ENDBRANCH   4   8
BRANCH   2  15
ATOM     15  O   UNL     1      31.907 -22.274 -12.301  0.00  0.00    -0.380 OA
ATOM     16  H   UNL     1      32.307 -21.565 -12.827  0.00  0.00    +0.211 HD
ENDBRANCH   2  15
BRANCH   3  17
ATOM     17  O   UNL     1      29.871 -24.486 -12.208  0.00  0.00    -0.379 OA
ATOM     18  H   UNL     1      30.589 -24.651 -11.577  0.00  0.00    +0.211 HD
ENDBRANCH   3  17
BRANCH   6  19
ATOM     19  N   UNL     1      32.253 -22.381 -16.573  0.00  0.00    +0.008 NA
BRANCH  19  20
ATOM     20  O   UNL     1      33.192 -23.081 -17.341  0.00  0.00    -0.330 OA
BRANCH  20  23
ATOM     21  O   UNL     1      35.233 -22.036 -17.273  0.00  0.00    -0.224 OA
ATOM     22  N   UNL     1      33.639 -21.563 -18.919  0.00  0.00    -0.249 N 
ATOM     23  C   UNL     1      34.138 -22.200 -17.799  0.00  0.00    +0.425 C 
ATOM     24  H   UNL     1      32.732 -21.827 -19.197  0.00  0.00    +0.158 HD
BRANCH  22  25
ATOM     25  C   UNL     1      34.268 -20.580 -19.716  0.00  0.00    +0.053 C 
ATOM     26  C   UNL     1      33.506 -19.776 -20.564  0.00  0.00    +0.015 C 
ATOM     27  C   UNL     1      35.652 -20.413 -19.654  0.00  0.00    +0.015 C 
ATOM     28  C   UNL     1      34.128 -18.806 -21.350  0.00  0.00    +0.001 C 
ATOM     29  C   UNL     1      36.274 -19.443 -20.440  0.00  0.00    +0.001 C 
ATOM     30  C   UNL     1      35.512 -18.639 -21.288  0.00  0.00    +0.000 C 
ENDBRANCH  22  25
ENDBRANCH  20  23
ENDBRANCH  19  20
ENDBRANCH   6  19
BRANCH   5  31
ATOM     31  C   UNL     1      28.800 -24.995 -14.921  0.00  0.00    +0.169 C 
BRANCH  31  32
ATOM     32  O   UNL     1      28.351 -25.917 -13.945  0.00  0.00    -0.379 OA
ATOM     33  H   UNL     1      28.742 -25.696 -13.085  0.00  0.00    +0.211 HD
ENDBRANCH  31  32
ENDBRANCH   5  31
TORSDOF 12
ENDMDL
MODEL 5
REMARK VINA RESULT:      -8.8      1.790      4.839
REMARK  Name = 11582002
REMARK  12 active torsions:
REMARK  status: ('A' for Active; 'I' for Inactive)
REMARK    1  A    between atoms: N_2  and  C_7
REMARK    2  A    between atoms: N_2  and  O_20
REMARK    3  A    between atoms: C_3  and  O_16
REMARK    4  A    between atoms: C_4  and  O_18
REMARK    5  A    between atoms: C_5  and  N_9
REMARK    6  A    between atoms: C_6  and  C_31
REMARK    7  A    between atoms: C_10  and  C_12
REMARK    8  A    between atoms: C_12  and  C_13
REMARK    9  A    between atoms: C_13  and  C_14
REMARK   10  A    between atoms: O_20  and  C_23
REMARK   11  A    between atoms: N_22  and  C_25
REMARK   12  A    between atoms: C_31  and  O_32
REMARK                            x       y       z     vdW  Elec       q    Type
REMARK                         _______ _______ _______ _____ _____    ______ ____
ROOT
ATOM      1  O   UNL     1      34.267 -22.643 -15.906  0.00  0.00    -0.333 OA
ATOM      2  C   UNL     1      33.536 -23.642 -13.272  0.00  0.00    +0.161 C 
ATOM      3  C   UNL     1      32.520 -23.238 -14.342  0.00  0.00    +0.169 C 
ATOM      4  C   UNL     1      34.989 -23.393 -13.681  0.00  0.00    +0.149 C 
ATOM      5  C   UNL     1      33.102 -23.477 -15.732  0.00  0.00    +0.175 C 
ATOM      6  C   UNL     1      35.154 -22.530 -14.900  0.00  0.00    +0.251 C 
ENDROOT
BRANCH   4   8
ATOM      7  O   UNL     1      36.236 -25.242 -11.847  0.00  0.00    -0.275 OA
ATOM      8  N   UNL     1      35.672 -24.619 -14.014  0.00  0.00    -0.300 N 
ATOM      9  C   UNL     1      36.244 -25.447 -13.058  0.00  0.00    +0.223 C 
ATOM     10  H   UNL     1      35.737 -24.879 -14.961  0.00  0.00    +0.150 HD
BRANCH   9  11
ATOM     11  C   UNL     1      36.893 -26.666 -13.690  0.00  0.00    +0.085 C 
BRANCH  11  12
ATOM     12  C   UNL     1      37.969 -26.293 -14.708  0.00  0.00    +0.010 C 
BRANCH  12  13
ATOM     13  C   UNL     1      39.227 -25.766 -14.021  0.00  0.00    +0.001 C 
ATOM     14  C   UNL     1      39.821 -24.586 -14.774  0.00  0.00    +0.000 C 
ENDBRANCH  12  13
ENDBRANCH  11  12
ENDBRANCH   9  11
ENDBRANCH   4   8
BRANCH   2  15
ATOM     15  O   UNL     1      33.238 -22.888 -12.092  0.00  0.00    -0.380 OA
ATOM     16  H   UNL     1      33.429 -21.951 -12.250  0.00  0.00    +0.211 HD
ENDBRANCH   2  15
BRANCH   3  17
ATOM     17  O   UNL     1      31.335 -24.001 -14.138  0.00  0.00    -0.379 OA
ATOM     18  H   UNL     1      30.868 -24.106 -14.983  0.00  0.00    +0.211 HD
ENDBRANCH   3  17
BRANCH   6  19
ATOM     19  N   UNL     1      36.146 -21.710 -15.015  0.00  0.00    +0.008 NA
BRANCH  19  20
ATOM     20  O   UNL     1      36.811 -21.988 -16.215  0.00  0.00    -0.330 OA
BRANCH  20  23
ATOM     21  O   UNL     1      37.090 -19.860 -17.026  0.00  0.00    -0.224 OA
ATOM     22  N   UNL     1      35.681 -21.418 -18.057  0.00  0.00    -0.249 N 
ATOM     23  C   UNL     1      36.574 -20.970 -17.103  0.00  0.00    +0.425 C 
ATOM     24  H   UNL     1      35.373 -22.347 -17.956  0.00  0.00    +0.158 HD
BRANCH  22  25
ATOM     25  C   UNL     1      35.157 -20.709 -19.162  0.00  0.00    +0.053 C 
ATOM     26  C   UNL     1      33.803 -20.818 -19.482  0.00  0.00    +0.015 C 
ATOM     27  C   UNL     1      35.992 -19.899 -19.931  0.00  0.00    +0.015 C 
ATOM     28  C   UNL     1      33.286 -20.118 -20.572  0.00  0.00    +0.001 C 
ATOM     29  C   UNL     1      35.475 -19.198 -21.021  0.00  0.00    +0.001 C 
ATOM     30  C   UNL     1      34.122 -19.308 -21.341  0.00  0.00    +0.000 C 
ENDBRANCH  22  25
ENDBRANCH  20  23
ENDBRANCH  19  20
ENDBRANCH   6  19
BRANCH   5  31
ATOM     31  C   UNL     1      32.129 -23.116 -16.849  0.00  0.00    +0.169 C 
BRANCH  31  32
ATOM     32  O   UNL     1      31.064 -22.364 -16.296  0.00  0.00    -0.379 OA
ATOM     33  H   UNL     1      30.272 -22.472 -16.846  0.00  0.00    +0.211 HD
ENDBRANCH  31  32
ENDBRANCH   5  31
TORSDOF 12
ENDMDL
MODEL 6
REMARK VINA RESULT:      -8.8      2.141      5.750
REMARK  Name = 11582002
REMARK  12 active torsions:
REMARK  status: ('A' for Active; 'I' for Inactive)
REMARK    1  A    between atoms: N_2  and  C_7
REMARK    2  A    between atoms: N_2  and  O_20
REMARK    3  A    between atoms: C_3  and  O_16
REMARK    4  A    between atoms: C_4  and  O_18
REMARK    5  A    between atoms: C_5  and  N_9
REMARK    6  A    between atoms: C_6  and  C_31
REMARK    7  A    between atoms: C_10  and  C_12
REMARK    8  A    between atoms: C_12  and  C_13
REMARK    9  A    between atoms: C_13  and  C_14
REMARK   10  A    between atoms: O_20  and  C_23
REMARK   11  A    between atoms: N_22  and  C_25
REMARK   12  A    between atoms: C_31  and  O_32
REMARK                            x       y       z     vdW  Elec       q    Type
REMARK                         _______ _______ _______ _____ _____    ______ ____
ROOT
ATOM      1  O   UNL     1      35.281 -25.238 -14.593  0.00  0.00    -0.333 OA
ATOM      2  C   UNL     1      36.320 -22.776 -13.442  0.00  0.00    +0.161 C 
ATOM      3  C   UNL     1      36.949 -24.153 -13.219  0.00  0.00    +0.169 C 
ATOM      4  C   UNL     1      35.032 -22.816 -14.265  0.00  0.00    +0.149 C 
ATOM      5  C   UNL     1      36.702 -25.043 -14.432  0.00  0.00    +0.175 C 
ATOM      6  C   UNL     1      34.450 -24.191 -14.445  0.00  0.00    +0.251 C 
ENDROOT
BRANCH   4   8
ATOM      7  O   UNL     1      37.365 -21.460 -15.291  0.00  0.00    -0.275 OA
ATOM      8  N   UNL     1      35.236 -22.336 -15.610  0.00  0.00    -0.300 N 
ATOM      9  C   UNL     1      36.398 -21.691 -16.012  0.00  0.00    +0.223 C 
ATOM     10  H   UNL     1      34.520 -22.471 -16.272  0.00  0.00    +0.150 HD
BRANCH   9  11
ATOM     11  C   UNL     1      36.341 -21.297 -17.478  0.00  0.00    +0.085 C 
BRANCH  11  12
ATOM     12  C   UNL     1      35.002 -21.645 -18.124  0.00  0.00    +0.010 C 
BRANCH  12  13
ATOM     13  C   UNL     1      34.905 -21.082 -19.542  0.00  0.00    +0.001 C 
ATOM     14  C   UNL     1      33.532 -20.485 -19.811  0.00  0.00    +0.000 C 
ENDBRANCH  12  13
ENDBRANCH  11  12
ENDBRANCH   9  11
ENDBRANCH   4   8
BRANCH   2  15
ATOM     15  O   UNL     1      36.044 -22.216 -12.154  0.00  0.00    -0.380 OA
ATOM     16  H   UNL     1      35.184 -21.770 -12.173  0.00  0.00    +0.211 HD
ENDBRANCH   2  15
BRANCH   3  17
ATOM     17  O   UNL     1      38.342 -23.970 -12.985  0.00  0.00    -0.379 OA
ATOM     18  H   UNL     1      38.838 -24.688 -13.409  0.00  0.00    +0.211 HD
ENDBRANCH   3  17
BRANCH   6  19
ATOM     19  N   UNL     1      33.172 -24.379 -14.491  0.00  0.00    +0.008 NA
BRANCH  19  20
ATOM     20  O   UNL     1      32.652 -24.181 -13.206  0.00  0.00    -0.330 OA
BRANCH  20  23
ATOM     21  O   UNL     1      30.513 -24.323 -12.385  0.00  0.00    -0.224 OA
ATOM     22  N   UNL     1      30.976 -23.558 -14.548  0.00  0.00    -0.249 N 
ATOM     23  C   UNL     1      31.289 -24.046 -13.293  0.00  0.00    +0.425 C 
ATOM     24  H   UNL     1      31.738 -23.393 -15.149  0.00  0.00    +0.158 HD
BRANCH  22  25
ATOM     25  C   UNL     1      29.697 -23.266 -15.075  0.00  0.00    +0.053 C 
ATOM     26  C   UNL     1      29.047 -24.198 -15.886  0.00  0.00    +0.015 C 
ATOM     27  C   UNL     1      29.085 -22.047 -14.784  0.00  0.00    +0.015 C 
ATOM     28  C   UNL     1      27.785 -23.909 -16.405  0.00  0.00    +0.001 C 
ATOM     29  C   UNL     1      27.823 -21.758 -15.304  0.00  0.00    +0.001 C 
ATOM     30  C   UNL     1      27.174 -22.690 -16.114  0.00  0.00    +0.000 C 
ENDBRANCH  22  25
ENDBRANCH  20  23
ENDBRANCH  19  20
ENDBRANCH   6  19
BRANCH   5  31
ATOM     31  C   UNL     1      37.325 -26.427 -14.286  0.00  0.00    +0.169 C 
BRANCH  31  32
ATOM     32  O   UNL     1      38.728 -26.310 -14.434  0.00  0.00    -0.379 OA
ATOM     33  H   UNL     1      38.953 -25.398 -14.675  0.00  0.00    +0.211 HD
ENDBRANCH  31  32
ENDBRANCH   5  31
TORSDOF 12
ENDMDL
MODEL 7
REMARK VINA RESULT:      -8.5      3.159      7.708
REMARK  Name = 11582002
REMARK  12 active torsions:
REMARK  status: ('A' for Active; 'I' for Inactive)
REMARK    1  A    between atoms: N_2  and  C_7
REMARK    2  A    between atoms: N_2  and  O_20
REMARK    3  A    between atoms: C_3  and  O_16
REMARK    4  A    between atoms: C_4  and  O_18
REMARK    5  A    between atoms: C_5  and  N_9
REMARK    6  A    between atoms: C_6  and  C_31
REMARK    7  A    between atoms: C_10  and  C_12
REMARK    8  A    between atoms: C_12  and  C_13
REMARK    9  A    between atoms: C_13  and  C_14
REMARK   10  A    between atoms: O_20  and  C_23
REMARK   11  A    between atoms: N_22  and  C_25
REMARK   12  A    between atoms: C_31  and  O_32
REMARK                            x       y       z     vdW  Elec       q    Type
REMARK                         _______ _______ _______ _____ _____    ______ ____
ROOT
ATOM      1  O   UNL     1      28.790 -21.833 -14.791  0.00  0.00    -0.333 OA
ATOM      2  C   UNL     1      29.399 -24.197 -16.376  0.00  0.00    +0.161 C 
ATOM      3  C   UNL     1      27.981 -23.771 -15.991  0.00  0.00    +0.169 C 
ATOM      4  C   UNL     1      30.490 -23.307 -15.777  0.00  0.00    +0.149 C 
ATOM      5  C   UNL     1      27.909 -22.254 -15.855  0.00  0.00    +0.175 C 
ATOM      6  C   UNL     1      30.014 -22.383 -14.691  0.00  0.00    +0.251 C 
ENDROOT
BRANCH   4   8
ATOM      7  O   UNL     1      33.096 -23.550 -16.997  0.00  0.00    -0.275 OA
ATOM      8  N   UNL     1      31.072 -22.431 -16.764  0.00  0.00    -0.300 N 
ATOM      9  C   UNL     1      32.339 -22.629 -17.295  0.00  0.00    +0.223 C 
ATOM     10  H   UNL     1      30.548 -21.658 -17.074  0.00  0.00    +0.150 HD
BRANCH   9  11
ATOM     11  C   UNL     1      32.694 -21.558 -18.312  0.00  0.00    +0.085 C 
BRANCH  11  12
ATOM     12  C   UNL     1      33.824 -21.988 -19.243  0.00  0.00    +0.010 C 
BRANCH  12  13
ATOM     13  C   UNL     1      34.979 -20.988 -19.217  0.00  0.00    +0.001 C 
ATOM     14  C   UNL     1      35.963 -21.303 -18.102  0.00  0.00    +0.000 C 
ENDBRANCH  12  13
ENDBRANCH  11  12
ENDBRANCH   9  11
ENDBRANCH   4   8
BRANCH   2  15
ATOM     15  O   UNL     1      29.581 -25.542 -15.923  0.00  0.00    -0.380 OA
ATOM     16  H   UNL     1      29.378 -25.596 -14.976  0.00  0.00    +0.211 HD
ENDBRANCH   2  15
BRANCH   3  17
ATOM     17  O   UNL     1      27.089 -24.244 -16.996  0.00  0.00    -0.379 OA
ATOM     18  H   UNL     1      26.181 -23.988 -16.769  0.00  0.00    +0.211 HD
ENDBRANCH   3  17
BRANCH   6  19
ATOM     19  N   UNL     1      30.767 -22.082 -13.686  0.00  0.00    +0.008 NA
BRANCH  19  20
ATOM     20  O   UNL     1      32.100 -22.104 -14.113  0.00  0.00    -0.330 OA
BRANCH  20  23
ATOM     21  O   UNL     1      32.204 -23.937 -12.738  0.00  0.00    -0.224 OA
ATOM     22  N   UNL     1      34.037 -23.214 -13.999  0.00  0.00    -0.249 N 
ATOM     23  C   UNL     1      32.737 -23.171 -13.533  0.00  0.00    +0.425 C 
ATOM     24  H   UNL     1      34.288 -22.510 -14.640  0.00  0.00    +0.158 HD
BRANCH  22  25
ATOM     25  C   UNL     1      35.051 -24.143 -13.672  0.00  0.00    +0.053 C 
ATOM     26  C   UNL     1      35.563 -24.189 -12.375  0.00  0.00    +0.015 C 
ATOM     27  C   UNL     1      35.538 -25.016 -14.645  0.00  0.00    +0.015 C 
ATOM     28  C   UNL     1      36.563 -25.106 -12.052  0.00  0.00    +0.001 C 
ATOM     29  C   UNL     1      36.538 -25.933 -14.322  0.00  0.00    +0.001 C 
ATOM     30  C   UNL     1      37.050 -25.978 -13.026  0.00  0.00    +0.000 C 
ENDBRANCH  22  25
ENDBRANCH  20  23
ENDBRANCH  19  20
ENDBRANCH   6  19
BRANCH   5  31
ATOM     31  C   UNL     1      26.512 -21.759 -15.494  0.00  0.00    +0.169 C 
BRANCH  31  32
ATOM     32  O   UNL     1      25.732 -21.707 -16.674  0.00  0.00    -0.379 OA
ATOM     33  H   UNL     1      25.990 -22.433 -17.265  0.00  0.00    +0.211 HD
ENDBRANCH  31  32
ENDBRANCH   5  31
TORSDOF 12
ENDMDL
MODEL 8
REMARK VINA RESULT:      -8.2     12.888     17.489
REMARK  Name = 11582002
REMARK  12 active torsions:
REMARK  status: ('A' for Active; 'I' for Inactive)
REMARK    1  A    between atoms: N_2  and  C_7
REMARK    2  A    between atoms: N_2  and  O_20
REMARK    3  A    between atoms: C_3  and  O_16
REMARK    4  A    between atoms: C_4  and  O_18
REMARK    5  A    between atoms: C_5  and  N_9
REMARK    6  A    between atoms: C_6  and  C_31
REMARK    7  A    between atoms: C_10  and  C_12
REMARK    8  A    between atoms: C_12  and  C_13
REMARK    9  A    between atoms: C_13  and  C_14
REMARK   10  A    between atoms: O_20  and  C_23
REMARK   11  A    between atoms: N_22  and  C_25
REMARK   12  A    between atoms: C_31  and  O_32
REMARK                            x       y       z     vdW  Elec       q    Type
REMARK                         _______ _______ _______ _____ _____    ______ ____
ROOT
ATOM      1  O   UNL     1      32.055  -7.632 -21.569  0.00  0.00    -0.333 OA
ATOM      2  C   UNL     1      31.187  -5.293 -23.067  0.00  0.00    +0.161 C 
ATOM      3  C   UNL     1      31.208  -5.367 -21.539  0.00  0.00    +0.169 C 
ATOM      4  C   UNL     1      31.588  -6.602 -23.750  0.00  0.00    +0.149 C 
ATOM      5  C   UNL     1      32.320  -6.301 -21.076  0.00  0.00    +0.175 C 
ATOM      6  C   UNL     1      31.630  -7.795 -22.835  0.00  0.00    +0.251 C 
ENDROOT
BRANCH   4   8
ATOM      7  O   UNL     1      32.366  -5.353 -26.234  0.00  0.00    -0.275 OA
ATOM      8  N   UNL     1      32.916  -6.533 -24.309  0.00  0.00    -0.300 N 
ATOM      9  C   UNL     1      33.195  -5.908 -25.517  0.00  0.00    +0.223 C 
ATOM     10  H   UNL     1      33.658  -6.948 -23.812  0.00  0.00    +0.150 HD
BRANCH   9  11
ATOM     11  C   UNL     1      34.672  -5.986 -25.860  0.00  0.00    +0.085 C 
BRANCH  11  12
ATOM     12  C   UNL     1      35.039  -5.121 -27.063  0.00  0.00    +0.010 C 
BRANCH  12  13
ATOM     13  C   UNL     1      35.539  -3.744 -26.629  0.00  0.00    +0.001 C 
ATOM     14  C   UNL     1      37.056  -3.661 -26.682  0.00  0.00    +0.000 C 
ENDBRANCH  12  13
ENDBRANCH  11  12
ENDBRANCH   9  11
ENDBRANCH   4   8
BRANCH   2  15
ATOM     15  O   UNL     1      29.858  -4.939 -23.462  0.00  0.00    -0.380 OA
ATOM     16  H   UNL     1      29.530  -5.583 -24.108  0.00  0.00    +0.211 HD
ENDBRANCH   2  15
BRANCH   3  17
ATOM     17  O   UNL     1      31.395  -4.048 -21.035  0.00  0.00    -0.379 OA
ATOM     18  H   UNL     1      32.340  -3.828 -21.048  0.00  0.00    +0.211 HD
ENDBRANCH   3  17
BRANCH   6  19
ATOM     19  N   UNL     1      31.298  -8.972 -23.250  0.00  0.00    +0.008 NA
BRANCH  19  20
ATOM     20  O   UNL     1      32.464  -9.733 -23.393  0.00  0.00    -0.330 OA
BRANCH  20  23
ATOM     21  O   UNL     1      31.298 -11.226 -22.098  0.00  0.00    -0.224 OA
ATOM     22  N   UNL     1      33.426 -11.702 -22.947  0.00  0.00    -0.249 N 
ATOM     23  C   UNL     1      32.298 -10.930 -22.743  0.00  0.00    +0.425 C 
ATOM     24  H   UNL     1      34.133 -11.294 -23.498  0.00  0.00    +0.158 HD
BRANCH  22  25
ATOM     25  C   UNL     1      33.690 -13.004 -22.466  0.00  0.00    +0.053 C 
ATOM     26  C   UNL     1      33.978 -14.034 -23.362  0.00  0.00    +0.015 C 
ATOM     27  C   UNL     1      33.665 -13.259 -21.095  0.00  0.00    +0.015 C 
ATOM     28  C   UNL     1      34.239 -15.319 -22.886  0.00  0.00    +0.001 C 
ATOM     29  C   UNL     1      33.926 -14.544 -20.619  0.00  0.00    +0.001 C 
ATOM     30  C   UNL     1      34.213 -15.574 -21.515  0.00  0.00    +0.000 C 
ENDBRANCH  22  25
ENDBRANCH  20  23
ENDBRANCH  19  20
ENDBRANCH   6  19
BRANCH   5  31
ATOM     31  C   UNL     1      32.411  -6.403 -19.557  0.00  0.00    +0.169 C 
BRANCH  31  32
ATOM     32  O   UNL     1      32.399  -7.772 -19.194  0.00  0.00    -0.379 OA
ATOM     33  H   UNL     1      32.063  -8.300 -19.935  0.00  0.00    +0.211 HD
ENDBRANCH  31  32
ENDBRANCH   5  31
TORSDOF 12
ENDMDL
MODEL 9
REMARK VINA RESULT:      -7.9      9.218     13.683
REMARK  Name = 11582002
REMARK  12 active torsions:
REMARK  status: ('A' for Active; 'I' for Inactive)
REMARK    1  A    between atoms: N_2  and  C_7
REMARK    2  A    between atoms: N_2  and  O_20
REMARK    3  A    between atoms: C_3  and  O_16
REMARK    4  A    between atoms: C_4  and  O_18
REMARK    5  A    between atoms: C_5  and  N_9
REMARK    6  A    between atoms: C_6  and  C_31
REMARK    7  A    between atoms: C_10  and  C_12
REMARK    8  A    between atoms: C_12  and  C_13
REMARK    9  A    between atoms: C_13  and  C_14
REMARK   10  A    between atoms: O_20  and  C_23
REMARK   11  A    between atoms: N_22  and  C_25
REMARK   12  A    between atoms: C_31  and  O_32
REMARK                            x       y       z     vdW  Elec       q    Type
REMARK                         _______ _______ _______ _____ _____    ______ ____
ROOT
ATOM      1  O   UNL     1      33.403 -13.077 -22.594  0.00  0.00    -0.333 OA
ATOM      2  C   UNL     1      31.489 -11.034 -21.795  0.00  0.00    +0.161 C 
ATOM      3  C   UNL     1      31.916 -12.199 -20.899  0.00  0.00    +0.169 C 
ATOM      4  C   UNL     1      32.100 -11.083 -23.197  0.00  0.00    +0.149 C 
ATOM      5  C   UNL     1      33.347 -12.613 -21.227  0.00  0.00    +0.175 C 
ATOM      6  C   UNL     1      32.747 -12.393 -23.550  0.00  0.00    +0.251 C 
ENDROOT
BRANCH   4   8
ATOM      7  O   UNL     1      31.820  -8.209 -23.217  0.00  0.00    -0.275 OA
ATOM      8  N   UNL     1      33.151 -10.109 -23.361  0.00  0.00    -0.300 N 
ATOM      9  C   UNL     1      32.919  -8.740 -23.357  0.00  0.00    +0.223 C 
ATOM     10  H   UNL     1      34.074 -10.429 -23.481  0.00  0.00    +0.150 HD
BRANCH   9  11
ATOM     11  C   UNL     1      34.204  -7.954 -23.548  0.00  0.00    +0.085 C 
BRANCH  11  12
ATOM     12  C   UNL     1      34.182  -6.614 -22.816  0.00  0.00    +0.010 C 
BRANCH  12  13
ATOM     13  C   UNL     1      33.868  -5.463 -23.772  0.00  0.00    +0.001 C 
ATOM     14  C   UNL     1      32.611  -4.718 -23.352  0.00  0.00    +0.000 C 
ENDBRANCH  12  13
ENDBRANCH  11  12
ENDBRANCH   9  11
ENDBRANCH   4   8
BRANCH   2  15
ATOM     15  O   UNL     1      30.062 -11.071 -21.897  0.00  0.00    -0.380 OA
ATOM     16  H   UNL     1      29.780 -11.959 -22.164  0.00  0.00    +0.211 HD
ENDBRANCH   2  15
BRANCH   3  17
ATOM     17  O   UNL     1      31.796 -11.781 -19.543  0.00  0.00    -0.379 OA
ATOM     18  H   UNL     1      31.702 -12.560 -18.972  0.00  0.00    +0.211 HD
ENDBRANCH   3  17
BRANCH   6  19
ATOM     19  N   UNL     1      32.713 -12.857 -24.755  0.00  0.00    +0.008 NA
BRANCH  19  20
ATOM     20  O   UNL     1      33.860 -13.633 -24.960  0.00  0.00    -0.330 OA
BRANCH  20  23
ATOM     21  O   UNL     1      32.686 -15.582 -25.261  0.00  0.00    -0.224 OA
ATOM     22  N   UNL     1      34.413 -15.391 -23.694  0.00  0.00    -0.249 N 
ATOM     23  C   UNL     1      33.565 -14.945 -24.690  0.00  0.00    +0.425 C 
ATOM     24  H   UNL     1      35.061 -14.733 -23.354  0.00  0.00    +0.158 HD
BRANCH  22  25
ATOM     25  C   UNL     1      34.467 -16.674 -23.104  0.00  0.00    +0.053 C 
ATOM     26  C   UNL     1      34.052 -17.793 -23.828  0.00  0.00    +0.015 C 
ATOM     27  C   UNL     1      34.937 -16.823 -21.799  0.00  0.00    +0.015 C 
ATOM     28  C   UNL     1      34.106 -19.059 -23.245  0.00  0.00    +0.001 C 
ATOM     29  C   UNL     1      34.991 -18.089 -21.217  0.00  0.00    +0.001 C 
ATOM     30  C   UNL     1      34.576 -19.207 -21.940  0.00  0.00    +0.000 C 
ENDBRANCH  22  25
ENDBRANCH  20  23
ENDBRANCH  19  20
ENDBRANCH   6  19
BRANCH   5  31
ATOM     31  C   UNL     1      33.845 -13.759 -20.352  0.00  0.00    +0.169 C 
BRANCH  31  32
ATOM     32  O   UNL     1      32.738 -14.564 -19.988  0.00  0.00    -0.379 OA
ATOM     33  H   UNL     1      32.776 -14.754 -19.037  0.00  0.00    +0.211 HD
ENDBRANCH  31  32
ENDBRANCH   5  31
TORSDOF 12
ENDMDL
