MODEL 1
REMARK VINA RESULT:     -12.7      0.000      0.000
REMARK  Name = 447359
REMARK  5 active torsions:
REMARK  status: ('A' for Active; 'I' for Inactive)
REMARK    1  A    between atoms: N_2  and  S_8
REMARK    2  A    between atoms: N_3  and  C_21
REMARK    3  A    between atoms: S_8  and  C_13
REMARK    4  A    between atoms: C_21  and  C_22
REMARK    5  A    between atoms: C_25  and  C_30
REMARK                            x       y       z     vdW  Elec       q    Type
REMARK                         _______ _______ _______ _____ _____    ______ ____
ROOT
ATOM      1  O   UNL     1      33.671 -23.527 -13.508  0.00  0.00    -0.273 OA
ATOM      2  N   UNL     1      34.004 -22.246 -16.877  0.00  0.00    -0.144 NA
ATOM      3  N   UNL     1      35.477 -22.471 -14.506  0.00  0.00    -0.273 N 
ATOM      4  C   UNL     1      35.480 -22.276 -16.971  0.00  0.00    +0.118 C 
ATOM      5  C   UNL     1      36.018 -21.754 -15.656  0.00  0.00    +0.113 C 
ATOM      6  C   UNL     1      33.511 -23.174 -15.841  0.00  0.00    +0.181 C 
ATOM      7  C   UNL     1      34.211 -23.052 -14.511  0.00  0.00    +0.244 C 
ENDROOT
BRANCH   2   8
ATOM      8  S   UNL     1      33.160 -22.280 -18.365  0.00  0.00    +0.069 S 
ATOM      9  O   UNL     1      31.800 -21.835 -18.134  0.00  0.00    -0.152 OA
ATOM     10  O   UNL     1      33.454 -23.520 -19.050  0.00  0.00    -0.152 OA
BRANCH   8  13
ATOM     11 CL   UNL     1      34.766 -16.239 -23.623  0.00  0.00    -0.082 Cl
ATOM     12  S   UNL     1      32.742 -20.153 -20.318  0.00  0.00    -0.067 S 
ATOM     13  C   UNL     1      33.878 -21.024 -19.419  0.00  0.00    +0.152 C 
ATOM     14  C   UNL     1      35.159 -20.643 -19.631  0.00  0.00    +0.027 C 
ATOM     15  C   UNL     1      35.247 -19.572 -20.583  0.00  0.00    +0.008 C 
ATOM     16  C   UNL     1      33.981 -19.201 -21.046  0.00  0.00    +0.032 C 
ATOM     17  C   UNL     1      36.374 -18.880 -21.088  0.00  0.00    +0.001 C 
ATOM     18  C   UNL     1      33.817 -18.168 -21.990  0.00  0.00    +0.018 C 
ATOM     19  C   UNL     1      36.215 -17.855 -22.023  0.00  0.00    +0.011 C 
ATOM     20  C   UNL     1      34.948 -17.505 -22.469  0.00  0.00    +0.058 C 
ENDBRANCH   8  13
ENDBRANCH   2   8
BRANCH   3  21
ATOM     21  C   UNL     1      36.224 -22.350 -13.262  0.00  0.00    +0.120 C 
BRANCH  21  22
ATOM     22  C   UNL     1      36.928 -23.640 -12.972  0.00  0.00    -0.002 C 
ATOM     23  C   UNL     1      37.992 -24.040 -13.773  0.00  0.00    +0.000 C 
ATOM     24  C   UNL     1      36.512 -24.429 -11.904  0.00  0.00    -0.003 C 
ATOM     25  C   UNL     1      38.648 -25.242 -13.504  0.00  0.00    +0.030 C 
ATOM     26  C   UNL     1      37.167 -25.631 -11.636  0.00  0.00    -0.000 C 
ATOM     27  C   UNL     1      38.235 -26.038 -12.435  0.00  0.00    +0.003 C 
BRANCH  25  30
ATOM     28  N   UNL     1      40.806 -26.428 -13.819  0.00  0.00    -0.343 N 
ATOM     29  N   UNL     1      39.794 -25.326 -15.615  0.00  0.00    -0.285 NA
ATOM     30  C   UNL     1      39.761 -25.667 -14.338  0.00  0.00    +0.117 C 
ATOM     31  H   UNL     1      41.550 -26.705 -14.402  0.00  0.00    +0.144 HD
ATOM     32  H   UNL     1      40.801 -26.689 -12.871  0.00  0.00    +0.144 HD
ATOM     33  H   UNL     1      40.547 -25.613 -16.181  0.00  0.00    +0.188 HD
ENDBRANCH  25  30
ENDBRANCH  21  22
ENDBRANCH   3  21
TORSDOF 5
ENDMDL
MODEL 2
REMARK VINA RESULT:     -12.2      5.382      8.422
REMARK  Name = 447359
REMARK  5 active torsions:
REMARK  status: ('A' for Active; 'I' for Inactive)
REMARK    1  A    between atoms: N_2  and  S_8
REMARK    2  A    between atoms: N_3  and  C_21
REMARK    3  A    between atoms: S_8  and  C_13
REMARK    4  A    between atoms: C_21  and  C_22
REMARK    5  A    between atoms: C_25  and  C_30
REMARK                            x       y       z     vdW  Elec       q    Type
REMARK                         _______ _______ _______ _____ _____    ______ ____
ROOT
ATOM      1  O   UNL     1      35.686 -17.279 -20.229  0.00  0.00    -0.273 OA
ATOM      2  N   UNL     1      34.356 -16.827 -23.565  0.00  0.00    -0.144 NA
ATOM      3  N   UNL     1      34.983 -18.873 -21.759  0.00  0.00    -0.273 N 
ATOM      4  C   UNL     1      33.623 -18.108 -23.678  0.00  0.00    +0.118 C 
ATOM      5  C   UNL     1      34.524 -19.184 -23.109  0.00  0.00    +0.113 C 
ATOM      6  C   UNL     1      34.584 -16.459 -22.155  0.00  0.00    +0.181 C 
ATOM      7  C   UNL     1      35.156 -17.567 -21.307  0.00  0.00    +0.244 C 
ENDROOT
BRANCH   2   8
ATOM      8  S   UNL     1      33.810 -15.563 -24.582  0.00  0.00    +0.069 S 
ATOM      9  O   UNL     1      32.645 -16.027 -25.308  0.00  0.00    -0.152 OA
ATOM     10  O   UNL     1      34.946 -14.970 -25.254  0.00  0.00    -0.152 OA
BRANCH   8  13
ATOM     11 CL   UNL     1      31.018  -8.643 -21.262  0.00  0.00    -0.082 Cl
ATOM     12  S   UNL     1      32.906 -12.800 -24.343  0.00  0.00    -0.067 S 
ATOM     13  C   UNL     1      33.199 -14.252 -23.529  0.00  0.00    +0.152 C 
ATOM     14  C   UNL     1      32.928 -14.205 -22.203  0.00  0.00    +0.027 C 
ATOM     15  C   UNL     1      32.449 -12.914 -21.800  0.00  0.00    +0.008 C 
ATOM     16  C   UNL     1      32.387 -12.036 -22.887  0.00  0.00    +0.032 C 
ATOM     17  C   UNL     1      32.054 -12.435 -20.529  0.00  0.00    +0.001 C 
ATOM     18  C   UNL     1      31.945 -10.707 -22.735  0.00  0.00    +0.018 C 
ATOM     19  C   UNL     1      31.614 -11.118 -20.374  0.00  0.00    +0.011 C 
ATOM     20  C   UNL     1      31.562 -10.264 -21.467  0.00  0.00    +0.058 C 
ENDBRANCH   8  13
ENDBRANCH   2   8
BRANCH   3  21
ATOM     21  C   UNL     1      35.482 -19.994 -20.974  0.00  0.00    +0.120 C 
BRANCH  21  22
ATOM     22  C   UNL     1      34.400 -20.492 -20.066  0.00  0.00    -0.002 C 
ATOM     23  C   UNL     1      34.731 -21.258 -18.953  0.00  0.00    +0.000 C 
ATOM     24  C   UNL     1      33.070 -20.189 -20.344  0.00  0.00    -0.003 C 
ATOM     25  C   UNL     1      33.723 -21.723 -18.108  0.00  0.00    +0.030 C 
ATOM     26  C   UNL     1      32.063 -20.655 -19.499  0.00  0.00    -0.000 C 
ATOM     27  C   UNL     1      32.389 -21.422 -18.381  0.00  0.00    +0.003 C 
BRANCH  25  30
ATOM     28  N   UNL     1      33.094 -23.257 -16.259  0.00  0.00    -0.343 N 
ATOM     29  N   UNL     1      35.311 -22.560 -16.510  0.00  0.00    -0.285 NA
ATOM     30  C   UNL     1      34.063 -22.524 -16.941  0.00  0.00    +0.117 C 
ATOM     31  H   UNL     1      33.346 -23.792 -15.472  0.00  0.00    +0.144 HD
ATOM     32  H   UNL     1      32.159 -23.241 -16.563  0.00  0.00    +0.144 HD
ATOM     33  H   UNL     1      35.543 -23.102 -15.721  0.00  0.00    +0.188 HD
ENDBRANCH  25  30
ENDBRANCH  21  22
ENDBRANCH   3  21
TORSDOF 5
ENDMDL
MODEL 3
REMARK VINA RESULT:     -12.2      3.442      5.188
REMARK  Name = 447359
REMARK  5 active torsions:
REMARK  status: ('A' for Active; 'I' for Inactive)
REMARK    1  A    between atoms: N_2  and  S_8
REMARK    2  A    between atoms: N_3  and  C_21
REMARK    3  A    between atoms: S_8  and  C_13
REMARK    4  A    between atoms: C_21  and  C_22
REMARK    5  A    between atoms: C_25  and  C_30
REMARK                            x       y       z     vdW  Elec       q    Type
REMARK                         _______ _______ _______ _____ _____    ______ ____
ROOT
ATOM      1  O   UNL     1      31.718 -20.501 -19.273  0.00  0.00    -0.273 OA
ATOM      2  N   UNL     1      34.906 -19.505 -20.668  0.00  0.00    -0.144 NA
ATOM      3  N   UNL     1      33.849 -21.253 -18.755  0.00  0.00    -0.273 N 
ATOM      4  C   UNL     1      35.676 -20.724 -20.335  0.00  0.00    +0.118 C 
ATOM      5  C   UNL     1      35.292 -21.117 -18.924  0.00  0.00    +0.113 C 
ATOM      6  C   UNL     1      33.456 -19.774 -20.704  0.00  0.00    +0.181 C 
ATOM      7  C   UNL     1      32.932 -20.518 -19.502  0.00  0.00    +0.244 C 
ENDROOT
BRANCH   2   8
ATOM      8  S   UNL     1      35.518 -18.567 -21.964  0.00  0.00    +0.069 S 
ATOM      9  O   UNL     1      34.996 -19.101 -23.205  0.00  0.00    -0.152 OA
ATOM     10  O   UNL     1      36.933 -18.342 -21.760  0.00  0.00    -0.152 OA
BRANCH   8  13
ATOM     11 CL   UNL     1      32.407 -11.102 -23.109  0.00  0.00    -0.082 Cl
ATOM     12  S   UNL     1      34.611 -16.145 -23.315  0.00  0.00    -0.067 S 
ATOM     13  C   UNL     1      34.798 -16.934 -21.831  0.00  0.00    +0.152 C 
ATOM     14  C   UNL     1      34.375 -16.213 -20.767  0.00  0.00    +0.027 C 
ATOM     15  C   UNL     1      33.862 -14.932 -21.159  0.00  0.00    +0.008 C 
ATOM     16  C   UNL     1      33.932 -14.760 -22.545  0.00  0.00    +0.032 C 
ATOM     17  C   UNL     1      33.324 -13.878 -20.381  0.00  0.00    +0.001 C 
ATOM     18  C   UNL     1      33.485 -13.577 -23.164  0.00  0.00    +0.018 C 
ATOM     19  C   UNL     1      32.879 -12.703 -20.992  0.00  0.00    +0.011 C 
ATOM     20  C   UNL     1      32.960 -12.556 -22.369  0.00  0.00    +0.058 C 
ENDBRANCH   8  13
ENDBRANCH   2   8
BRANCH   3  21
ATOM     21  C   UNL     1      33.406 -22.021 -17.599  0.00  0.00    +0.120 C 
BRANCH  21  22
ATOM     22  C   UNL     1      34.583 -22.345 -16.731  0.00  0.00    -0.002 C 
ATOM     23  C   UNL     1      34.600 -23.533 -16.006  0.00  0.00    +0.000 C 
ATOM     24  C   UNL     1      35.652 -21.457 -16.655  0.00  0.00    -0.003 C 
ATOM     25  C   UNL     1      35.696 -23.835 -15.197  0.00  0.00    +0.030 C 
ATOM     26  C   UNL     1      36.747 -21.759 -15.845  0.00  0.00    -0.000 C 
ATOM     27  C   UNL     1      36.769 -22.947 -15.116  0.00  0.00    +0.003 C 
BRANCH  25  30
ATOM     28  N   UNL     1      35.778 -25.070 -13.044  0.00  0.00    -0.343 N 
ATOM     29  N   UNL     1      35.690 -26.234 -15.069  0.00  0.00    -0.285 NA
ATOM     30  C   UNL     1      35.720 -25.075 -14.436  0.00  0.00    +0.117 C 
ATOM     31  H   UNL     1      35.793 -25.921 -12.549  0.00  0.00    +0.144 HD
ATOM     32  H   UNL     1      35.803 -24.216 -12.556  0.00  0.00    +0.144 HD
ATOM     33  H   UNL     1      35.706 -27.075 -14.556  0.00  0.00    +0.188 HD
ENDBRANCH  25  30
ENDBRANCH  21  22
ENDBRANCH   3  21
TORSDOF 5
ENDMDL
MODEL 4
REMARK VINA RESULT:     -12.1      3.450      5.469
REMARK  Name = 447359
REMARK  5 active torsions:
REMARK  status: ('A' for Active; 'I' for Inactive)
REMARK    1  A    between atoms: N_2  and  S_8
REMARK    2  A    between atoms: N_3  and  C_21
REMARK    3  A    between atoms: S_8  and  C_13
REMARK    4  A    between atoms: C_21  and  C_22
REMARK    5  A    between atoms: C_25  and  C_30
REMARK                            x       y       z     vdW  Elec       q    Type
REMARK                         _______ _______ _______ _____ _____    ______ ____
ROOT
ATOM      1  O   UNL     1      31.472 -20.189 -19.656  0.00  0.00    -0.273 OA
ATOM      2  N   UNL     1      34.893 -19.425 -20.560  0.00  0.00    -0.144 NA
ATOM      3  N   UNL     1      33.419 -21.339 -19.145  0.00  0.00    -0.273 N 
ATOM      4  C   UNL     1      35.456 -20.787 -20.433  0.00  0.00    +0.118 C 
ATOM      5  C   UNL     1      34.877 -21.390 -19.171  0.00  0.00    +0.113 C 
ATOM      6  C   UNL     1      33.432 -19.462 -20.763  0.00  0.00    +0.181 C 
ATOM      7  C   UNL     1      32.690 -20.342 -19.789  0.00  0.00    +0.244 C 
ENDROOT
BRANCH   2   8
ATOM      8  S   UNL     1      35.755 -18.352 -21.577  0.00  0.00    +0.069 S 
ATOM      9  O   UNL     1      35.631 -18.814 -22.944  0.00  0.00    -0.152 OA
ATOM     10  O   UNL     1      37.041 -18.062 -20.980  0.00  0.00    -0.152 OA
BRANCH   8  13
ATOM     11 CL   UNL     1      32.237 -11.151 -23.154  0.00  0.00    -0.082 Cl
ATOM     12  S   UNL     1      34.831 -16.009 -23.050  0.00  0.00    -0.067 S 
ATOM     13  C   UNL     1      34.902 -16.779 -21.547  0.00  0.00    +0.152 C 
ATOM     14  C   UNL     1      34.303 -16.093 -20.546  0.00  0.00    +0.027 C 
ATOM     15  C   UNL     1      33.741 -14.855 -21.008  0.00  0.00    +0.008 C 
ATOM     16  C   UNL     1      33.962 -14.680 -22.378  0.00  0.00    +0.032 C 
ATOM     17  C   UNL     1      33.037 -13.846 -20.310  0.00  0.00    +0.001 C 
ATOM     18  C   UNL     1      33.501 -13.535 -23.058  0.00  0.00    +0.018 C 
ATOM     19  C   UNL     1      32.578 -12.709 -20.980  0.00  0.00    +0.011 C 
ATOM     20  C   UNL     1      32.809 -12.558 -22.340  0.00  0.00    +0.058 C 
ENDBRANCH   8  13
ENDBRANCH   2   8
BRANCH   3  21
ATOM     21  C   UNL     1      32.759 -22.246 -18.215  0.00  0.00    +0.120 C 
BRANCH  21  22
ATOM     22  C   UNL     1      33.596 -22.394 -16.981  0.00  0.00    -0.002 C 
ATOM     23  C   UNL     1      34.942 -22.042 -17.013  0.00  0.00    +0.000 C 
ATOM     24  C   UNL     1      33.023 -22.886 -15.812  0.00  0.00    -0.003 C 
ATOM     25  C   UNL     1      35.721 -22.181 -15.865  0.00  0.00    +0.030 C 
ATOM     26  C   UNL     1      33.803 -23.026 -14.665  0.00  0.00    -0.000 C 
ATOM     27  C   UNL     1      35.152 -22.674 -14.690  0.00  0.00    +0.003 C 
BRANCH  25  30
ATOM     28  N   UNL     1      37.533 -20.514 -16.188  0.00  0.00    -0.343 N 
ATOM     29  N   UNL     1      38.051 -22.725 -15.633  0.00  0.00    -0.285 NA
ATOM     30  C   UNL     1      37.129 -21.814 -15.891  0.00  0.00    +0.117 C 
ATOM     31  H   UNL     1      38.491 -20.288 -16.201  0.00  0.00    +0.144 HD
ATOM     32  H   UNL     1      36.862 -19.823 -16.386  0.00  0.00    +0.144 HD
ATOM     33  H   UNL     1      39.004 -22.478 -15.650  0.00  0.00    +0.188 HD
ENDBRANCH  25  30
ENDBRANCH  21  22
ENDBRANCH   3  21
TORSDOF 5
ENDMDL
MODEL 5
REMARK VINA RESULT:     -12.0      4.493     10.228
REMARK  Name = 447359
REMARK  5 active torsions:
REMARK  status: ('A' for Active; 'I' for Inactive)
REMARK    1  A    between atoms: N_2  and  S_8
REMARK    2  A    between atoms: N_3  and  C_21
REMARK    3  A    between atoms: S_8  and  C_13
REMARK    4  A    between atoms: C_21  and  C_22
REMARK    5  A    between atoms: C_25  and  C_30
REMARK                            x       y       z     vdW  Elec       q    Type
REMARK                         _______ _______ _______ _____ _____    ______ ____
ROOT
ATOM      1  O   UNL     1      36.861 -20.088 -19.976  0.00  0.00    -0.273 OA
ATOM      2  N   UNL     1      33.578 -21.167 -18.900  0.00  0.00    -0.144 NA
ATOM      3  N   UNL     1      34.780 -19.226 -20.521  0.00  0.00    -0.273 N 
ATOM      4  C   UNL     1      32.792 -20.610 -20.023  0.00  0.00    +0.118 C 
ATOM      5  C   UNL     1      33.337 -19.225 -20.300  0.00  0.00    +0.113 C 
ATOM      6  C   UNL     1      34.992 -21.357 -19.273  0.00  0.00    +0.181 C 
ATOM      7  C   UNL     1      35.629 -20.158 -19.930  0.00  0.00    +0.244 C 
ENDROOT
BRANCH   2   8
ATOM      8  S   UNL     1      32.854 -22.467 -18.054  0.00  0.00    +0.069 S 
ATOM      9  O   UNL     1      33.125 -23.694 -18.776  0.00  0.00    -0.152 OA
ATOM     10  O   UNL     1      31.513 -22.090 -17.661  0.00  0.00    -0.152 OA
BRANCH   8  13
ATOM     11 CL   UNL     1      35.272 -23.878 -10.381  0.00  0.00    -0.082 Cl
ATOM     12  S   UNL     1      32.764 -23.248 -15.245  0.00  0.00    -0.067 S 
ATOM     13  C   UNL     1      33.724 -22.649 -16.501  0.00  0.00    +0.152 C 
ATOM     14  C   UNL     1      35.004 -22.396 -16.145  0.00  0.00    +0.027 C 
ATOM     15  C   UNL     1      35.246 -22.703 -14.764  0.00  0.00    +0.008 C 
ATOM     16  C   UNL     1      34.089 -23.185 -14.143  0.00  0.00    +0.032 C 
ATOM     17  C   UNL     1      36.424 -22.592 -13.988  0.00  0.00    +0.001 C 
ATOM     18  C   UNL     1      34.082 -23.553 -12.783  0.00  0.00    +0.018 C 
ATOM     19  C   UNL     1      36.422 -22.957 -12.639  0.00  0.00    +0.011 C 
ATOM     20  C   UNL     1      35.261 -23.432 -12.045  0.00  0.00    +0.058 C 
ENDBRANCH   8  13
ENDBRANCH   2   8
BRANCH   3  21
ATOM     21  C   UNL     1      35.328 -18.060 -21.200  0.00  0.00    +0.120 C 
BRANCH  21  22
ATOM     22  C   UNL     1      34.569 -17.815 -22.468  0.00  0.00    -0.002 C 
ATOM     23  C   UNL     1      34.318 -16.511 -22.882  0.00  0.00    +0.000 C 
ATOM     24  C   UNL     1      34.119 -18.894 -23.224  0.00  0.00    -0.003 C 
ATOM     25  C   UNL     1      33.610 -16.282 -24.062  0.00  0.00    +0.030 C 
ATOM     26  C   UNL     1      33.411 -18.665 -24.403  0.00  0.00    -0.000 C 
ATOM     27  C   UNL     1      33.156 -17.360 -24.823  0.00  0.00    +0.003 C 
BRANCH  25  30
ATOM     28  N   UNL     1      33.433 -13.845 -23.618  0.00  0.00    -0.343 N 
ATOM     29  N   UNL     1      33.008 -14.688 -25.757  0.00  0.00    -0.285 NA
ATOM     30  C   UNL     1      33.345 -14.921 -24.500  0.00  0.00    +0.117 C 
ATOM     31  H   UNL     1      33.249 -12.932 -23.936  0.00  0.00    +0.144 HD
ATOM     32  H   UNL     1      33.679 -13.999 -22.678  0.00  0.00    +0.144 HD
ATOM     33  H   UNL     1      32.828 -13.767 -26.055  0.00  0.00    +0.188 HD
ENDBRANCH  25  30
ENDBRANCH  21  22
ENDBRANCH   3  21
TORSDOF 5
ENDMDL
MODEL 6
REMARK VINA RESULT:     -11.6      4.802     10.308
REMARK  Name = 447359
REMARK  5 active torsions:
REMARK  status: ('A' for Active; 'I' for Inactive)
REMARK    1  A    between atoms: N_2  and  S_8
REMARK    2  A    between atoms: N_3  and  C_21
REMARK    3  A    between atoms: S_8  and  C_13
REMARK    4  A    between atoms: C_21  and  C_22
REMARK    5  A    between atoms: C_25  and  C_30
REMARK                            x       y       z     vdW  Elec       q    Type
REMARK                         _______ _______ _______ _____ _____    ______ ____
ROOT
ATOM      1  O   UNL     1      36.910 -18.607 -20.343  0.00  0.00    -0.273 OA
ATOM      2  N   UNL     1      33.723 -20.282 -19.971  0.00  0.00    -0.144 NA
ATOM      3  N   UNL     1      34.975 -18.381 -21.600  0.00  0.00    -0.273 N 
ATOM      4  C   UNL     1      33.233 -20.118 -21.357  0.00  0.00    +0.118 C 
ATOM      5  C   UNL     1      33.563 -18.702 -21.778  0.00  0.00    +0.113 C 
ATOM      6  C   UNL     1      35.193 -20.173 -19.902  0.00  0.00    +0.181 C 
ATOM      7  C   UNL     1      35.761 -18.971 -20.613  0.00  0.00    +0.244 C 
ENDROOT
BRANCH   2   8
ATOM      8  S   UNL     1      33.035 -21.574 -19.083  0.00  0.00    +0.069 S 
ATOM      9  O   UNL     1      33.067 -22.766 -19.905  0.00  0.00    -0.152 OA
ATOM     10  O   UNL     1      31.819 -21.116 -18.444  0.00  0.00    -0.152 OA
BRANCH   8  13
ATOM     11 CL   UNL     1      36.609 -23.926 -12.126  0.00  0.00    -0.082 Cl
ATOM     12  S   UNL     1      33.385 -22.737 -16.431  0.00  0.00    -0.067 S 
ATOM     13  C   UNL     1      34.132 -21.932 -17.716  0.00  0.00    +0.152 C 
ATOM     14  C   UNL     1      35.447 -21.678 -17.518  0.00  0.00    +0.027 C 
ATOM     15  C   UNL     1      35.899 -22.162 -16.245  0.00  0.00    +0.008 C 
ATOM     16  C   UNL     1      34.859 -22.771 -15.537  0.00  0.00    +0.032 C 
ATOM     17  C   UNL     1      37.179 -22.110 -15.643  0.00  0.00    +0.001 C 
ATOM     18  C   UNL     1      35.065 -23.323 -14.257  0.00  0.00    +0.018 C 
ATOM     19  C   UNL     1      37.387 -22.657 -14.374  0.00  0.00    +0.011 C 
ATOM     20  C   UNL     1      36.338 -23.256 -13.690  0.00  0.00    +0.058 C 
ENDBRANCH   8  13
ENDBRANCH   2   8
BRANCH   3  21
ATOM     21  C   UNL     1      35.474 -17.235 -22.349  0.00  0.00    +0.120 C 
BRANCH  21  22
ATOM     22  C   UNL     1      34.675 -16.018 -21.996  0.00  0.00    -0.002 C 
ATOM     23  C   UNL     1      34.321 -15.112 -22.991  0.00  0.00    +0.000 C 
ATOM     24  C   UNL     1      34.294 -15.801 -20.675  0.00  0.00    -0.003 C 
ATOM     25  C   UNL     1      33.578 -13.978 -22.662  0.00  0.00    +0.030 C 
ATOM     26  C   UNL     1      33.552 -14.666 -20.347  0.00  0.00    -0.000 C 
ATOM     27  C   UNL     1      33.194 -13.755 -21.340  0.00  0.00    +0.003 C 
BRANCH  25  30
ATOM     28  N   UNL     1      33.555 -11.682 -23.607  0.00  0.00    -0.343 N 
ATOM     29  N   UNL     1      32.516 -13.437 -24.749  0.00  0.00    -0.285 NA
ATOM     30  C   UNL     1      33.205 -13.028 -23.698  0.00  0.00    +0.117 C 
ATOM     31  H   UNL     1      33.292 -11.056 -24.319  0.00  0.00    +0.144 HD
ATOM     32  H   UNL     1      34.065 -11.358 -22.831  0.00  0.00    +0.144 HD
ATOM     33  H   UNL     1      32.262 -12.795 -25.451  0.00  0.00    +0.188 HD
ENDBRANCH  25  30
ENDBRANCH  21  22
ENDBRANCH   3  21
TORSDOF 5
ENDMDL
MODEL 7
REMARK VINA RESULT:     -11.4      8.346     12.251
REMARK  Name = 447359
REMARK  5 active torsions:
REMARK  status: ('A' for Active; 'I' for Inactive)
REMARK    1  A    between atoms: N_2  and  S_8
REMARK    2  A    between atoms: N_3  and  C_21
REMARK    3  A    between atoms: S_8  and  C_13
REMARK    4  A    between atoms: C_21  and  C_22
REMARK    5  A    between atoms: C_25  and  C_30
REMARK                            x       y       z     vdW  Elec       q    Type
REMARK                         _______ _______ _______ _____ _____    ______ ____
ROOT
ATOM      1  O   UNL     1      34.396 -14.777 -20.887  0.00  0.00    -0.273 OA
ATOM      2  N   UNL     1      32.265 -12.011 -21.842  0.00  0.00    -0.144 NA
ATOM      3  N   UNL     1      33.813 -14.034 -23.004  0.00  0.00    -0.273 N 
ATOM      4  C   UNL     1      31.897 -12.483 -23.195  0.00  0.00    +0.118 C 
ATOM      5  C   UNL     1      33.158 -13.027 -23.832  0.00  0.00    +0.113 C 
ATOM      6  C   UNL     1      32.704 -13.127 -20.982  0.00  0.00    +0.181 C 
ATOM      7  C   UNL     1      33.730 -14.034 -21.614  0.00  0.00    +0.244 C 
ENDROOT
BRANCH   2   8
ATOM      8  S   UNL     1      31.183 -10.899 -21.119  0.00  0.00    +0.069 S 
ATOM      9  O   UNL     1      31.427 -10.882 -19.691  0.00  0.00    -0.152 OA
ATOM     10  O   UNL     1      29.859 -11.099 -21.668  0.00  0.00    -0.152 OA
BRANCH   8  13
ATOM     11 CL   UNL     1      34.164  -4.307 -24.910  0.00  0.00    -0.082 Cl
ATOM     12  S   UNL     1      32.652  -9.260 -23.034  0.00  0.00    -0.067 S 
ATOM     13  C   UNL     1      31.640  -9.262 -21.680  0.00  0.00    +0.152 C 
ATOM     14  C   UNL     1      31.327  -8.028 -21.223  0.00  0.00    +0.027 C 
ATOM     15  C   UNL     1      31.938  -6.995 -22.011  0.00  0.00    +0.008 C 
ATOM     16  C   UNL     1      32.702  -7.536 -23.049  0.00  0.00    +0.032 C 
ATOM     17  C   UNL     1      31.878  -5.587 -21.889  0.00  0.00    +0.001 C 
ATOM     18  C   UNL     1      33.399  -6.714 -23.957  0.00  0.00    +0.018 C 
ATOM     19  C   UNL     1      32.567  -4.768 -22.787  0.00  0.00    +0.011 C 
ATOM     20  C   UNL     1      33.320  -5.328 -23.809  0.00  0.00    +0.058 C 
ENDBRANCH   8  13
ENDBRANCH   2   8
BRANCH   3  21
ATOM     21  C   UNL     1      34.760 -14.908 -23.682  0.00  0.00    +0.120 C 
BRANCH  21  22
ATOM     22  C   UNL     1      34.432 -16.337 -23.376  0.00  0.00    -0.002 C 
ATOM     23  C   UNL     1      35.021 -16.961 -22.280  0.00  0.00    +0.000 C 
ATOM     24  C   UNL     1      33.543 -17.033 -24.190  0.00  0.00    -0.003 C 
ATOM     25  C   UNL     1      34.716 -18.292 -21.994  0.00  0.00    +0.030 C 
ATOM     26  C   UNL     1      33.239 -18.364 -23.904  0.00  0.00    -0.000 C 
ATOM     27  C   UNL     1      33.825 -18.994 -22.807  0.00  0.00    +0.003 C 
BRANCH  25  30
ATOM     28  N   UNL     1      34.684 -19.990 -20.183  0.00  0.00    -0.343 N 
ATOM     29  N   UNL     1      36.515 -18.558 -20.424  0.00  0.00    -0.285 NA
ATOM     30  C   UNL     1      35.327 -18.950 -20.850  0.00  0.00    +0.117 C 
ATOM     31  H   UNL     1      35.116 -20.421 -19.410  0.00  0.00    +0.144 HD
ATOM     32  H   UNL     1      33.798 -20.294 -20.483  0.00  0.00    +0.144 HD
ATOM     33  H   UNL     1      36.931 -19.002 -19.649  0.00  0.00    +0.188 HD
ENDBRANCH  25  30
ENDBRANCH  21  22
ENDBRANCH   3  21
TORSDOF 5
ENDMDL
MODEL 8
REMARK VINA RESULT:     -10.9     11.863     15.523
REMARK  Name = 447359
REMARK  5 active torsions:
REMARK  status: ('A' for Active; 'I' for Inactive)
REMARK    1  A    between atoms: N_2  and  S_8
REMARK    2  A    between atoms: N_3  and  C_21
REMARK    3  A    between atoms: S_8  and  C_13
REMARK    4  A    between atoms: C_21  and  C_22
REMARK    5  A    between atoms: C_25  and  C_30
REMARK                            x       y       z     vdW  Elec       q    Type
REMARK                         _______ _______ _______ _____ _____    ______ ____
ROOT
ATOM      1  O   UNL     1      31.942 -10.206 -23.625  0.00  0.00    -0.273 OA
ATOM      2  N   UNL     1      31.532  -7.777 -20.973  0.00  0.00    -0.144 NA
ATOM      3  N   UNL     1      31.147 -10.505 -21.468  0.00  0.00    -0.273 N 
ATOM      4  C   UNL     1      31.569  -8.708 -19.823  0.00  0.00    +0.118 C 
ATOM      5  C   UNL     1      30.732  -9.911 -20.201  0.00  0.00    +0.113 C 
ATOM      6  C   UNL     1      32.179  -8.362 -22.163  0.00  0.00    +0.181 C 
ATOM      7  C   UNL     1      31.725  -9.761 -22.494  0.00  0.00    +0.244 C 
ENDROOT
BRANCH   2   8
ATOM      8  S   UNL     1      31.942  -6.151 -20.630  0.00  0.00    +0.069 S 
ATOM      9  O   UNL     1      33.107  -6.142 -19.769  0.00  0.00    -0.152 OA
ATOM     10  O   UNL     1      30.739  -5.416 -20.301  0.00  0.00    -0.152 OA
BRANCH   8  13
ATOM     11 CL   UNL     1      32.992  -1.818 -27.475  0.00  0.00    -0.082 Cl
ATOM     12  S   UNL     1      31.445  -4.232 -22.772  0.00  0.00    -0.067 S 
ATOM     13  C   UNL     1      32.498  -5.404 -22.159  0.00  0.00    +0.152 C 
ATOM     14  C   UNL     1      33.604  -5.601 -22.914  0.00  0.00    +0.027 C 
ATOM     15  C   UNL     1      33.617  -4.755 -24.073  0.00  0.00    +0.008 C 
ATOM     16  C   UNL     1      32.479  -3.944 -24.121  0.00  0.00    +0.032 C 
ATOM     17  C   UNL     1      34.568  -4.635 -25.114  0.00  0.00    +0.001 C 
ATOM     18  C   UNL     1      32.271  -3.027 -25.171  0.00  0.00    +0.018 C 
ATOM     19  C   UNL     1      34.366  -3.727 -26.157  0.00  0.00    +0.011 C 
ATOM     20  C   UNL     1      33.228  -2.933 -26.183  0.00  0.00    +0.058 C 
ENDBRANCH   8  13
ENDBRANCH   2   8
BRANCH   3  21
ATOM     21  C   UNL     1      30.714 -11.875 -21.709  0.00  0.00    +0.120 C 
BRANCH  21  22
ATOM     22  C   UNL     1      31.910 -12.773 -21.791  0.00  0.00    -0.002 C 
ATOM     23  C   UNL     1      32.214 -13.411 -22.990  0.00  0.00    +0.000 C 
ATOM     24  C   UNL     1      32.709 -12.964 -20.667  0.00  0.00    -0.003 C 
ATOM     25  C   UNL     1      33.327 -14.248 -23.066  0.00  0.00    +0.030 C 
ATOM     26  C   UNL     1      33.822 -13.801 -20.744  0.00  0.00    -0.000 C 
ATOM     27  C   UNL     1      34.131 -14.444 -21.943  0.00  0.00    +0.003 C 
BRANCH  25  30
ATOM     28  N   UNL     1      34.569 -15.965 -24.361  0.00  0.00    -0.343 N 
ATOM     29  N   UNL     1      33.069 -14.532 -25.438  0.00  0.00    -0.285 NA
ATOM     30  C   UNL     1      33.650 -14.918 -24.316  0.00  0.00    +0.117 C 
ATOM     31  H   UNL     1      34.773 -16.404 -25.218  0.00  0.00    +0.144 HD
ATOM     32  H   UNL     1      35.014 -16.264 -23.536  0.00  0.00    +0.144 HD
ATOM     33  H   UNL     1      33.286 -14.985 -26.285  0.00  0.00    +0.188 HD
ENDBRANCH  25  30
ENDBRANCH  21  22
ENDBRANCH   3  21
TORSDOF 5
ENDMDL
MODEL 9
REMARK VINA RESULT:     -10.6     11.632     17.217
REMARK  Name = 447359
REMARK  5 active torsions:
REMARK  status: ('A' for Active; 'I' for Inactive)
REMARK    1  A    between atoms: N_2  and  S_8
REMARK    2  A    between atoms: N_3  and  C_21
REMARK    3  A    between atoms: S_8  and  C_13
REMARK    4  A    between atoms: C_21  and  C_22
REMARK    5  A    between atoms: C_25  and  C_30
REMARK                            x       y       z     vdW  Elec       q    Type
REMARK                         _______ _______ _______ _____ _____    ______ ____
ROOT
ATOM      1  O   UNL     1      34.541  -8.304 -24.128  0.00  0.00    -0.273 OA
ATOM      2  N   UNL     1      32.106  -9.285 -21.635  0.00  0.00    -0.144 NA
ATOM      3  N   UNL     1      33.403  -6.995 -22.589  0.00  0.00    -0.273 N 
ATOM      4  C   UNL     1      31.429  -7.980 -21.473  0.00  0.00    +0.118 C 
ATOM      5  C   UNL     1      32.511  -6.921 -21.437  0.00  0.00    +0.113 C 
ATOM      6  C   UNL     1      32.803  -9.375 -22.932  0.00  0.00    +0.181 C 
ATOM      7  C   UNL     1      33.676  -8.188 -23.253  0.00  0.00    +0.244 C 
ENDROOT
BRANCH   2   8
ATOM      8  S   UNL     1      31.192 -10.661 -21.188  0.00  0.00    +0.069 S 
ATOM      9  O   UNL     1      29.952 -10.653 -21.936  0.00  0.00    -0.152 OA
ATOM     10  O   UNL     1      31.217 -10.801 -19.748  0.00  0.00    -0.152 OA
BRANCH   8  13
ATOM     11 CL   UNL     1      35.552 -17.497 -22.172  0.00  0.00    -0.082 Cl
ATOM     12  S   UNL     1      32.800 -13.011 -20.550  0.00  0.00    -0.067 S 
ATOM     13  C   UNL     1      32.071 -12.105 -21.777  0.00  0.00    +0.152 C 
ATOM     14  C   UNL     1      32.260 -12.606 -23.019  0.00  0.00    +0.027 C 
ATOM     15  C   UNL     1      33.047 -13.806 -22.997  0.00  0.00    +0.008 C 
ATOM     16  C   UNL     1      33.415 -14.146 -21.692  0.00  0.00    +0.032 C 
ATOM     17  C   UNL     1      33.477 -14.644 -24.054  0.00  0.00    +0.001 C 
ATOM     18  C   UNL     1      34.193 -15.289 -21.420  0.00  0.00    +0.018 C 
ATOM     19  C   UNL     1      34.248 -15.779 -23.788  0.00  0.00    +0.011 C 
ATOM     20  C   UNL     1      34.602 -16.095 -22.484  0.00  0.00    +0.058 C 
ENDBRANCH   8  13
ENDBRANCH   2   8
BRANCH   3  21
ATOM     21  C   UNL     1      34.188  -5.801 -22.874  0.00  0.00    +0.120 C 
BRANCH  21  22
ATOM     22  C   UNL     1      33.443  -4.929 -23.838  0.00  0.00    -0.002 C 
ATOM     23  C   UNL     1      32.317  -4.233 -23.412  0.00  0.00    +0.000 C 
ATOM     24  C   UNL     1      33.882  -4.823 -25.155  0.00  0.00    -0.003 C 
ATOM     25  C   UNL     1      31.622  -3.422 -24.310  0.00  0.00    +0.030 C 
ATOM     26  C   UNL     1      33.187  -4.013 -26.053  0.00  0.00    -0.000 C 
ATOM     27  C   UNL     1      32.058  -3.313 -25.631  0.00  0.00    +0.003 C 
BRANCH  25  30
ATOM     28  N   UNL     1      30.063  -2.668 -22.530  0.00  0.00    -0.343 N 
ATOM     29  N   UNL     1      29.711  -2.035 -24.752  0.00  0.00    -0.285 NA
ATOM     30  C   UNL     1      30.444  -2.691 -23.870  0.00  0.00    +0.117 C 
ATOM     31  H   UNL     1      29.262  -2.167 -22.255  0.00  0.00    +0.144 HD
ATOM     32  H   UNL     1      30.595  -3.153 -21.859  0.00  0.00    +0.144 HD
ATOM     33  H   UNL     1      28.913  -1.539 -24.457  0.00  0.00    +0.188 HD
ENDBRANCH  25  30
ENDBRANCH  21  22
ENDBRANCH   3  21
TORSDOF 5
ENDMDL
