MODEL 1
REMARK VINA RESULT:     -13.2      0.000      0.000
REMARK  Name = 71360
REMARK  8 active torsions:
REMARK  status: ('A' for Active; 'I' for Inactive)
REMARK    1  A    between atoms: N_1  and  C_18
REMARK    2  A    between atoms: C_2  and  C_11
REMARK    3  A    between atoms: C_18  and  C_19
REMARK    4  A    between atoms: C_19  and  C_20
REMARK    5  A    between atoms: C_20  and  O_21
REMARK    6  A    between atoms: O_21  and  C_22
REMARK    7  A    between atoms: C_23  and  O_31
REMARK    8  A    between atoms: C_27  and  C_29
REMARK                            x       y       z     vdW  Elec       q    Type
REMARK                         _______ _______ _______ _____ _____    ______ ____
ROOT
ATOM      1  N   UNL     1      35.326 -19.405 -20.261  0.00  0.00    +0.387 N 
ATOM      2  C   UNL     1      34.761 -17.997 -22.772  0.00  0.00    +0.039 C 
ATOM      3  C   UNL     1      35.859 -17.540 -21.799  0.00  0.00    -0.017 C 
ATOM      4  C   UNL     1      33.686 -18.790 -22.010  0.00  0.00    -0.017 C 
ATOM      5  C   UNL     1      36.404 -18.717 -20.984  0.00  0.00    -0.077 C 
ATOM      6  C   UNL     1      34.309 -19.922 -21.189  0.00  0.00    -0.077 C 
ATOM      7  H   UNL     1      34.875 -18.727 -19.647  0.00  0.00    -0.080 HD
ENDROOT
BRANCH   2  11
ATOM      8  F   UNL     1      32.826 -11.566 -23.137  0.00  0.00    -0.204 F 
ATOM      9  O   UNL     1      33.353 -15.836 -25.288  0.00  0.00    -0.354 OA
ATOM     10  N   UNL     1      33.839 -17.059 -24.846  0.00  0.00    -0.081 NA
ATOM     11  C   UNL     1      34.182 -16.854 -23.577  0.00  0.00    +0.100 A 
ATOM     12  C   UNL     1      33.946 -15.540 -23.149  0.00  0.00    +0.054 A 
ATOM     13  C   UNL     1      33.417 -14.930 -24.274  0.00  0.00    +0.179 A 
ATOM     14  C   UNL     1      34.102 -14.786 -21.976  0.00  0.00    +0.007 C 
ATOM     15  C   UNL     1      33.023 -13.597 -24.331  0.00  0.00    +0.070 C 
ATOM     16  C   UNL     1      33.715 -13.438 -21.998  0.00  0.00    +0.030 C 
ATOM     17  C   UNL     1      33.185 -12.857 -23.155  0.00  0.00    +0.143 C 
ENDBRANCH   2  11
BRANCH   1  18
ATOM     18  C   UNL     1      35.870 -20.490 -19.444  0.00  0.00    -0.074 C 
BRANCH  18  19
ATOM     19  C   UNL     1      34.963 -21.713 -19.517  0.00  0.00    +0.025 C 
BRANCH  19  20
ATOM     20  C   UNL     1      33.893 -21.681 -18.434  0.00  0.00    +0.203 C 
BRANCH  20  21
ATOM     21  O   UNL     1      34.337 -22.454 -17.327  0.00  0.00    -0.472 OA
BRANCH  21  22
ATOM     22  C   UNL     1      33.387 -22.824 -16.410  0.00  0.00    +0.172 C 
ATOM     23  C   UNL     1      33.766 -23.417 -15.211  0.00  0.00    +0.172 C 
ATOM     24  C   UNL     1      32.045 -22.600 -16.697  0.00  0.00    +0.040 C 
ATOM     25  C   UNL     1      32.790 -23.789 -14.286  0.00  0.00    +0.043 C 
ATOM     26  C   UNL     1      31.069 -22.973 -15.772  0.00  0.00    +0.006 C 
ATOM     27  C   UNL     1      31.442 -23.568 -14.567  0.00  0.00    +0.038 C 
BRANCH  27  29
ATOM     28  O   UNL     1      30.418 -23.495 -12.443  0.00  0.00    -0.291 OA
ATOM     29  C   UNL     1      30.424 -23.956 -13.602  0.00  0.00    +0.174 C 
ATOM     30  C   UNL     1      29.332 -24.945 -13.993  0.00  0.00    +0.077 C 
ENDBRANCH  27  29
BRANCH  23  31
ATOM     31  O   UNL     1      35.080 -23.638 -14.924  0.00  0.00    -0.468 OA
ATOM     32  C   UNL     1      35.690 -22.770 -13.971  0.00  0.00    +0.253 C 
ENDBRANCH  23  31
ENDBRANCH  21  22
ENDBRANCH  20  21
ENDBRANCH  19  20
ENDBRANCH  18  19
ENDBRANCH   1  18
TORSDOF 8
ENDMDL
MODEL 2
REMARK VINA RESULT:     -13.1      1.354      2.280
REMARK  Name = 71360
REMARK  8 active torsions:
REMARK  status: ('A' for Active; 'I' for Inactive)
REMARK    1  A    between atoms: N_1  and  C_18
REMARK    2  A    between atoms: C_2  and  C_11
REMARK    3  A    between atoms: C_18  and  C_19
REMARK    4  A    between atoms: C_19  and  C_20
REMARK    5  A    between atoms: C_20  and  O_21
REMARK    6  A    between atoms: O_21  and  C_22
REMARK    7  A    between atoms: C_23  and  O_31
REMARK    8  A    between atoms: C_27  and  C_29
REMARK                            x       y       z     vdW  Elec       q    Type
REMARK                         _______ _______ _______ _____ _____    ______ ____
ROOT
ATOM      1  N   UNL     1      34.789 -19.242 -20.678  0.00  0.00    +0.387 N 
ATOM      2  C   UNL     1      34.656 -17.478 -23.018  0.00  0.00    +0.039 C 
ATOM      3  C   UNL     1      35.303 -17.044 -21.693  0.00  0.00    -0.017 C 
ATOM      4  C   UNL     1      33.617 -18.580 -22.754  0.00  0.00    -0.017 C 
ATOM      5  C   UNL     1      35.845 -18.249 -20.918  0.00  0.00    -0.077 C 
ATOM      6  C   UNL     1      34.219 -19.729 -21.943  0.00  0.00    -0.077 C 
ATOM      7  H   UNL     1      34.043 -18.788 -20.151  0.00  0.00    -0.080 HD
ENDROOT
BRANCH   2  11
ATOM      8  F   UNL     1      32.602 -11.077 -23.198  0.00  0.00    -0.204 F 
ATOM      9  O   UNL     1      33.311 -15.240 -25.501  0.00  0.00    -0.354 OA
ATOM     10  N   UNL     1      33.804 -16.471 -25.089  0.00  0.00    -0.081 NA
ATOM     11  C   UNL     1      34.088 -16.313 -23.798  0.00  0.00    +0.100 A 
ATOM     12  C   UNL     1      33.806 -15.023 -23.327  0.00  0.00    +0.054 A 
ATOM     13  C   UNL     1      33.312 -14.377 -24.447  0.00  0.00    +0.179 A 
ATOM     14  C   UNL     1      33.896 -14.317 -22.118  0.00  0.00    +0.007 C 
ATOM     15  C   UNL     1      32.893 -13.051 -24.466  0.00  0.00    +0.070 C 
ATOM     16  C   UNL     1      33.481 -12.978 -22.100  0.00  0.00    +0.030 C 
ATOM     17  C   UNL     1      32.989 -12.358 -23.254  0.00  0.00    +0.143 C 
ENDBRANCH   2  11
BRANCH   1  18
ATOM     18  C   UNL     1      35.309 -20.359 -19.888  0.00  0.00    -0.074 C 
BRANCH  18  19
ATOM     19  C   UNL     1      34.237 -21.429 -19.716  0.00  0.00    +0.025 C 
BRANCH  19  20
ATOM     20  C   UNL     1      33.001 -20.875 -19.021  0.00  0.00    +0.203 C 
BRANCH  20  21
ATOM     21  O   UNL     1      32.164 -21.958 -18.638  0.00  0.00    -0.472 OA
BRANCH  21  22
ATOM     22  C   UNL     1      32.298 -22.420 -17.355  0.00  0.00    +0.172 C 
ATOM     23  C   UNL     1      31.204 -22.428 -16.496  0.00  0.00    +0.172 C 
ATOM     24  C   UNL     1      33.539 -22.876 -16.924  0.00  0.00    +0.040 C 
ATOM     25  C   UNL     1      31.353 -22.900 -15.192  0.00  0.00    +0.043 C 
ATOM     26  C   UNL     1      33.688 -23.349 -15.620  0.00  0.00    +0.006 C 
ATOM     27  C   UNL     1      32.595 -23.360 -14.754  0.00  0.00    +0.038 C 
BRANCH  27  29
ATOM     28  O   UNL     1      31.797 -24.371 -12.777  0.00  0.00    -0.291 OA
ATOM     29  C   UNL     1      32.750 -23.853 -13.393  0.00  0.00    +0.174 C 
ATOM     30  C   UNL     1      34.096 -23.745 -12.687  0.00  0.00    +0.077 C 
ENDBRANCH  27  29
BRANCH  23  31
ATOM     31  O   UNL     1      29.986 -21.983 -16.912  0.00  0.00    -0.468 OA
ATOM     32  C   UNL     1      28.838 -22.577 -16.310  0.00  0.00    +0.253 C 
ENDBRANCH  23  31
ENDBRANCH  21  22
ENDBRANCH  20  21
ENDBRANCH  19  20
ENDBRANCH  18  19
ENDBRANCH   1  18
TORSDOF 8
ENDMDL
MODEL 3
REMARK VINA RESULT:     -12.9      1.503      3.094
REMARK  Name = 71360
REMARK  8 active torsions:
REMARK  status: ('A' for Active; 'I' for Inactive)
REMARK    1  A    between atoms: N_1  and  C_18
REMARK    2  A    between atoms: C_2  and  C_11
REMARK    3  A    between atoms: C_18  and  C_19
REMARK    4  A    between atoms: C_19  and  C_20
REMARK    5  A    between atoms: C_20  and  O_21
REMARK    6  A    between atoms: O_21  and  C_22
REMARK    7  A    between atoms: C_23  and  O_31
REMARK    8  A    between atoms: C_27  and  C_29
REMARK                            x       y       z     vdW  Elec       q    Type
REMARK                         _______ _______ _______ _____ _____    ______ ____
ROOT
ATOM      1  N   UNL     1      34.510 -18.957 -21.115  0.00  0.00    +0.387 N 
ATOM      2  C   UNL     1      34.541 -16.920 -23.225  0.00  0.00    +0.039 C 
ATOM      3  C   UNL     1      34.744 -16.574 -21.742  0.00  0.00    -0.017 C 
ATOM      4  C   UNL     1      33.742 -18.227 -23.352  0.00  0.00    -0.017 C 
ATOM      5  C   UNL     1      35.343 -17.755 -20.973  0.00  0.00    -0.077 C 
ATOM      6  C   UNL     1      34.378 -19.348 -22.526  0.00  0.00    -0.077 C 
ATOM      7  H   UNL     1      33.579 -18.739 -20.760  0.00  0.00    -0.080 HD
ENDROOT
BRANCH   2  11
ATOM      8  F   UNL     1      32.502 -10.518 -23.514  0.00  0.00    -0.204 F 
ATOM      9  O   UNL     1      33.046 -14.768 -25.699  0.00  0.00    -0.354 OA
ATOM     10  N   UNL     1      33.560 -15.987 -25.273  0.00  0.00    -0.081 NA
ATOM     11  C   UNL     1      33.927 -15.782 -24.011  0.00  0.00    +0.100 A 
ATOM     12  C   UNL     1      33.681 -14.474 -23.572  0.00  0.00    +0.054 A 
ATOM     13  C   UNL     1      33.118 -13.867 -24.681  0.00  0.00    +0.179 A 
ATOM     14  C   UNL     1      33.852 -13.724 -22.398  0.00  0.00    +0.007 C 
ATOM     15  C   UNL     1      32.703 -12.540 -24.723  0.00  0.00    +0.070 C 
ATOM     16  C   UNL     1      33.444 -12.382 -22.405  0.00  0.00    +0.030 C 
ATOM     17  C   UNL     1      32.880 -11.803 -23.547  0.00  0.00    +0.143 C 
ENDBRANCH   2  11
BRANCH   1  18
ATOM     18  C   UNL     1      35.065 -20.060 -20.329  0.00  0.00    -0.074 C 
BRANCH  18  19
ATOM     19  C   UNL     1      33.959 -20.767 -19.554  0.00  0.00    +0.025 C 
BRANCH  19  20
ATOM     20  C   UNL     1      34.491 -21.974 -18.795  0.00  0.00    +0.203 C 
BRANCH  20  21
ATOM     21  O   UNL     1      33.849 -22.041 -17.529  0.00  0.00    -0.472 OA
BRANCH  21  22
ATOM     22  C   UNL     1      34.643 -22.315 -16.447  0.00  0.00    +0.172 C 
ATOM     23  C   UNL     1      34.102 -22.925 -15.319  0.00  0.00    +0.172 C 
ATOM     24  C   UNL     1      35.990 -21.975 -16.490  0.00  0.00    +0.040 C 
ATOM     25  C   UNL     1      34.920 -23.200 -14.223  0.00  0.00    +0.043 C 
ATOM     26  C   UNL     1      36.808 -22.249 -15.393  0.00  0.00    +0.006 C 
ATOM     27  C   UNL     1      36.273 -22.861 -14.260  0.00  0.00    +0.038 C 
BRANCH  27  29
ATOM     28  O   UNL     1      37.349 -22.289 -12.240  0.00  0.00    -0.291 OA
ATOM     29  C   UNL     1      37.126 -23.147 -13.117  0.00  0.00    +0.174 C 
ATOM     30  C   UNL     1      37.772 -24.520 -12.966  0.00  0.00    +0.077 C 
ENDBRANCH  27  29
BRANCH  23  31
ATOM     31  O   UNL     1      32.783 -23.262 -15.271  0.00  0.00    -0.468 OA
ATOM     32  C   UNL     1      32.087 -22.984 -14.058  0.00  0.00    +0.253 C 
ENDBRANCH  23  31
ENDBRANCH  21  22
ENDBRANCH  20  21
ENDBRANCH  19  20
ENDBRANCH  18  19
ENDBRANCH   1  18
TORSDOF 8
ENDMDL
MODEL 4
REMARK VINA RESULT:     -12.8      3.517     11.026
REMARK  Name = 71360
REMARK  8 active torsions:
REMARK  status: ('A' for Active; 'I' for Inactive)
REMARK    1  A    between atoms: N_1  and  C_18
REMARK    2  A    between atoms: C_2  and  C_11
REMARK    3  A    between atoms: C_18  and  C_19
REMARK    4  A    between atoms: C_19  and  C_20
REMARK    5  A    between atoms: C_20  and  O_21
REMARK    6  A    between atoms: O_21  and  C_22
REMARK    7  A    between atoms: C_23  and  O_31
REMARK    8  A    between atoms: C_27  and  C_29
REMARK                            x       y       z     vdW  Elec       q    Type
REMARK                         _______ _______ _______ _____ _____    ______ ____
ROOT
ATOM      1  N   UNL     1      34.060 -19.794 -20.256  0.00  0.00    +0.387 N 
ATOM      2  C   UNL     1      33.732 -22.020 -18.374  0.00  0.00    +0.039 C 
ATOM      3  C   UNL     1      32.574 -21.084 -18.754  0.00  0.00    -0.017 C 
ATOM      4  C   UNL     1      35.074 -21.297 -18.572  0.00  0.00    -0.017 C 
ATOM      5  C   UNL     1      32.772 -20.494 -20.153  0.00  0.00    -0.077 C 
ATOM      6  C   UNL     1      35.182 -20.702 -19.977  0.00  0.00    -0.077 C 
ATOM      7  H   UNL     1      34.072 -19.054 -19.554  0.00  0.00    -0.080 HD
ENDROOT
BRANCH   2  11
ATOM      8  F   UNL     1      29.770 -23.798 -13.238  0.00  0.00    -0.204 F 
ATOM      9  O   UNL     1      34.189 -23.479 -15.111  0.00  0.00    -0.354 OA
ATOM     10  N   UNL     1      34.664 -23.007 -16.328  0.00  0.00    -0.081 NA
ATOM     11  C   UNL     1      33.581 -22.601 -16.985  0.00  0.00    +0.100 A 
ATOM     12  C   UNL     1      32.396 -22.785 -16.258  0.00  0.00    +0.054 A 
ATOM     13  C   UNL     1      32.835 -23.345 -15.071  0.00  0.00    +0.179 A 
ATOM     14  C   UNL     1      31.023 -22.554 -16.436  0.00  0.00    +0.007 C 
ATOM     15  C   UNL     1      32.000 -23.708 -14.019  0.00  0.00    +0.070 C 
ATOM     16  C   UNL     1      30.152 -22.908 -15.395  0.00  0.00    +0.030 C 
ATOM     17  C   UNL     1      30.634 -23.473 -14.210  0.00  0.00    +0.143 C 
ENDBRANCH   2  11
BRANCH   1  18
ATOM     18  C   UNL     1      34.208 -19.189 -21.580  0.00  0.00    -0.074 C 
BRANCH  18  19
ATOM     19  C   UNL     1      35.336 -18.163 -21.569  0.00  0.00    +0.025 C 
BRANCH  19  20
ATOM     20  C   UNL     1      34.823 -16.772 -21.223  0.00  0.00    +0.203 C 
BRANCH  20  21
ATOM     21  O   UNL     1      34.612 -16.047 -22.427  0.00  0.00    -0.472 OA
BRANCH  21  22
ATOM     22  C   UNL     1      33.941 -14.857 -22.323  0.00  0.00    +0.172 C 
ATOM     23  C   UNL     1      33.400 -14.257 -23.455  0.00  0.00    +0.172 C 
ATOM     24  C   UNL     1      33.810 -14.259 -21.074  0.00  0.00    +0.040 C 
ATOM     25  C   UNL     1      32.719 -13.045 -23.337  0.00  0.00    +0.043 C 
ATOM     26  C   UNL     1      33.128 -13.047 -20.956  0.00  0.00    +0.006 C 
ATOM     27  C   UNL     1      32.584 -12.440 -22.087  0.00  0.00    +0.038 C 
BRANCH  27  29
ATOM     28  O   UNL     1      32.050 -10.248 -22.777  0.00  0.00    -0.291 OA
ATOM     29  C   UNL     1      31.873 -11.177 -21.964  0.00  0.00    +0.174 C 
ATOM     30  C   UNL     1      30.884 -10.961 -20.823  0.00  0.00    +0.077 C 
ENDBRANCH  27  29
BRANCH  23  31
ATOM     31  O   UNL     1      33.525 -14.838 -24.681  0.00  0.00    -0.468 OA
ATOM     32  C   UNL     1      33.010 -14.115 -25.797  0.00  0.00    +0.253 C 
ENDBRANCH  23  31
ENDBRANCH  21  22
ENDBRANCH  20  21
ENDBRANCH  19  20
ENDBRANCH  18  19
ENDBRANCH   1  18
TORSDOF 8
ENDMDL
MODEL 5
REMARK VINA RESULT:     -12.6      4.653     11.711
REMARK  Name = 71360
REMARK  8 active torsions:
REMARK  status: ('A' for Active; 'I' for Inactive)
REMARK    1  A    between atoms: N_1  and  C_18
REMARK    2  A    between atoms: C_2  and  C_11
REMARK    3  A    between atoms: C_18  and  C_19
REMARK    4  A    between atoms: C_19  and  C_20
REMARK    5  A    between atoms: C_20  and  O_21
REMARK    6  A    between atoms: O_21  and  C_22
REMARK    7  A    between atoms: C_23  and  O_31
REMARK    8  A    between atoms: C_27  and  C_29
REMARK                            x       y       z     vdW  Elec       q    Type
REMARK                         _______ _______ _______ _____ _____    ______ ____
ROOT
ATOM      1  N   UNL     1      34.390 -15.037 -23.515  0.00  0.00    +0.387 N 
ATOM      2  C   UNL     1      34.212 -17.409 -21.798  0.00  0.00    +0.039 C 
ATOM      3  C   UNL     1      34.528 -16.011 -21.243  0.00  0.00    -0.017 C 
ATOM      4  C   UNL     1      34.625 -17.490 -23.276  0.00  0.00    -0.017 C 
ATOM      5  C   UNL     1      33.927 -14.914 -22.126  0.00  0.00    -0.077 C 
ATOM      6  C   UNL     1      34.019 -16.340 -24.085  0.00  0.00    -0.077 C 
ATOM      7  H   UNL     1      35.409 -14.973 -23.514  0.00  0.00    -0.080 HD
ENDROOT
BRANCH   2  11
ATOM      8  F   UNL     1      33.421 -23.069 -18.252  0.00  0.00    -0.204 F 
ATOM      9  O   UNL     1      36.346 -19.646 -19.946  0.00  0.00    -0.354 OA
ATOM     10  N   UNL     1      36.122 -18.517 -20.724  0.00  0.00    -0.081 NA
ATOM     11  C   UNL     1      34.813 -18.518 -20.963  0.00  0.00    +0.100 A 
ATOM     12  C   UNL     1      34.148 -19.605 -20.377  0.00  0.00    +0.054 A 
ATOM     13  C   UNL     1      35.166 -20.294 -19.740  0.00  0.00    +0.179 A 
ATOM     14  C   UNL     1      32.837 -20.098 -20.296  0.00  0.00    +0.007 C 
ATOM     15  C   UNL     1      34.984 -21.465 -19.011  0.00  0.00    +0.070 C 
ATOM     16  C   UNL     1      32.617 -21.277 -19.568  0.00  0.00    +0.030 C 
ATOM     17  C   UNL     1      33.671 -21.946 -18.938  0.00  0.00    +0.143 C 
ENDBRANCH   2  11
BRANCH   1  18
ATOM     18  C   UNL     1      33.852 -13.950 -24.332  0.00  0.00    -0.074 C 
BRANCH  18  19
ATOM     19  C   UNL     1      32.958 -13.047 -23.489  0.00  0.00    +0.025 C 
BRANCH  19  20
ATOM     20  C   UNL     1      33.369 -11.586 -23.606  0.00  0.00    +0.203 C 
BRANCH  20  21
ATOM     21  O   UNL     1      32.199 -10.786 -23.707  0.00  0.00    -0.472 OA
BRANCH  21  22
ATOM     22  C   UNL     1      32.106  -9.716 -22.855  0.00  0.00    +0.172 C 
ATOM     23  C   UNL     1      31.443  -9.845 -21.640  0.00  0.00    +0.172 C 
ATOM     24  C   UNL     1      32.681  -8.505 -23.223  0.00  0.00    +0.040 C 
ATOM     25  C   UNL     1      31.354  -8.749 -20.781  0.00  0.00    +0.043 C 
ATOM     26  C   UNL     1      32.592  -7.408 -22.364  0.00  0.00    +0.006 C 
ATOM     27  C   UNL     1      31.929  -7.531 -21.144  0.00  0.00    +0.038 C 
BRANCH  27  29
ATOM     28  O   UNL     1      32.332  -6.417 -19.104  0.00  0.00    -0.291 OA
ATOM     29  C   UNL     1      31.837  -6.388 -20.249  0.00  0.00    +0.174 C 
ATOM     30  C   UNL     1      31.126  -5.116 -20.697  0.00  0.00    +0.077 C 
ENDBRANCH  27  29
BRANCH  23  31
ATOM     31  O   UNL     1      30.878 -11.030 -21.274  0.00  0.00    -0.468 OA
ATOM     32  C   UNL     1      31.612 -11.843 -20.361  0.00  0.00    +0.253 C 
ENDBRANCH  23  31
ENDBRANCH  21  22
ENDBRANCH  20  21
ENDBRANCH  19  20
ENDBRANCH  18  19
ENDBRANCH   1  18
TORSDOF 8
ENDMDL
MODEL 6
REMARK VINA RESULT:     -12.5      2.364      3.701
REMARK  Name = 71360
REMARK  8 active torsions:
REMARK  status: ('A' for Active; 'I' for Inactive)
REMARK    1  A    between atoms: N_1  and  C_18
REMARK    2  A    between atoms: C_2  and  C_11
REMARK    3  A    between atoms: C_18  and  C_19
REMARK    4  A    between atoms: C_19  and  C_20
REMARK    5  A    between atoms: C_20  and  O_21
REMARK    6  A    between atoms: O_21  and  C_22
REMARK    7  A    between atoms: C_23  and  O_31
REMARK    8  A    between atoms: C_27  and  C_29
REMARK                            x       y       z     vdW  Elec       q    Type
REMARK                         _______ _______ _______ _____ _____    ______ ____
ROOT
ATOM      1  N   UNL     1      35.104 -16.822 -22.681  0.00  0.00    +0.387 N 
ATOM      2  C   UNL     1      33.261 -14.544 -22.834  0.00  0.00    +0.039 C 
ATOM      3  C   UNL     1      33.839 -15.223 -24.085  0.00  0.00    -0.017 C 
ATOM      4  C   UNL     1      34.202 -14.766 -21.638  0.00  0.00    -0.017 C 
ATOM      5  C   UNL     1      34.178 -16.692 -23.814  0.00  0.00    -0.077 C 
ATOM      6  C   UNL     1      34.527 -16.250 -21.455  0.00  0.00    -0.077 C 
ATOM      7  H   UNL     1      35.950 -16.297 -22.904  0.00  0.00    -0.080 HD
ENDROOT
BRANCH   2  11
ATOM      8  F   UNL     1      30.712  -8.757 -20.545  0.00  0.00    -0.204 F 
ATOM      9  O   UNL     1      32.826 -11.202 -24.108  0.00  0.00    -0.354 OA
ATOM     10  N   UNL     1      33.246 -12.521 -24.224  0.00  0.00    -0.081 NA
ATOM     11  C   UNL     1      32.937 -13.084 -23.059  0.00  0.00    +0.100 A 
ATOM     12  C   UNL     1      32.328 -12.194 -22.163  0.00  0.00    +0.054 A 
ATOM     13  C   UNL     1      32.278 -11.009 -22.876  0.00  0.00    +0.179 A 
ATOM     14  C   UNL     1      31.814 -12.226 -20.857  0.00  0.00    +0.007 C 
ATOM     15  C   UNL     1      31.748  -9.820 -22.386  0.00  0.00    +0.070 C 
ATOM     16  C   UNL     1      31.271 -11.045 -20.331  0.00  0.00    +0.030 C 
ATOM     17  C   UNL     1      31.239  -9.865 -21.083  0.00  0.00    +0.143 C 
ENDBRANCH   2  11
BRANCH   1  18
ATOM     18  C   UNL     1      35.462 -18.225 -22.471  0.00  0.00    -0.074 C 
BRANCH  18  19
ATOM     19  C   UNL     1      35.384 -18.574 -20.989  0.00  0.00    +0.025 C 
BRANCH  19  20
ATOM     20  C   UNL     1      34.503 -19.792 -20.747  0.00  0.00    +0.203 C 
BRANCH  20  21
ATOM     21  O   UNL     1      35.212 -20.719 -19.937  0.00  0.00    -0.472 OA
BRANCH  21  22
ATOM     22  C   UNL     1      34.518 -21.299 -18.908  0.00  0.00    +0.172 C 
ATOM     23  C   UNL     1      35.182 -21.696 -17.752  0.00  0.00    +0.172 C 
ATOM     24  C   UNL     1      33.146 -21.485 -19.035  0.00  0.00    +0.040 C 
ATOM     25  C   UNL     1      34.464 -22.286 -16.711  0.00  0.00    +0.043 C 
ATOM     26  C   UNL     1      32.428 -22.074 -17.994  0.00  0.00    +0.006 C 
ATOM     27  C   UNL     1      33.087 -22.475 -16.832  0.00  0.00    +0.038 C 
BRANCH  27  29
ATOM     28  O   UNL     1      32.915 -23.677 -14.809  0.00  0.00    -0.291 OA
ATOM     29  C   UNL     1      32.338 -23.089 -15.746  0.00  0.00    +0.174 C 
ATOM     30  C   UNL     1      30.815 -23.025 -15.731  0.00  0.00    +0.077 C 
ENDBRANCH  27  29
BRANCH  23  31
ATOM     31  O   UNL     1      36.526 -21.516 -17.621  0.00  0.00    -0.468 OA
ATOM     32  C   UNL     1      36.975 -20.801 -16.472  0.00  0.00    +0.253 C 
ENDBRANCH  23  31
ENDBRANCH  21  22
ENDBRANCH  20  21
ENDBRANCH  19  20
ENDBRANCH  18  19
ENDBRANCH   1  18
TORSDOF 8
ENDMDL
MODEL 7
REMARK VINA RESULT:     -12.5      4.896     12.061
REMARK  Name = 71360
REMARK  8 active torsions:
REMARK  status: ('A' for Active; 'I' for Inactive)
REMARK    1  A    between atoms: N_1  and  C_18
REMARK    2  A    between atoms: C_2  and  C_11
REMARK    3  A    between atoms: C_18  and  C_19
REMARK    4  A    between atoms: C_19  and  C_20
REMARK    5  A    between atoms: C_20  and  O_21
REMARK    6  A    between atoms: O_21  and  C_22
REMARK    7  A    between atoms: C_23  and  O_31
REMARK    8  A    between atoms: C_27  and  C_29
REMARK                            x       y       z     vdW  Elec       q    Type
REMARK                         _______ _______ _______ _____ _____    ______ ____
ROOT
ATOM      1  N   UNL     1      33.395 -15.099 -23.157  0.00  0.00    +0.387 N 
ATOM      2  C   UNL     1      35.115 -17.051 -21.802  0.00  0.00    +0.039 C 
ATOM      3  C   UNL     1      34.440 -17.343 -23.151  0.00  0.00    -0.017 C 
ATOM      4  C   UNL     1      34.313 -15.985 -21.037  0.00  0.00    -0.017 C 
ATOM      5  C   UNL     1      34.192 -16.054 -23.939  0.00  0.00    -0.077 C 
ATOM      6  C   UNL     1      34.071 -14.745 -21.901  0.00  0.00    -0.077 C 
ATOM      7  H   UNL     1      32.509 -15.546 -22.922  0.00  0.00    -0.080 HD
ENDROOT
BRANCH   2  11
ATOM      8  F   UNL     1      32.679 -22.539 -18.774  0.00  0.00    -0.204 F 
ATOM      9  O   UNL     1      36.464 -19.787 -19.884  0.00  0.00    -0.354 OA
ATOM     10  N   UNL     1      36.590 -18.603 -20.601  0.00  0.00    -0.081 NA
ATOM     11  C   UNL     1      35.352 -18.301 -20.984  0.00  0.00    +0.100 A 
ATOM     12  C   UNL     1      34.399 -19.236 -20.555  0.00  0.00    +0.054 A 
ATOM     13  C   UNL     1      35.155 -20.162 -19.857  0.00  0.00    +0.179 A 
ATOM     14  C   UNL     1      33.013 -19.426 -20.656  0.00  0.00    +0.007 C 
ATOM     15  C   UNL     1      34.634 -21.294 -19.238  0.00  0.00    +0.070 C 
ATOM     16  C   UNL     1      32.453 -20.556 -20.043  0.00  0.00    +0.030 C 
ATOM     17  C   UNL     1      33.250 -21.471 -19.347  0.00  0.00    +0.143 C 
ENDBRANCH   2  11
BRANCH   1  18
ATOM     18  C   UNL     1      33.120 -13.897 -23.945  0.00  0.00    -0.074 C 
BRANCH  18  19
ATOM     19  C   UNL     1      33.470 -12.648 -23.144  0.00  0.00    +0.025 C 
BRANCH  19  20
ATOM     20  C   UNL     1      32.676 -11.438 -23.619  0.00  0.00    +0.203 C 
BRANCH  20  21
ATOM     21  O   UNL     1      31.841 -10.992 -22.559  0.00  0.00    -0.472 OA
BRANCH  21  22
ATOM     22  C   UNL     1      31.777  -9.639 -22.350  0.00  0.00    +0.172 C 
ATOM     23  C   UNL     1      31.324  -9.139 -21.134  0.00  0.00    +0.172 C 
ATOM     24  C   UNL     1      32.168  -8.776 -23.368  0.00  0.00    +0.040 C 
ATOM     25  C   UNL     1      31.262  -7.760 -20.933  0.00  0.00    +0.043 C 
ATOM     26  C   UNL     1      32.107  -7.397 -23.168  0.00  0.00    +0.006 C 
ATOM     27  C   UNL     1      31.654  -6.889 -21.951  0.00  0.00    +0.038 C 
BRANCH  27  29
ATOM     28  O   UNL     1      32.297  -4.665 -22.404  0.00  0.00    -0.291 OA
ATOM     29  C   UNL     1      31.590  -5.451 -21.741  0.00  0.00    +0.174 C 
ATOM     30  C   UNL     1      30.647  -4.868 -20.695  0.00  0.00    +0.077 C 
ENDBRANCH  27  29
BRANCH  23  31
ATOM     31  O   UNL     1      30.940  -9.979 -20.133  0.00  0.00    -0.468 OA
ATOM     32  C   UNL     1      31.378  -9.659 -18.814  0.00  0.00    +0.253 C 
ENDBRANCH  23  31
ENDBRANCH  21  22
ENDBRANCH  20  21
ENDBRANCH  19  20
ENDBRANCH  18  19
ENDBRANCH   1  18
TORSDOF 8
ENDMDL
MODEL 8
REMARK VINA RESULT:     -12.4      3.671     10.722
REMARK  Name = 71360
REMARK  8 active torsions:
REMARK  status: ('A' for Active; 'I' for Inactive)
REMARK    1  A    between atoms: N_1  and  C_18
REMARK    2  A    between atoms: C_2  and  C_11
REMARK    3  A    between atoms: C_18  and  C_19
REMARK    4  A    between atoms: C_19  and  C_20
REMARK    5  A    between atoms: C_20  and  O_21
REMARK    6  A    between atoms: O_21  and  C_22
REMARK    7  A    between atoms: C_23  and  O_31
REMARK    8  A    between atoms: C_27  and  C_29
REMARK                            x       y       z     vdW  Elec       q    Type
REMARK                         _______ _______ _______ _____ _____    ______ ____
ROOT
ATOM      1  N   UNL     1      35.044 -18.600 -20.993  0.00  0.00    +0.387 N 
ATOM      2  C   UNL     1      34.779 -21.103 -19.486  0.00  0.00    +0.039 C 
ATOM      3  C   UNL     1      33.564 -20.260 -19.905  0.00  0.00    -0.017 C 
ATOM      4  C   UNL     1      36.026 -20.210 -19.389  0.00  0.00    -0.017 C 
ATOM      5  C   UNL     1      33.860 -19.451 -21.171  0.00  0.00    -0.077 C 
ATOM      6  C   UNL     1      36.233 -19.404 -20.674  0.00  0.00    -0.077 C 
ATOM      7  H   UNL     1      34.867 -17.975 -20.206  0.00  0.00    -0.080 HD
ENDROOT
BRANCH   2  11
ATOM      8  F   UNL     1      36.812 -23.065 -13.383  0.00  0.00    -0.204 F 
ATOM      9  O   UNL     1      33.486 -23.199 -16.855  0.00  0.00    -0.354 OA
ATOM     10  N   UNL     1      33.407 -22.602 -18.107  0.00  0.00    -0.081 NA
ATOM     11  C   UNL     1      34.530 -21.897 -18.222  0.00  0.00    +0.100 A 
ATOM     12  C   UNL     1      35.360 -21.996 -17.096  0.00  0.00    +0.054 A 
ATOM     13  C   UNL     1      34.653 -22.837 -16.254  0.00  0.00    +0.179 A 
ATOM     14  C   UNL     1      36.602 -21.497 -16.676  0.00  0.00    +0.007 C 
ATOM     15  C   UNL     1      35.089 -23.231 -14.993  0.00  0.00    +0.070 C 
ATOM     16  C   UNL     1      37.073 -21.875 -15.410  0.00  0.00    +0.030 C 
ATOM     17  C   UNL     1      36.329 -22.726 -14.586  0.00  0.00    +0.143 C 
ENDBRANCH   2  11
BRANCH   1  18
ATOM     18  C   UNL     1      35.280 -17.793 -22.190  0.00  0.00    -0.074 C 
BRANCH  18  19
ATOM     19  C   UNL     1      34.235 -18.108 -23.254  0.00  0.00    +0.025 C 
BRANCH  19  20
ATOM     20  C   UNL     1      33.770 -16.849 -23.972  0.00  0.00    +0.203 C 
BRANCH  20  21
ATOM     21  O   UNL     1      34.548 -15.749 -23.521  0.00  0.00    -0.472 OA
BRANCH  21  22
ATOM     22  C   UNL     1      33.865 -14.681 -22.998  0.00  0.00    +0.172 C 
ATOM     23  C   UNL     1      33.113 -13.857 -23.829  0.00  0.00    +0.172 C 
ATOM     24  C   UNL     1      33.936 -14.434 -21.632  0.00  0.00    +0.040 C 
ATOM     25  C   UNL     1      32.422 -12.774 -23.285  0.00  0.00    +0.043 C 
ATOM     26  C   UNL     1      33.246 -13.350 -21.088  0.00  0.00    +0.006 C 
ATOM     27  C   UNL     1      32.489 -12.520 -21.915  0.00  0.00    +0.038 C 
BRANCH  27  29
ATOM     28  O   UNL     1      31.453 -11.359 -20.141  0.00  0.00    -0.291 OA
ATOM     29  C   UNL     1      31.769 -11.390 -21.348  0.00  0.00    +0.174 C 
ATOM     30  C   UNL     1      31.382 -10.207 -22.228  0.00  0.00    +0.077 C 
ENDBRANCH  27  29
BRANCH  23  31
ATOM     31  O   UNL     1      33.038 -14.095 -25.168  0.00  0.00    -0.468 OA
ATOM     32  C   UNL     1      32.650 -13.004 -25.999  0.00  0.00    +0.253 C 
ENDBRANCH  23  31
ENDBRANCH  21  22
ENDBRANCH  20  21
ENDBRANCH  19  20
ENDBRANCH  18  19
ENDBRANCH   1  18
TORSDOF 8
ENDMDL
MODEL 9
REMARK VINA RESULT:     -12.4      2.464      4.260
REMARK  Name = 71360
REMARK  8 active torsions:
REMARK  status: ('A' for Active; 'I' for Inactive)
REMARK    1  A    between atoms: N_1  and  C_18
REMARK    2  A    between atoms: C_2  and  C_11
REMARK    3  A    between atoms: C_18  and  C_19
REMARK    4  A    between atoms: C_19  and  C_20
REMARK    5  A    between atoms: C_20  and  O_21
REMARK    6  A    between atoms: O_21  and  C_22
REMARK    7  A    between atoms: C_23  and  O_31
REMARK    8  A    between atoms: C_27  and  C_29
REMARK                            x       y       z     vdW  Elec       q    Type
REMARK                         _______ _______ _______ _____ _____    ______ ____
ROOT
ATOM      1  N   UNL     1      35.132 -16.939 -22.539  0.00  0.00    +0.387 N 
ATOM      2  C   UNL     1      33.303 -14.657 -22.766  0.00  0.00    +0.039 C 
ATOM      3  C   UNL     1      33.938 -15.331 -23.992  0.00  0.00    -0.017 C 
ATOM      4  C   UNL     1      34.186 -14.887 -21.529  0.00  0.00    -0.017 C 
ATOM      5  C   UNL     1      34.261 -16.801 -23.714  0.00  0.00    -0.077 C 
ATOM      6  C   UNL     1      34.499 -16.373 -21.339  0.00  0.00    -0.077 C 
ATOM      7  H   UNL     1      35.989 -16.415 -22.719  0.00  0.00    -0.080 HD
ENDROOT
BRANCH   2  11
ATOM      8  F   UNL     1      30.724  -8.859 -20.539  0.00  0.00    -0.204 F 
ATOM      9  O   UNL     1      32.919 -11.311 -24.047  0.00  0.00    -0.354 OA
ATOM     10  N   UNL     1      33.335 -12.632 -24.154  0.00  0.00    -0.081 NA
ATOM     11  C   UNL     1      32.993 -13.195 -22.998  0.00  0.00    +0.100 A 
ATOM     12  C   UNL     1      32.365 -12.303 -22.117  0.00  0.00    +0.054 A 
ATOM     13  C   UNL     1      32.339 -11.117 -22.830  0.00  0.00    +0.179 A 
ATOM     14  C   UNL     1      31.816 -12.333 -20.826  0.00  0.00    +0.007 C 
ATOM     15  C   UNL     1      31.803  -9.926 -22.353  0.00  0.00    +0.070 C 
ATOM     16  C   UNL     1      31.265 -11.150 -20.313  0.00  0.00    +0.030 C 
ATOM     17  C   UNL     1      31.259  -9.969 -21.064  0.00  0.00    +0.143 C 
ENDBRANCH   2  11
BRANCH   1  18
ATOM     18  C   UNL     1      35.477 -18.344 -22.320  0.00  0.00    -0.074 C 
BRANCH  18  19
ATOM     19  C   UNL     1      34.683 -18.907 -21.147  0.00  0.00    +0.025 C 
BRANCH  19  20
ATOM     20  C   UNL     1      35.526 -19.853 -20.303  0.00  0.00    +0.203 C 
BRANCH  20  21
ATOM     21  O   UNL     1      34.680 -20.851 -19.747  0.00  0.00    -0.472 OA
BRANCH  21  22
ATOM     22  C   UNL     1      35.008 -21.314 -18.500  0.00  0.00    +0.172 C 
ATOM     23  C   UNL     1      34.068 -22.003 -17.740  0.00  0.00    +0.172 C 
ATOM     24  C   UNL     1      36.287 -21.086 -18.006  0.00  0.00    +0.040 C 
ATOM     25  C   UNL     1      34.413 -22.470 -16.472  0.00  0.00    +0.043 C 
ATOM     26  C   UNL     1      36.632 -21.553 -16.737  0.00  0.00    +0.006 C 
ATOM     27  C   UNL     1      35.695 -22.244 -15.970  0.00  0.00    +0.038 C 
BRANCH  27  29
ATOM     28  O   UNL     1      37.245 -22.789 -14.277  0.00  0.00    -0.291 OA
ATOM     29  C   UNL     1      36.055 -22.732 -14.647  0.00  0.00    +0.174 C 
ATOM     30  C   UNL     1      34.972 -23.186 -13.675  0.00  0.00    +0.077 C 
ENDBRANCH  27  29
BRANCH  23  31
ATOM     31  O   UNL     1      32.813 -22.231 -18.219  0.00  0.00    -0.468 OA
ATOM     32  C   UNL     1      31.762 -22.330 -17.261  0.00  0.00    +0.253 C 
ENDBRANCH  23  31
ENDBRANCH  21  22
ENDBRANCH  20  21
ENDBRANCH  19  20
ENDBRANCH  18  19
ENDBRANCH   1  18
TORSDOF 8
ENDMDL
