MODEL 1
REMARK VINA RESULT:     -11.0      0.000      0.000
REMARK  Name = 23661697
REMARK  6 active torsions:
REMARK  status: ('A' for Active; 'I' for Inactive)
REMARK    1  A    between atoms: C_10  and  C_17
REMARK    2  A    between atoms: C_12  and  C_16
REMARK    3  A    between atoms: C_17  and  C_18
REMARK    4  A    between atoms: C_18  and  N_19
REMARK    5  A    between atoms: C_18  and  C_23
REMARK    6  A    between atoms: C_23  and  C_27
REMARK                            x       y       z     vdW  Elec       q    Type
REMARK                         _______ _______ _______ _____ _____    ______ ____
ROOT
ATOM      1  O   UNL     1      32.149 -19.833 -20.760  0.00  0.00    -0.275 OA
ATOM      2  N   UNL     1      33.894 -20.886 -19.636  0.00  0.00    -0.272 N 
ATOM      3  N   UNL     1      34.417 -22.223 -17.275  0.00  0.00    -0.176 N 
ATOM      4  N   UNL     1      36.520 -21.667 -17.115  0.00  0.00    -0.332 NA
ATOM      5  N   UNL     1      34.764 -22.721 -16.082  0.00  0.00    -0.107 NA
ATOM      6  C   UNL     1      35.324 -20.942 -19.233  0.00  0.00    +0.145 C 
ATOM      7  C   UNL     1      33.069 -22.058 -19.296  0.00  0.00    +0.117 C 
ATOM      8  C   UNL     1      33.071 -22.300 -17.791  0.00  0.00    +0.141 C 
ATOM      9  C   UNL     1      35.458 -21.589 -17.891  0.00  0.00    +0.209 C 
ATOM     10  C   UNL     1      33.319 -19.843 -20.369  0.00  0.00    +0.224 C 
ATOM     11  C   UNL     1      36.153 -21.687 -20.280  0.00  0.00    +0.031 C 
ATOM     12  C   UNL     1      36.051 -22.362 -16.033  0.00  0.00    +0.176 C 
ENDROOT
BRANCH  12  16
ATOM     13  F   UNL     1      36.942 -21.701 -13.944  0.00  0.00    -0.157 F 
ATOM     14  F   UNL     1      36.516 -23.815 -14.220  0.00  0.00    -0.157 F 
ATOM     15  F   UNL     1      38.202 -22.902 -15.256  0.00  0.00    -0.157 F 
ATOM     16  C   UNL     1      36.906 -22.689 -14.887  0.00  0.00    +0.490 C 
ENDBRANCH  12  16
BRANCH  10  17
ATOM     17  C   UNL     1      34.205 -18.660 -20.673  0.00  0.00    +0.064 C 
BRANCH  17  18
ATOM     18  C   UNL     1      34.106 -18.243 -22.141  0.00  0.00    -0.052 C 
BRANCH  18  19
ATOM     19  N   UNL     1      34.473 -19.412 -22.951  0.00  0.00    +0.382 N 
ATOM     20  H   UNL     1      35.000 -20.070 -22.377  0.00  0.00    -0.089 HD
ATOM     21  H   UNL     1      35.047 -19.114 -23.739  0.00  0.00    -0.089 HD
ATOM     22  H   UNL     1      33.627 -19.865 -23.298  0.00  0.00    -0.089 HD
ENDBRANCH  18  19
BRANCH  18  23
ATOM     23  C   UNL     1      35.048 -17.078 -22.513  0.00  0.00    +0.007 C 
BRANCH  23  27
ATOM     24  F   UNL     1      34.379 -15.093 -20.616  0.00  0.00    -0.204 F 
ATOM     25  F   UNL     1      33.028 -14.144 -25.830  0.00  0.00    -0.202 F 
ATOM     26  F   UNL     1      32.433 -12.300 -23.903  0.00  0.00    -0.202 F 
ATOM     27  C   UNL     1      34.345 -15.793 -22.883  0.00  0.00    +0.006 C 
ATOM     28  C   UNL     1      34.050 -14.868 -21.895  0.00  0.00    +0.138 C 
ATOM     29  C   UNL     1      34.009 -15.565 -24.208  0.00  0.00    +0.030 C 
ATOM     30  C   UNL     1      33.359 -14.380 -24.553  0.00  0.00    +0.167 C 
ATOM     31  C   UNL     1      33.401 -13.683 -22.241  0.00  0.00    +0.061 C 
ATOM     32  C   UNL     1      33.055 -13.439 -23.570  0.00  0.00    +0.170 C 
ENDBRANCH  23  27
ENDBRANCH  18  23
ENDBRANCH  17  18
ENDBRANCH  10  17
TORSDOF 6
ENDMDL
MODEL 2
REMARK VINA RESULT:     -10.5      7.661     13.697
REMARK  Name = 23661697
REMARK  6 active torsions:
REMARK  status: ('A' for Active; 'I' for Inactive)
REMARK    1  A    between atoms: C_10  and  C_17
REMARK    2  A    between atoms: C_12  and  C_16
REMARK    3  A    between atoms: C_17  and  C_18
REMARK    4  A    between atoms: C_18  and  N_19
REMARK    5  A    between atoms: C_18  and  C_23
REMARK    6  A    between atoms: C_23  and  C_27
REMARK                            x       y       z     vdW  Elec       q    Type
REMARK                         _______ _______ _______ _____ _____    ______ ____
ROOT
ATOM      1  O   UNL     1      31.051  -9.713 -19.535  0.00  0.00    -0.275 OA
ATOM      2  N   UNL     1      31.711  -8.230 -21.203  0.00  0.00    -0.272 N 
ATOM      3  N   UNL     1      31.555  -5.553 -21.869  0.00  0.00    -0.176 N 
ATOM      4  N   UNL     1      31.612  -5.812 -24.032  0.00  0.00    -0.332 NA
ATOM      5  N   UNL     1      31.361  -4.308 -22.320  0.00  0.00    -0.107 NA
ATOM      6  C   UNL     1      31.921  -7.912 -22.641  0.00  0.00    +0.145 C 
ATOM      7  C   UNL     1      32.201  -7.237 -20.232  0.00  0.00    +0.117 C 
ATOM      8  C   UNL     1      31.536  -5.884 -20.463  0.00  0.00    +0.141 C 
ATOM      9  C   UNL     1      31.699  -6.453 -22.885  0.00  0.00    +0.209 C 
ATOM     10  C   UNL     1      31.159  -9.424 -20.730  0.00  0.00    +0.224 C 
ATOM     11  C   UNL     1      33.321  -8.331 -23.091  0.00  0.00    +0.031 C 
ATOM     12  C   UNL     1      31.408  -4.517 -23.639  0.00  0.00    +0.176 C 
ENDROOT
BRANCH  12  16
ATOM     13  F   UNL     1      31.448  -3.820 -25.899  0.00  0.00    -0.157 F 
ATOM     14  F   UNL     1      30.006  -2.858 -24.586  0.00  0.00    -0.157 F 
ATOM     15  F   UNL     1      32.129  -2.408 -24.385  0.00  0.00    -0.157 F 
ATOM     16  C   UNL     1      31.248  -3.426 -24.606  0.00  0.00    +0.490 C 
ENDBRANCH  12  16
BRANCH  10  17
ATOM     17  C   UNL     1      30.657 -10.397 -21.769  0.00  0.00    +0.064 C 
BRANCH  17  18
ATOM     18  C   UNL     1      31.425 -11.719 -21.722  0.00  0.00    -0.052 C 
BRANCH  18  19
ATOM     19  N   UNL     1      31.912 -11.890 -20.347  0.00  0.00    +0.382 N 
ATOM     20  H   UNL     1      32.380 -11.037 -20.043  0.00  0.00    -0.089 HD
ATOM     21  H   UNL     1      32.570 -12.669 -20.313  0.00  0.00    -0.089 HD
ATOM     22  H   UNL     1      31.124 -12.084 -19.729  0.00  0.00    -0.089 HD
ENDBRANCH  18  19
BRANCH  18  23
ATOM     23  C   UNL     1      32.639 -11.757 -22.676  0.00  0.00    +0.007 C 
BRANCH  23  27
ATOM     24  F   UNL     1      32.379 -12.892 -25.251  0.00  0.00    -0.204 F 
ATOM     25  F   UNL     1      34.782 -15.934 -21.394  0.00  0.00    -0.202 F 
ATOM     26  F   UNL     1      34.472 -16.923 -23.922  0.00  0.00    -0.202 F 
ATOM     27  C   UNL     1      33.130 -13.145 -23.014  0.00  0.00    +0.006 C 
ATOM     28  C   UNL     1      32.965 -13.632 -24.300  0.00  0.00    +0.138 C 
ATOM     29  C   UNL     1      33.737 -13.905 -22.027  0.00  0.00    +0.030 C 
ATOM     30  C   UNL     1      34.192 -15.187 -22.336  0.00  0.00    +0.167 C 
ATOM     31  C   UNL     1      33.420 -14.914 -24.608  0.00  0.00    +0.061 C 
ATOM     32  C   UNL     1      34.033 -15.692 -23.626  0.00  0.00    +0.170 C 
ENDBRANCH  23  27
ENDBRANCH  18  23
ENDBRANCH  17  18
ENDBRANCH  10  17
TORSDOF 6
ENDMDL
MODEL 3
REMARK VINA RESULT:     -10.2      2.481      4.129
REMARK  Name = 23661697
REMARK  6 active torsions:
REMARK  status: ('A' for Active; 'I' for Inactive)
REMARK    1  A    between atoms: C_10  and  C_17
REMARK    2  A    between atoms: C_12  and  C_16
REMARK    3  A    between atoms: C_17  and  C_18
REMARK    4  A    between atoms: C_18  and  N_19
REMARK    5  A    between atoms: C_18  and  C_23
REMARK    6  A    between atoms: C_23  and  C_27
REMARK                            x       y       z     vdW  Elec       q    Type
REMARK                         _______ _______ _______ _____ _____    ______ ____
ROOT
ATOM      1  O   UNL     1      36.230 -20.090 -18.674  0.00  0.00    -0.275 OA
ATOM      2  N   UNL     1      35.839 -21.599 -16.946  0.00  0.00    -0.272 N 
ATOM      3  N   UNL     1      37.193 -23.339 -15.280  0.00  0.00    -0.176 N 
ATOM      4  N   UNL     1      35.564 -24.762 -15.003  0.00  0.00    -0.332 NA
ATOM      5  N   UNL     1      37.772 -24.316 -14.572  0.00  0.00    -0.107 NA
ATOM      6  C   UNL     1      35.012 -22.669 -16.326  0.00  0.00    +0.145 C 
ATOM      7  C   UNL     1      36.948 -21.071 -16.133  0.00  0.00    +0.117 C 
ATOM      8  C   UNL     1      37.918 -22.186 -15.757  0.00  0.00    +0.141 C 
ATOM      9  C   UNL     1      35.879 -23.604 -15.544  0.00  0.00    +0.209 C 
ATOM     10  C   UNL     1      35.583 -21.025 -18.195  0.00  0.00    +0.224 C 
ATOM     11  C   UNL     1      33.924 -22.066 -15.437  0.00  0.00    +0.031 C 
ATOM     12  C   UNL     1      36.742 -25.154 -14.425  0.00  0.00    +0.176 C 
ENDROOT
BRANCH  12  16
ATOM     13  F   UNL     1      36.809 -26.263 -12.337  0.00  0.00    -0.157 F 
ATOM     14  F   UNL     1      35.890 -27.324 -13.997  0.00  0.00    -0.157 F 
ATOM     15  F   UNL     1      38.051 -27.047 -13.947  0.00  0.00    -0.157 F 
ATOM     16  C   UNL     1      36.867 -26.420 -13.692  0.00  0.00    +0.490 C 
ENDBRANCH  12  16
BRANCH  10  17
ATOM     17  C   UNL     1      34.446 -21.617 -18.992  0.00  0.00    +0.064 C 
BRANCH  17  18
ATOM     18  C   UNL     1      33.698 -20.547 -19.788  0.00  0.00    -0.052 C 
BRANCH  18  19
ATOM     19  N   UNL     1      32.285 -20.949 -19.834  0.00  0.00    +0.382 N 
ATOM     20  H   UNL     1      32.157 -21.654 -20.559  0.00  0.00    -0.089 HD
ATOM     21  H   UNL     1      31.707 -20.135 -20.046  0.00  0.00    -0.089 HD
ATOM     22  H   UNL     1      32.012 -21.335 -18.931  0.00  0.00    -0.089 HD
ENDBRANCH  18  19
BRANCH  18  23
ATOM     23  C   UNL     1      34.207 -20.391 -21.237  0.00  0.00    +0.007 C 
BRANCH  23  27
ATOM     24  F   UNL     1      34.287 -19.687 -23.973  0.00  0.00    -0.204 F 
ATOM     25  F   UNL     1      34.572 -15.625 -20.322  0.00  0.00    -0.202 F 
ATOM     26  F   UNL     1      34.641 -15.071 -22.996  0.00  0.00    -0.202 F 
ATOM     27  C   UNL     1      34.324 -18.963 -21.713  0.00  0.00    +0.006 C 
ATOM     28  C   UNL     1      34.358 -18.697 -23.072  0.00  0.00    +0.138 C 
ATOM     29  C   UNL     1      34.395 -17.943 -20.777  0.00  0.00    +0.030 C 
ATOM     30  C   UNL     1      34.503 -16.622 -21.214  0.00  0.00    +0.167 C 
ATOM     31  C   UNL     1      34.466 -17.377 -23.508  0.00  0.00    +0.061 C 
ATOM     32  C   UNL     1      34.539 -16.339 -22.578  0.00  0.00    +0.170 C 
ENDBRANCH  23  27
ENDBRANCH  18  23
ENDBRANCH  17  18
ENDBRANCH  10  17
TORSDOF 6
ENDMDL
MODEL 4
REMARK VINA RESULT:     -10.1      7.768     13.729
REMARK  Name = 23661697
REMARK  6 active torsions:
REMARK  status: ('A' for Active; 'I' for Inactive)
REMARK    1  A    between atoms: C_10  and  C_17
REMARK    2  A    between atoms: C_12  and  C_16
REMARK    3  A    between atoms: C_17  and  C_18
REMARK    4  A    between atoms: C_18  and  N_19
REMARK    5  A    between atoms: C_18  and  C_23
REMARK    6  A    between atoms: C_23  and  C_27
REMARK                            x       y       z     vdW  Elec       q    Type
REMARK                         _______ _______ _______ _____ _____    ______ ____
ROOT
ATOM      1  O   UNL     1      31.124  -9.472 -19.520  0.00  0.00    -0.275 OA
ATOM      2  N   UNL     1      31.770  -8.042 -21.239  0.00  0.00    -0.272 N 
ATOM      3  N   UNL     1      31.651  -5.378 -21.963  0.00  0.00    -0.176 N 
ATOM      4  N   UNL     1      31.644  -5.689 -24.121  0.00  0.00    -0.332 NA
ATOM      5  N   UNL     1      31.471  -4.140 -22.439  0.00  0.00    -0.107 NA
ATOM      6  C   UNL     1      31.947  -7.762 -22.689  0.00  0.00    +0.145 C 
ATOM      7  C   UNL     1      32.306  -7.037 -20.306  0.00  0.00    +0.117 C 
ATOM      8  C   UNL     1      31.664  -5.677 -20.551  0.00  0.00    +0.141 C 
ATOM      9  C   UNL     1      31.749  -6.305 -22.962  0.00  0.00    +0.209 C 
ATOM     10  C   UNL     1      31.206  -9.213 -20.724  0.00  0.00    +0.224 C 
ATOM     11  C   UNL     1      33.326  -8.221 -23.166  0.00  0.00    +0.031 C 
ATOM     12  C   UNL     1      31.478  -4.381 -23.753  0.00  0.00    +0.176 C 
ENDROOT
BRANCH  12  16
ATOM     13  F   UNL     1      31.534  -3.723 -26.025  0.00  0.00    -0.157 F 
ATOM     14  F   UNL     1      30.065  -2.758 -24.745  0.00  0.00    -0.157 F 
ATOM     15  F   UNL     1      32.179  -2.276 -24.528  0.00  0.00    -0.157 F 
ATOM     16  C   UNL     1      31.315  -3.309 -24.741  0.00  0.00    +0.490 C 
ENDBRANCH  12  16
BRANCH  10  17
ATOM     17  C   UNL     1      30.656 -10.199 -21.725  0.00  0.00    +0.064 C 
BRANCH  17  18
ATOM     18  C   UNL     1      31.355 -11.556 -21.624  0.00  0.00    -0.052 C 
BRANCH  18  19
ATOM     19  N   UNL     1      31.542 -11.842 -20.196  0.00  0.00    +0.382 N 
ATOM     20  H   UNL     1      31.368 -10.996 -19.654  0.00  0.00    -0.089 HD
ATOM     21  H   UNL     1      32.499 -12.157 -20.034  0.00  0.00    -0.089 HD
ATOM     22  H   UNL     1      30.891 -12.571 -19.906  0.00  0.00    -0.089 HD
ENDBRANCH  18  19
BRANCH  18  23
ATOM     23  C   UNL     1      32.736 -11.588 -22.313  0.00  0.00    +0.007 C 
BRANCH  23  27
ATOM     24  F   UNL     1      34.140 -13.379 -20.638  0.00  0.00    -0.204 F 
ATOM     25  F   UNL     1      33.033 -15.040 -25.730  0.00  0.00    -0.202 F 
ATOM     26  F   UNL     1      34.386 -16.683 -24.017  0.00  0.00    -0.202 F 
ATOM     27  C   UNL     1      33.181 -12.957 -22.768  0.00  0.00    +0.006 C 
ATOM     28  C   UNL     1      33.866 -13.779 -21.887  0.00  0.00    +0.138 C 
ATOM     29  C   UNL     1      32.894 -13.365 -24.061  0.00  0.00    +0.030 C 
ATOM     30  C   UNL     1      33.304 -14.630 -24.484  0.00  0.00    +0.167 C 
ATOM     31  C   UNL     1      34.276 -15.043 -22.312  0.00  0.00    +0.061 C 
ATOM     32  C   UNL     1      33.995 -15.469 -23.610  0.00  0.00    +0.170 C 
ENDBRANCH  23  27
ENDBRANCH  18  23
ENDBRANCH  17  18
ENDBRANCH  10  17
TORSDOF 6
ENDMDL
MODEL 5
REMARK VINA RESULT:     -10.1      4.016      5.904
REMARK  Name = 23661697
REMARK  6 active torsions:
REMARK  status: ('A' for Active; 'I' for Inactive)
REMARK    1  A    between atoms: C_10  and  C_17
REMARK    2  A    between atoms: C_12  and  C_16
REMARK    3  A    between atoms: C_17  and  C_18
REMARK    4  A    between atoms: C_18  and  N_19
REMARK    5  A    between atoms: C_18  and  C_23
REMARK    6  A    between atoms: C_23  and  C_27
REMARK                            x       y       z     vdW  Elec       q    Type
REMARK                         _______ _______ _______ _____ _____    ______ ____
ROOT
ATOM      1  O   UNL     1      32.478 -22.148 -14.652  0.00  0.00    -0.275 OA
ATOM      2  N   UNL     1      34.315 -23.570 -14.499  0.00  0.00    -0.272 N 
ATOM      3  N   UNL     1      36.933 -23.592 -13.614  0.00  0.00    -0.176 N 
ATOM      4  N   UNL     1      37.678 -25.077 -15.025  0.00  0.00    -0.332 NA
ATOM      5  N   UNL     1      38.247 -23.605 -13.362  0.00  0.00    -0.107 NA
ATOM      6  C   UNL     1      35.181 -24.631 -15.079  0.00  0.00    +0.145 C 
ATOM      7  C   UNL     1      34.586 -23.193 -13.101  0.00  0.00    +0.117 C 
ATOM      8  C   UNL     1      36.019 -22.697 -12.944  0.00  0.00    +0.141 C 
ATOM      9  C   UNL     1      36.590 -24.464 -14.608  0.00  0.00    +0.209 C 
ATOM     10  C   UNL     1      33.236 -22.978 -15.163  0.00  0.00    +0.224 C 
ATOM     11  C   UNL     1      34.650 -26.020 -14.722  0.00  0.00    +0.031 C 
ATOM     12  C   UNL     1      38.655 -24.525 -14.241  0.00  0.00    +0.176 C 
ENDROOT
BRANCH  12  16
ATOM     13  F   UNL     1      40.460 -25.798 -13.395  0.00  0.00    -0.157 F 
ATOM     14  F   UNL     1      40.362 -25.520 -15.549  0.00  0.00    -0.157 F 
ATOM     15  F   UNL     1      40.905 -23.848 -14.261  0.00  0.00    -0.157 F 
ATOM     16  C   UNL     1      40.064 -24.917 -14.361  0.00  0.00    +0.490 C 
ENDBRANCH  12  16
BRANCH  10  17
ATOM     17  C   UNL     1      33.016 -23.388 -16.598  0.00  0.00    +0.064 C 
BRANCH  17  18
ATOM     18  C   UNL     1      32.913 -22.174 -17.522  0.00  0.00    -0.052 C 
BRANCH  18  19
ATOM     19  N   UNL     1      31.485 -21.861 -17.670  0.00  0.00    +0.382 N 
ATOM     20  H   UNL     1      31.278 -20.985 -17.190  0.00  0.00    -0.089 HD
ATOM     21  H   UNL     1      30.928 -22.611 -17.263  0.00  0.00    -0.089 HD
ATOM     22  H   UNL     1      31.258 -21.768 -18.660  0.00  0.00    -0.089 HD
ENDBRANCH  18  19
BRANCH  18  23
ATOM     23  C   UNL     1      33.506 -22.419 -18.927  0.00  0.00    +0.007 C 
BRANCH  23  27
ATOM     24  F   UNL     1      36.144 -21.729 -18.186  0.00  0.00    -0.204 F 
ATOM     25  F   UNL     1      33.678 -18.587 -21.922  0.00  0.00    -0.202 F 
ATOM     26  F   UNL     1      36.229 -18.020 -21.124  0.00  0.00    -0.202 F 
ATOM     27  C   UNL     1      34.240 -21.238 -19.515  0.00  0.00    +0.006 C 
ATOM     28  C   UNL     1      35.533 -20.963 -19.100  0.00  0.00    +0.138 C 
ATOM     29  C   UNL     1      33.603 -20.450 -20.461  0.00  0.00    +0.030 C 
ATOM     30  C   UNL     1      34.279 -19.358 -21.006  0.00  0.00    +0.167 C 
ATOM     31  C   UNL     1      36.207 -19.870 -19.646  0.00  0.00    +0.061 C 
ATOM     32  C   UNL     1      35.580 -19.068 -20.598  0.00  0.00    +0.170 C 
ENDBRANCH  23  27
ENDBRANCH  18  23
ENDBRANCH  17  18
ENDBRANCH  10  17
TORSDOF 6
ENDMDL
MODEL 6
REMARK VINA RESULT:      -9.9      0.971      2.008
REMARK  Name = 23661697
REMARK  6 active torsions:
REMARK  status: ('A' for Active; 'I' for Inactive)
REMARK    1  A    between atoms: C_10  and  C_17
REMARK    2  A    between atoms: C_12  and  C_16
REMARK    3  A    between atoms: C_17  and  C_18
REMARK    4  A    between atoms: C_18  and  N_19
REMARK    5  A    between atoms: C_18  and  C_23
REMARK    6  A    between atoms: C_23  and  C_27
REMARK                            x       y       z     vdW  Elec       q    Type
REMARK                         _______ _______ _______ _____ _____    ______ ____
ROOT
ATOM      1  O   UNL     1      32.537 -19.646 -20.895  0.00  0.00    -0.275 OA
ATOM      2  N   UNL     1      34.140 -20.797 -19.660  0.00  0.00    -0.272 N 
ATOM      3  N   UNL     1      34.418 -22.190 -17.289  0.00  0.00    -0.176 N 
ATOM      4  N   UNL     1      36.525 -21.738 -16.961  0.00  0.00    -0.332 NA
ATOM      5  N   UNL     1      34.649 -22.721 -16.083  0.00  0.00    -0.107 NA
ATOM      6  C   UNL     1      35.531 -20.928 -19.150  0.00  0.00    +0.145 C 
ATOM      7  C   UNL     1      33.238 -21.933 -19.404  0.00  0.00    +0.117 C 
ATOM      8  C   UNL     1      33.113 -22.196 -17.908  0.00  0.00    +0.141 C 
ATOM      9  C   UNL     1      35.532 -21.599 -17.814  0.00  0.00    +0.209 C 
ATOM     10  C   UNL     1      33.672 -19.717 -20.415  0.00  0.00    +0.224 C 
ATOM     11  C   UNL     1      36.403 -21.696 -20.144  0.00  0.00    +0.031 C 
ATOM     12  C   UNL     1      35.943 -22.425 -15.930  0.00  0.00    +0.176 C 
ENDROOT
BRANCH  12  16
ATOM     13  F   UNL     1      37.942 -23.285 -15.004  0.00  0.00    -0.157 F 
ATOM     14  F   UNL     1      36.880 -21.778 -13.851  0.00  0.00    -0.157 F 
ATOM     15  F   UNL     1      36.063 -23.792 -14.022  0.00  0.00    -0.157 F 
ATOM     16  C   UNL     1      36.692 -22.808 -14.728  0.00  0.00    +0.490 C 
ENDBRANCH  12  16
BRANCH  10  17
ATOM     17  C   UNL     1      34.633 -18.574 -20.631  0.00  0.00    +0.064 C 
BRANCH  17  18
ATOM     18  C   UNL     1      35.338 -18.676 -21.984  0.00  0.00    -0.052 C 
BRANCH  18  19
ATOM     19  N   UNL     1      36.662 -18.059 -21.832  0.00  0.00    +0.382 N 
ATOM     20  H   UNL     1      36.697 -17.541 -20.954  0.00  0.00    -0.089 HD
ATOM     21  H   UNL     1      36.832 -17.420 -22.609  0.00  0.00    -0.089 HD
ATOM     22  H   UNL     1      37.378 -18.785 -21.827  0.00  0.00    -0.089 HD
ENDBRANCH  18  19
BRANCH  18  23
ATOM     23  C   UNL     1      34.589 -17.948 -23.122  0.00  0.00    +0.007 C 
BRANCH  23  27
ATOM     24  F   UNL     1      34.198 -16.079 -25.205  0.00  0.00    -0.204 F 
ATOM     25  F   UNL     1      34.003 -14.201 -20.072  0.00  0.00    -0.202 F 
ATOM     26  F   UNL     1      33.640 -12.490 -22.172  0.00  0.00    -0.202 F 
ATOM     27  C   UNL     1      34.335 -16.481 -22.870  0.00  0.00    +0.006 C 
ATOM     28  C   UNL     1      34.153 -15.626 -23.945  0.00  0.00    +0.138 C 
ATOM     29  C   UNL     1      34.287 -16.018 -21.564  0.00  0.00    +0.030 C 
ATOM     30  C   UNL     1      34.053 -14.663 -21.329  0.00  0.00    +0.167 C 
ATOM     31  C   UNL     1      33.918 -14.271 -23.708  0.00  0.00    +0.061 C 
ATOM     32  C   UNL     1      33.868 -13.790 -22.400  0.00  0.00    +0.170 C 
ENDBRANCH  23  27
ENDBRANCH  18  23
ENDBRANCH  17  18
ENDBRANCH  10  17
TORSDOF 6
ENDMDL
MODEL 7
REMARK VINA RESULT:      -9.6      4.486      9.334
REMARK  Name = 23661697
REMARK  6 active torsions:
REMARK  status: ('A' for Active; 'I' for Inactive)
REMARK    1  A    between atoms: C_10  and  C_17
REMARK    2  A    between atoms: C_12  and  C_16
REMARK    3  A    between atoms: C_17  and  C_18
REMARK    4  A    between atoms: C_18  and  N_19
REMARK    5  A    between atoms: C_18  and  C_23
REMARK    6  A    between atoms: C_23  and  C_27
REMARK                            x       y       z     vdW  Elec       q    Type
REMARK                         _______ _______ _______ _____ _____    ______ ____
ROOT
ATOM      1  O   UNL     1      35.034 -22.779 -14.268  0.00  0.00    -0.275 OA
ATOM      2  N   UNL     1      34.612 -22.407 -16.526  0.00  0.00    -0.272 N 
ATOM      3  N   UNL     1      35.444 -20.809 -18.622  0.00  0.00    -0.176 N 
ATOM      4  N   UNL     1      33.556 -20.794 -19.711  0.00  0.00    -0.332 NA
ATOM      5  N   UNL     1      35.686 -19.951 -19.619  0.00  0.00    -0.107 NA
ATOM      6  C   UNL     1      33.657 -22.285 -17.660  0.00  0.00    +0.145 C 
ATOM      7  C   UNL     1      36.044 -22.391 -16.869  0.00  0.00    +0.117 C 
ATOM      8  C   UNL     1      36.411 -21.098 -17.589  0.00  0.00    +0.141 C 
ATOM      9  C   UNL     1      34.174 -21.310 -18.669  0.00  0.00    +0.209 C 
ATOM     10  C   UNL     1      34.236 -22.609 -15.194  0.00  0.00    +0.224 C 
ATOM     11  C   UNL     1      33.401 -23.648 -18.303  0.00  0.00    +0.031 C 
ATOM     12  C   UNL     1      34.511 -19.979 -20.255  0.00  0.00    +0.176 C 
ENDROOT
BRANCH  12  16
ATOM     13  F   UNL     1      34.341 -17.836 -21.241  0.00  0.00    -0.157 F 
ATOM     14  F   UNL     1      35.137 -19.439 -22.476  0.00  0.00    -0.157 F 
ATOM     15  F   UNL     1      33.016 -19.403 -21.975  0.00  0.00    -0.157 F 
ATOM     16  C   UNL     1      34.260 -19.182 -21.461  0.00  0.00    +0.490 C 
ENDBRANCH  12  16
BRANCH  10  17
ATOM     17  C   UNL     1      32.757 -22.598 -14.898  0.00  0.00    +0.064 C 
BRANCH  17  18
ATOM     18  C   UNL     1      32.471 -22.947 -13.437  0.00  0.00    -0.052 C 
BRANCH  18  19
ATOM     19  N   UNL     1      32.814 -24.363 -13.252  0.00  0.00    +0.382 N 
ATOM     20  H   UNL     1      31.970 -24.930 -13.337  0.00  0.00    -0.089 HD
ATOM     21  H   UNL     1      33.222 -24.498 -12.327  0.00  0.00    -0.089 HD
ATOM     22  H   UNL     1      33.486 -24.646 -13.965  0.00  0.00    -0.089 HD
ENDBRANCH  18  19
BRANCH  18  23
ATOM     23  C   UNL     1      30.994 -22.747 -13.035  0.00  0.00    +0.007 C 
BRANCH  23  27
ATOM     24  F   UNL     1      30.116 -25.409 -13.397  0.00  0.00    -0.204 F 
ATOM     25  F   UNL     1      28.043 -21.603 -16.733  0.00  0.00    -0.202 F 
ATOM     26  F   UNL     1      27.273 -24.213 -16.985  0.00  0.00    -0.202 F 
ATOM     27  C   UNL     1      29.995 -23.144 -14.096  0.00  0.00    +0.006 C 
ATOM     28  C   UNL     1      29.614 -24.471 -14.211  0.00  0.00    +0.138 C 
ATOM     29  C   UNL     1      29.477 -22.170 -14.934  0.00  0.00    +0.030 C 
ATOM     30  C   UNL     1      28.554 -22.534 -15.915  0.00  0.00    +0.167 C 
ATOM     31  C   UNL     1      28.691 -24.834 -15.192  0.00  0.00    +0.061 C 
ATOM     32  C   UNL     1      28.161 -23.865 -16.044  0.00  0.00    +0.170 C 
ENDBRANCH  23  27
ENDBRANCH  18  23
ENDBRANCH  17  18
ENDBRANCH  10  17
TORSDOF 6
ENDMDL
MODEL 8
REMARK VINA RESULT:      -9.6      2.539      3.924
REMARK  Name = 23661697
REMARK  6 active torsions:
REMARK  status: ('A' for Active; 'I' for Inactive)
REMARK    1  A    between atoms: C_10  and  C_17
REMARK    2  A    between atoms: C_12  and  C_16
REMARK    3  A    between atoms: C_17  and  C_18
REMARK    4  A    between atoms: C_18  and  N_19
REMARK    5  A    between atoms: C_18  and  C_23
REMARK    6  A    between atoms: C_23  and  C_27
REMARK                            x       y       z     vdW  Elec       q    Type
REMARK                         _______ _______ _______ _____ _____    ______ ____
ROOT
ATOM      1  O   UNL     1      36.432 -19.997 -18.549  0.00  0.00    -0.275 OA
ATOM      2  N   UNL     1      35.973 -21.543 -16.871  0.00  0.00    -0.272 N 
ATOM      3  N   UNL     1      37.249 -23.382 -15.251  0.00  0.00    -0.176 N 
ATOM      4  N   UNL     1      35.568 -24.752 -15.028  0.00  0.00    -0.332 NA
ATOM      5  N   UNL     1      37.787 -24.401 -14.570  0.00  0.00    -0.107 NA
ATOM      6  C   UNL     1      35.103 -22.600 -16.289  0.00  0.00    +0.145 C 
ATOM      7  C   UNL     1      37.094 -21.082 -16.035  0.00  0.00    +0.117 C 
ATOM      8  C   UNL     1      38.020 -22.242 -15.687  0.00  0.00    +0.141 C 
ATOM      9  C   UNL     1      35.928 -23.590 -15.531  0.00  0.00    +0.209 C 
ATOM     10  C   UNL     1      35.747 -20.922 -18.103  0.00  0.00    +0.224 C 
ATOM     11  C   UNL     1      34.030 -21.985 -15.389  0.00  0.00    +0.031 C 
ATOM     12  C   UNL     1      36.726 -25.205 -14.455  0.00  0.00    +0.176 C 
ENDROOT
BRANCH  12  16
ATOM     13  F   UNL     1      37.933 -27.199 -14.053  0.00  0.00    -0.157 F 
ATOM     14  F   UNL     1      36.779 -26.384 -12.400  0.00  0.00    -0.157 F 
ATOM     15  F   UNL     1      35.756 -27.314 -14.086  0.00  0.00    -0.157 F 
ATOM     16  C   UNL     1      36.799 -26.496 -13.761  0.00  0.00    +0.490 C 
ENDBRANCH  12  16
BRANCH  10  17
ATOM     17  C   UNL     1      34.596 -21.447 -18.926  0.00  0.00    +0.064 C 
BRANCH  17  18
ATOM     18  C   UNL     1      34.031 -20.373 -19.856  0.00  0.00    -0.052 C 
BRANCH  18  19
ATOM     19  N   UNL     1      32.608 -20.676 -20.056  0.00  0.00    +0.382 N 
ATOM     20  H   UNL     1      32.154 -19.887 -20.516  0.00  0.00    -0.089 HD
ATOM     21  H   UNL     1      32.164 -20.843 -19.153  0.00  0.00    -0.089 HD
ATOM     22  H   UNL     1      32.516 -21.508 -20.639  0.00  0.00    -0.089 HD
ENDBRANCH  18  19
BRANCH  18  23
ATOM     23  C   UNL     1      34.720 -20.333 -21.237  0.00  0.00    +0.007 C 
BRANCH  23  27
ATOM     24  F   UNL     1      35.951 -17.925 -20.418  0.00  0.00    -0.204 F 
ATOM     25  F   UNL     1      32.856 -17.761 -24.925  0.00  0.00    -0.202 F 
ATOM     26  F   UNL     1      34.098 -15.497 -24.033  0.00  0.00    -0.202 F 
ATOM     27  C   UNL     1      34.554 -19.032 -21.986  0.00  0.00    +0.006 C 
ATOM     28  C   UNL     1      35.190 -17.892 -21.521  0.00  0.00    +0.138 C 
ATOM     29  C   UNL     1      33.768 -19.005 -23.127  0.00  0.00    +0.030 C 
ATOM     30  C   UNL     1      33.613 -17.804 -23.820  0.00  0.00    +0.167 C 
ATOM     31  C   UNL     1      35.034 -16.692 -22.215  0.00  0.00    +0.061 C 
ATOM     32  C   UNL     1      34.246 -16.648 -23.365  0.00  0.00    +0.170 C 
ENDBRANCH  23  27
ENDBRANCH  18  23
ENDBRANCH  17  18
ENDBRANCH  10  17
TORSDOF 6
ENDMDL
MODEL 9
REMARK VINA RESULT:      -9.6      7.128     13.353
REMARK  Name = 23661697
REMARK  6 active torsions:
REMARK  status: ('A' for Active; 'I' for Inactive)
REMARK    1  A    between atoms: C_10  and  C_17
REMARK    2  A    between atoms: C_12  and  C_16
REMARK    3  A    between atoms: C_17  and  C_18
REMARK    4  A    between atoms: C_18  and  N_19
REMARK    5  A    between atoms: C_18  and  C_23
REMARK    6  A    between atoms: C_23  and  C_27
REMARK                            x       y       z     vdW  Elec       q    Type
REMARK                         _______ _______ _______ _____ _____    ______ ____
ROOT
ATOM      1  O   UNL     1      29.696 -10.078 -22.118  0.00  0.00    -0.275 OA
ATOM      2  N   UNL     1      31.168  -8.350 -22.632  0.00  0.00    -0.272 N 
ATOM      3  N   UNL     1      31.763  -6.583 -24.672  0.00  0.00    -0.176 N 
ATOM      4  N   UNL     1      33.888  -6.375 -24.233  0.00  0.00    -0.332 NA
ATOM      5  N   UNL     1      32.201  -5.828 -25.686  0.00  0.00    -0.107 NA
ATOM      6  C   UNL     1      32.534  -7.761 -22.595  0.00  0.00    +0.145 C 
ATOM      7  C   UNL     1      30.093  -7.484 -23.145  0.00  0.00    +0.117 C 
ATOM      8  C   UNL     1      30.395  -7.036 -24.570  0.00  0.00    +0.141 C 
ATOM      9  C   UNL     1      32.766  -6.916 -23.807  0.00  0.00    +0.209 C 
ATOM     10  C   UNL     1      30.842  -9.621 -22.149  0.00  0.00    +0.224 C 
ATOM     11  C   UNL     1      32.737  -6.945 -21.317  0.00  0.00    +0.031 C 
ATOM     12  C   UNL     1      33.496  -5.726 -25.372  0.00  0.00    +0.176 C 
ENDROOT
BRANCH  12  16
ATOM     13  F   UNL     1      33.832  -4.277 -27.212  0.00  0.00    -0.157 F 
ATOM     14  F   UNL     1      35.152  -4.036 -25.501  0.00  0.00    -0.157 F 
ATOM     15  F   UNL     1      35.363  -5.773 -26.799  0.00  0.00    -0.157 F 
ATOM     16  C   UNL     1      34.439  -4.967 -26.201  0.00  0.00    +0.490 C 
ENDBRANCH  12  16
BRANCH  10  17
ATOM     17  C   UNL     1      31.985 -10.472 -21.653  0.00  0.00    +0.064 C 
BRANCH  17  18
ATOM     18  C   UNL     1      32.027 -11.828 -22.358  0.00  0.00    -0.052 C 
BRANCH  18  19
ATOM     19  N   UNL     1      31.569 -12.835 -21.391  0.00  0.00    +0.382 N 
ATOM     20  H   UNL     1      31.514 -12.414 -20.463  0.00  0.00    -0.089 HD
ATOM     21  H   UNL     1      32.228 -13.613 -21.372  0.00  0.00    -0.089 HD
ATOM     22  H   UNL     1      30.648 -13.176 -21.665  0.00  0.00    -0.089 HD
ENDBRANCH  18  19
BRANCH  18  23
ATOM     23  C   UNL     1      33.439 -12.225 -22.842  0.00  0.00    +0.007 C 
BRANCH  23  27
ATOM     24  F   UNL     1      32.723 -13.536 -25.241  0.00  0.00    -0.204 F 
ATOM     25  F   UNL     1      34.916 -16.586 -21.266  0.00  0.00    -0.202 F 
ATOM     26  F   UNL     1      34.182 -17.740 -23.632  0.00  0.00    -0.202 F 
ATOM     27  C   UNL     1      33.637 -13.706 -23.057  0.00  0.00    +0.006 C 
ATOM     28  C   UNL     1      33.260 -14.277 -24.262  0.00  0.00    +0.138 C 
ATOM     29  C   UNL     1      34.194 -14.467 -22.042  0.00  0.00    +0.030 C 
ATOM     30  C   UNL     1      34.378 -15.837 -22.238  0.00  0.00    +0.167 C 
ATOM     31  C   UNL     1      33.444 -15.646 -24.457  0.00  0.00    +0.061 C 
ATOM     32  C   UNL     1      34.003 -16.426 -23.444  0.00  0.00    +0.170 C 
ENDBRANCH  23  27
ENDBRANCH  18  23
ENDBRANCH  17  18
ENDBRANCH  10  17
TORSDOF 6
ENDMDL
