MODEL 1
REMARK VINA RESULT:     -11.5      0.000      0.000
REMARK  Name = 11256664
REMARK  7 active torsions:
REMARK  status: ('A' for Active; 'I' for Inactive)
REMARK    1  A    between atoms: C_5  and  O_21
REMARK    2  A    between atoms: CA_7  and  C_14
REMARK    3  A    between atoms: C_9  and  O_23
REMARK    4  A    between atoms: N_13  and  CA_16
REMARK    5  A    between atoms: CA_16  and  C_18
REMARK    6  A    between atoms: C_18  and  O_19
REMARK    7  A    between atoms: O_23  and  C_24
REMARK                            x       y       z     vdW  Elec       q    Type
REMARK                         _______ _______ _______ _____ _____    ______ ____
ROOT
ATOM      1  N   UNL     1      32.140 -11.728 -23.513  0.00  0.00    -0.403 NA
ATOM      2  C   UNL     1      33.300 -13.787 -22.935  0.00  0.00    +0.027 C 
ATOM      3  C   UNL     1      33.082 -13.531 -21.566  0.00  0.00    +0.014 C 
ATOM      4  C   UNL     1      32.808 -12.854 -23.851  0.00  0.00    +0.109 C 
ATOM      5  C   UNL     1      32.394 -12.371 -21.194  0.00  0.00    +0.190 C 
ATOM      6  C   UNL     1      33.990 -14.946 -23.328  0.00  0.00    +0.039 C 
ATOM      7  CA  UNL     1      31.951 -11.516 -22.192  0.00  0.00    +0.192 C 
ATOM      8  C   UNL     1      33.563 -14.446 -20.614  0.00  0.00    +0.002 C 
ATOM      9  C   UNL     1      34.459 -15.844 -22.371  0.00  0.00    +0.145 C 
ATOM     10  C   UNL     1      34.247 -15.594 -21.017  0.00  0.00    +0.037 C 
ATOM     11  C   UNL     1      32.992 -13.041 -25.324  0.00  0.00    +0.066 C 
ENDROOT
BRANCH   7  14
ATOM     12  O   UNL     1      30.103 -10.349 -21.344  0.00  0.00    -0.268 OA
ATOM     13  N   UNL     1      31.870  -9.083 -22.155  0.00  0.00    -0.290 N 
ATOM     14  C   ACE A   1      31.229 -10.295 -21.869  0.00  0.00    +0.275 C 
ATOM     15  H   UNL     1      32.762  -9.116 -22.571  0.00  0.00    +0.150 HD
BRANCH  13  16
ATOM     16  CA  UNL     1      31.294  -7.789 -21.870  0.00  0.00    +0.201 C 
BRANCH  16  18
ATOM     17  OXT UNL     1      32.041  -7.696 -19.584  0.00  0.00    -0.248 OA
ATOM     18  C   UNL     1      31.903  -7.128 -20.661  0.00  0.00    +0.334 C 
BRANCH  18  19
ATOM     19  O   UNL     1      32.283  -5.848 -20.878  0.00  0.00    -0.479 OA
ATOM     20  H   UNL     1      32.794  -5.396 -20.236  0.00  0.00    +0.295 HD
ENDBRANCH  18  19
ENDBRANCH  16  18
ENDBRANCH  13  16
ENDBRANCH   7  14
BRANCH   5  21
ATOM     21  O   UNL     1      32.156 -12.073 -19.886  0.00  0.00    -0.373 OA
ATOM     22  H   UNL     1      32.654 -12.493 -19.212  0.00  0.00    +0.211 HD
ENDBRANCH   5  21
BRANCH   9  23
ATOM     23  O   UNL     1      35.128 -16.965 -22.759  0.00  0.00    -0.453 OA
BRANCH  23  24
ATOM     24  C   UNL     1      35.148 -18.037 -21.882  0.00  0.00    +0.145 C 
ATOM     25  C   UNL     1      36.299 -18.294 -21.159  0.00  0.00    +0.037 C 
ATOM     26  C   UNL     1      34.018 -18.824 -21.755  0.00  0.00    +0.037 C 
ATOM     27  C   UNL     1      36.320 -19.374 -20.276  0.00  0.00    +0.003 C 
ATOM     28  C   UNL     1      34.040 -19.905 -20.874  0.00  0.00    +0.003 C 
ATOM     29  C   UNL     1      35.190 -20.180 -20.135  0.00  0.00    +0.000 C 
ENDBRANCH  23  24
ENDBRANCH   9  23
TORSDOF 7
ENDMDL
MODEL 2
REMARK VINA RESULT:     -11.5      7.414     12.390
REMARK  Name = 11256664
REMARK  7 active torsions:
REMARK  status: ('A' for Active; 'I' for Inactive)
REMARK    1  A    between atoms: C_5  and  O_21
REMARK    2  A    between atoms: CA_7  and  C_14
REMARK    3  A    between atoms: C_9  and  O_23
REMARK    4  A    between atoms: N_13  and  CA_16
REMARK    5  A    between atoms: CA_16  and  C_18
REMARK    6  A    between atoms: C_18  and  O_19
REMARK    7  A    between atoms: O_23  and  C_24
REMARK                            x       y       z     vdW  Elec       q    Type
REMARK                         _______ _______ _______ _____ _____    ______ ____
ROOT
ATOM      1  N   UNL     1      34.406 -23.160 -15.652  0.00  0.00    -0.403 NA
ATOM      2  C   UNL     1      34.238 -21.897 -17.725  0.00  0.00    +0.027 C 
ATOM      3  C   UNL     1      35.623 -21.639 -17.685  0.00  0.00    +0.014 C 
ATOM      4  C   UNL     1      33.694 -22.657 -16.686  0.00  0.00    +0.109 C 
ATOM      5  C   UNL     1      36.378 -22.150 -16.623  0.00  0.00    +0.190 C 
ATOM      6  C   UNL     1      33.463 -21.393 -18.782  0.00  0.00    +0.039 C 
ATOM      7  CA  UNL     1      35.730 -22.892 -15.648  0.00  0.00    +0.192 C 
ATOM      8  C   UNL     1      36.206 -20.878 -18.712  0.00  0.00    +0.002 C 
ATOM      9  C   UNL     1      34.058 -20.639 -19.793  0.00  0.00    +0.145 C 
ATOM     10  C   UNL     1      35.426 -20.381 -19.758  0.00  0.00    +0.037 C 
ATOM     11  C   UNL     1      32.234 -22.981 -16.644  0.00  0.00    +0.066 C 
ENDROOT
BRANCH   7  14
ATOM     12  O   UNL     1      36.019 -23.330 -13.363  0.00  0.00    -0.268 OA
ATOM     13  N   UNL     1      37.647 -24.134 -14.807  0.00  0.00    -0.290 N 
ATOM     14  C   ACE A   1      36.460 -23.450 -14.520  0.00  0.00    +0.275 C 
ATOM     15  H   UNL     1      37.937 -24.189 -15.746  0.00  0.00    +0.150 HD
BRANCH  13  16
ATOM     16  CA  UNL     1      38.469 -24.762 -13.798  0.00  0.00    +0.201 C 
BRANCH  16  18
ATOM     17  OXT UNL     1      40.494 -26.060 -13.689  0.00  0.00    -0.248 OA
ATOM     18  C   UNL     1      39.678 -25.454 -14.374  0.00  0.00    +0.334 C 
BRANCH  18  19
ATOM     19  O   UNL     1      39.776 -25.343 -15.718  0.00  0.00    -0.479 OA
ATOM     20  H   UNL     1      39.716 -24.501 -16.125  0.00  0.00    +0.295 HD
ENDBRANCH  18  19
ENDBRANCH  16  18
ENDBRANCH  13  16
ENDBRANCH   7  14
BRANCH   5  21
ATOM     21  O   UNL     1      37.720 -21.931 -16.535  0.00  0.00    -0.373 OA
ATOM     22  H   UNL     1      38.274 -22.121 -17.266  0.00  0.00    +0.211 HD
ENDBRANCH   5  21
BRANCH   9  23
ATOM     23  O   UNL     1      33.301 -20.152 -20.815  0.00  0.00    -0.453 OA
BRANCH  23  24
ATOM     24  C   UNL     1      33.805 -19.082 -21.535  0.00  0.00    +0.145 C 
ATOM     25  C   UNL     1      33.660 -19.068 -22.911  0.00  0.00    +0.037 C 
ATOM     26  C   UNL     1      34.440 -18.055 -20.861  0.00  0.00    +0.037 C 
ATOM     27  C   UNL     1      34.169 -17.991 -23.637  0.00  0.00    +0.003 C 
ATOM     28  C   UNL     1      34.950 -16.979 -21.587  0.00  0.00    +0.003 C 
ATOM     29  C   UNL     1      34.814 -16.947 -22.974  0.00  0.00    +0.000 C 
ENDBRANCH  23  24
ENDBRANCH   9  23
TORSDOF 7
ENDMDL
MODEL 3
REMARK VINA RESULT:     -11.4      5.476     10.486
REMARK  Name = 11256664
REMARK  7 active torsions:
REMARK  status: ('A' for Active; 'I' for Inactive)
REMARK    1  A    between atoms: C_5  and  O_21
REMARK    2  A    between atoms: CA_7  and  C_14
REMARK    3  A    between atoms: C_9  and  O_23
REMARK    4  A    between atoms: N_13  and  CA_16
REMARK    5  A    between atoms: CA_16  and  C_18
REMARK    6  A    between atoms: C_18  and  O_19
REMARK    7  A    between atoms: O_23  and  C_24
REMARK                            x       y       z     vdW  Elec       q    Type
REMARK                         _______ _______ _______ _____ _____    ______ ____
ROOT
ATOM      1  N   UNL     1      32.909 -21.398 -18.896  0.00  0.00    -0.403 NA
ATOM      2  C   UNL     1      34.071 -19.821 -20.337  0.00  0.00    +0.027 C 
ATOM      3  C   UNL     1      35.292 -20.134 -19.704  0.00  0.00    +0.014 C 
ATOM      4  C   UNL     1      32.925 -20.482 -19.890  0.00  0.00    +0.109 C 
ATOM      5  C   UNL     1      35.296 -21.080 -18.672  0.00  0.00    +0.190 C 
ATOM      6  C   UNL     1      34.046 -18.874 -21.375  0.00  0.00    +0.039 C 
ATOM      7  CA  UNL     1      34.096 -21.673 -18.313  0.00  0.00    +0.192 C 
ATOM      8  C   UNL     1      36.466 -19.489 -20.126  0.00  0.00    +0.002 C 
ATOM      9  C   UNL     1      35.221 -18.244 -21.781  0.00  0.00    +0.145 C 
ATOM     10  C   UNL     1      36.429 -18.550 -21.158  0.00  0.00    +0.037 C 
ATOM     11  C   UNL     1      31.586 -20.214 -20.502  0.00  0.00    +0.066 C 
ENDROOT
BRANCH   7  14
ATOM     12  O   UNL     1      33.406 -23.722 -17.408  0.00  0.00    -0.268 OA
ATOM     13  N   UNL     1      34.733 -22.371 -16.070  0.00  0.00    -0.290 N 
ATOM     14  C   ACE A   1      34.036 -22.662 -17.248  0.00  0.00    +0.275 C 
ATOM     15  H   UNL     1      35.210 -21.511 -16.012  0.00  0.00    +0.150 HD
BRANCH  13  16
ATOM     16  CA  UNL     1      34.789 -23.262 -14.934  0.00  0.00    +0.201 C 
BRANCH  16  18
ATOM     17  OXT UNL     1      36.966 -23.212 -13.908  0.00  0.00    -0.248 OA
ATOM     18  C   UNL     1      36.178 -23.776 -14.659  0.00  0.00    +0.334 C 
BRANCH  18  19
ATOM     19  O   UNL     1      36.474 -24.919 -15.320  0.00  0.00    -0.479 OA
ATOM     20  H   UNL     1      37.314 -25.024 -15.722  0.00  0.00    +0.295 HD
ENDBRANCH  18  19
ENDBRANCH  16  18
ENDBRANCH  13  16
ENDBRANCH   7  14
BRANCH   5  21
ATOM     21  O   UNL     1      36.446 -21.420 -18.025  0.00  0.00    -0.373 OA
ATOM     22  H   UNL     1      36.429 -21.602 -17.105  0.00  0.00    +0.211 HD
ENDBRANCH   5  21
BRANCH   9  23
ATOM     23  O   UNL     1      35.189 -17.326 -22.787  0.00  0.00    -0.453 OA
BRANCH  23  24
ATOM     24  C   UNL     1      34.624 -16.092 -22.513  0.00  0.00    +0.145 C 
ATOM     25  C   UNL     1      34.406 -15.728 -21.196  0.00  0.00    +0.037 C 
ATOM     26  C   UNL     1      34.290 -15.255 -23.563  0.00  0.00    +0.037 C 
ATOM     27  C   UNL     1      33.836 -14.485 -20.919  0.00  0.00    +0.003 C 
ATOM     28  C   UNL     1      33.719 -14.013 -23.286  0.00  0.00    +0.003 C 
ATOM     29  C   UNL     1      33.492 -13.628 -21.965  0.00  0.00    +0.000 C 
ENDBRANCH  23  24
ENDBRANCH   9  23
TORSDOF 7
ENDMDL
MODEL 4
REMARK VINA RESULT:     -11.3      7.510     12.099
REMARK  Name = 11256664
REMARK  7 active torsions:
REMARK  status: ('A' for Active; 'I' for Inactive)
REMARK    1  A    between atoms: C_5  and  O_21
REMARK    2  A    between atoms: CA_7  and  C_14
REMARK    3  A    between atoms: C_9  and  O_23
REMARK    4  A    between atoms: N_13  and  CA_16
REMARK    5  A    between atoms: CA_16  and  C_18
REMARK    6  A    between atoms: C_18  and  O_19
REMARK    7  A    between atoms: O_23  and  C_24
REMARK                            x       y       z     vdW  Elec       q    Type
REMARK                         _______ _______ _______ _____ _____    ______ ____
ROOT
ATOM      1  N   UNL     1      34.165 -22.990 -15.338  0.00  0.00    -0.403 NA
ATOM      2  C   UNL     1      34.168 -21.898 -17.512  0.00  0.00    +0.027 C 
ATOM      3  C   UNL     1      35.549 -21.642 -17.386  0.00  0.00    +0.014 C 
ATOM      4  C   UNL     1      33.539 -22.570 -16.461  0.00  0.00    +0.109 C 
ATOM      5  C   UNL     1      36.215 -22.069 -16.232  0.00  0.00    +0.190 C 
ATOM      6  C   UNL     1      33.481 -21.478 -18.663  0.00  0.00    +0.039 C 
ATOM      7  CA  UNL     1      35.487 -22.728 -15.253  0.00  0.00    +0.192 C 
ATOM      8  C   UNL     1      36.216 -20.968 -18.422  0.00  0.00    +0.002 C 
ATOM      9  C   UNL     1      34.159 -20.810 -19.681  0.00  0.00    +0.145 C 
ATOM     10  C   UNL     1      35.524 -20.555 -19.562  0.00  0.00    +0.037 C 
ATOM     11  C   UNL     1      32.077 -22.885 -16.505  0.00  0.00    +0.066 C 
ENDROOT
BRANCH   7  14
ATOM     12  O   UNL     1      37.069 -24.001 -14.081  0.00  0.00    -0.268 OA
ATOM     13  N   UNL     1      35.635 -22.680 -12.824  0.00  0.00    -0.290 N 
ATOM     14  C   ACE A   1      36.123 -23.196 -14.031  0.00  0.00    +0.275 C 
ATOM     15  H   UNL     1      34.883 -22.046 -12.859  0.00  0.00    +0.150 HD
BRANCH  13  16
ATOM     16  CA  UNL     1      36.178 -23.028 -11.531  0.00  0.00    +0.201 C 
BRANCH  16  18
ATOM     17  OXT UNL     1      35.285 -23.928  -9.484  0.00  0.00    -0.248 OA
ATOM     18  C   UNL     1      35.238 -23.871 -10.708  0.00  0.00    +0.334 C 
BRANCH  18  19
ATOM     19  O   UNL     1      34.338 -24.558 -11.448  0.00  0.00    -0.479 OA
ATOM     20  H   UNL     1      34.276 -25.489 -11.364  0.00  0.00    +0.295 HD
ENDBRANCH  18  19
ENDBRANCH  16  18
ENDBRANCH  13  16
ENDBRANCH   7  14
BRANCH   5  21
ATOM     21  O   UNL     1      37.548 -21.849 -16.057  0.00  0.00    -0.373 OA
ATOM     22  H   UNL     1      37.883 -20.973 -16.067  0.00  0.00    +0.211 HD
ENDBRANCH   5  21
BRANCH   9  23
ATOM     23  O   UNL     1      33.488 -20.404 -20.794  0.00  0.00    -0.453 OA
BRANCH  23  24
ATOM     24  C   UNL     1      33.943 -19.267 -21.442  0.00  0.00    +0.145 C 
ATOM     25  C   UNL     1      34.584 -18.285 -20.708  0.00  0.00    +0.037 C 
ATOM     26  C   UNL     1      33.745 -19.143 -22.805  0.00  0.00    +0.037 C 
ATOM     27  C   UNL     1      35.043 -17.140 -21.359  0.00  0.00    +0.003 C 
ATOM     28  C   UNL     1      34.202 -17.997 -23.456  0.00  0.00    +0.003 C 
ATOM     29  C   UNL     1      34.851 -16.996 -22.733  0.00  0.00    +0.000 C 
ENDBRANCH  23  24
ENDBRANCH   9  23
TORSDOF 7
ENDMDL
MODEL 5
REMARK VINA RESULT:     -11.2      6.742     11.237
REMARK  Name = 11256664
REMARK  7 active torsions:
REMARK  status: ('A' for Active; 'I' for Inactive)
REMARK    1  A    between atoms: C_5  and  O_21
REMARK    2  A    between atoms: CA_7  and  C_14
REMARK    3  A    between atoms: C_9  and  O_23
REMARK    4  A    between atoms: N_13  and  CA_16
REMARK    5  A    between atoms: CA_16  and  C_18
REMARK    6  A    between atoms: C_18  and  O_19
REMARK    7  A    between atoms: O_23  and  C_24
REMARK                            x       y       z     vdW  Elec       q    Type
REMARK                         _______ _______ _______ _____ _____    ______ ____
ROOT
ATOM      1  N   UNL     1      34.622 -22.437 -16.391  0.00  0.00    -0.403 NA
ATOM      2  C   UNL     1      34.658 -21.207 -18.489  0.00  0.00    +0.027 C 
ATOM      3  C   UNL     1      33.258 -21.335 -18.593  0.00  0.00    +0.014 C 
ATOM      4  C   UNL     1      35.276 -21.776 -17.373  0.00  0.00    +0.109 C 
ATOM      5  C   UNL     1      32.563 -22.016 -17.588  0.00  0.00    +0.190 C 
ATOM      6  C   UNL     1      35.374 -20.527 -19.489  0.00  0.00    +0.039 C 
ATOM      7  CA  UNL     1      33.282 -22.540 -16.525  0.00  0.00    +0.192 C 
ATOM      8  C   UNL     1      32.601 -20.776 -19.703  0.00  0.00    +0.002 C 
ATOM      9  C   UNL     1      34.706 -19.978 -20.582  0.00  0.00    +0.145 C 
ATOM     10  C   UNL     1      33.323 -20.103 -20.690  0.00  0.00    +0.037 C 
ATOM     11  C   UNL     1      36.756 -21.690 -17.178  0.00  0.00    +0.066 C 
ENDROOT
BRANCH   7  14
ATOM     12  O   UNL     1      33.203 -24.173 -14.845  0.00  0.00    -0.268 OA
ATOM     13  N   UNL     1      31.317 -22.852 -15.123  0.00  0.00    -0.290 N 
ATOM     14  C   ACE A   1      32.616 -23.258 -15.449  0.00  0.00    +0.275 C 
ATOM     15  H   UNL     1      30.914 -22.120 -15.644  0.00  0.00    +0.150 HD
BRANCH  13  16
ATOM     16  CA  UNL     1      30.536 -23.450 -14.065  0.00  0.00    +0.201 C 
BRANCH  16  18
ATOM     17  OXT UNL     1      29.288 -24.629 -15.753  0.00  0.00    -0.248 OA
ATOM     18  C   UNL     1      29.559 -24.481 -14.567  0.00  0.00    +0.334 C 
BRANCH  18  19
ATOM     19  O   UNL     1      29.010 -25.230 -13.583  0.00  0.00    -0.479 OA
ATOM     20  H   UNL     1      28.078 -25.313 -13.522  0.00  0.00    +0.295 HD
ENDBRANCH  18  19
ENDBRANCH  16  18
ENDBRANCH  13  16
ENDBRANCH   7  14
BRANCH   5  21
ATOM     21  O   UNL     1      31.210 -22.170 -17.638  0.00  0.00    -0.373 OA
ATOM     22  H   UNL     1      30.685 -21.546 -18.100  0.00  0.00    +0.211 HD
ENDBRANCH   5  21
BRANCH   9  23
ATOM     23  O   UNL     1      35.406 -19.321 -21.548  0.00  0.00    -0.453 OA
BRANCH  23  24
ATOM     24  C   UNL     1      34.970 -18.058 -21.912  0.00  0.00    +0.145 C 
ATOM     25  C   UNL     1      34.652 -17.811 -23.236  0.00  0.00    +0.037 C 
ATOM     26  C   UNL     1      34.865 -17.076 -20.944  0.00  0.00    +0.037 C 
ATOM     27  C   UNL     1      34.213 -16.539 -23.604  0.00  0.00    +0.003 C 
ATOM     28  C   UNL     1      34.428 -15.804 -21.312  0.00  0.00    +0.003 C 
ATOM     29  C   UNL     1      34.101 -15.535 -22.641  0.00  0.00    +0.000 C 
ENDBRANCH  23  24
ENDBRANCH   9  23
TORSDOF 7
ENDMDL
MODEL 6
REMARK VINA RESULT:     -11.1      2.146      8.559
REMARK  Name = 11256664
REMARK  7 active torsions:
REMARK  status: ('A' for Active; 'I' for Inactive)
REMARK    1  A    between atoms: C_5  and  O_21
REMARK    2  A    between atoms: CA_7  and  C_14
REMARK    3  A    between atoms: C_9  and  O_23
REMARK    4  A    between atoms: N_13  and  CA_16
REMARK    5  A    between atoms: CA_16  and  C_18
REMARK    6  A    between atoms: C_18  and  O_19
REMARK    7  A    between atoms: O_23  and  C_24
REMARK                            x       y       z     vdW  Elec       q    Type
REMARK                         _______ _______ _______ _____ _____    ______ ____
ROOT
ATOM      1  N   UNL     1      33.567 -14.779 -24.134  0.00  0.00    -0.403 NA
ATOM      2  C   UNL     1      32.598 -12.847 -23.019  0.00  0.00    +0.027 C 
ATOM      3  C   UNL     1      32.898 -13.414 -21.764  0.00  0.00    +0.014 C 
ATOM      4  C   UNL     1      32.955 -13.573 -24.157  0.00  0.00    +0.109 C 
ATOM      5  C   UNL     1      33.532 -14.661 -21.718  0.00  0.00    +0.190 C 
ATOM      6  C   UNL     1      31.962 -11.596 -23.087  0.00  0.00    +0.039 C 
ATOM      7  CA  UNL     1      33.839 -15.291 -22.914  0.00  0.00    +0.192 C 
ATOM      8  C   UNL     1      32.554 -12.713 -20.597  0.00  0.00    +0.002 C 
ATOM      9  C   UNL     1      31.628 -10.913 -21.918  0.00  0.00    +0.145 C 
ATOM     10  C   UNL     1      31.922 -11.470 -20.676  0.00  0.00    +0.037 C 
ATOM     11  C   UNL     1      32.676 -13.051 -25.531  0.00  0.00    +0.066 C 
ENDROOT
BRANCH   7  14
ATOM     12  O   UNL     1      34.088 -17.493 -23.681  0.00  0.00    -0.268 OA
ATOM     13  N   UNL     1      35.608 -16.749 -22.095  0.00  0.00    -0.290 N 
ATOM     14  C   ACE A   1      34.498 -16.589 -22.932  0.00  0.00    +0.275 C 
ATOM     15  H   UNL     1      35.877 -15.990 -21.528  0.00  0.00    +0.150 HD
BRANCH  13  16
ATOM     16  CA  UNL     1      36.380 -17.968 -22.019  0.00  0.00    +0.201 C 
BRANCH  16  18
ATOM     17  OXT UNL     1      35.046 -19.610 -20.871  0.00  0.00    -0.248 OA
ATOM     18  C   UNL     1      35.995 -18.835 -20.849  0.00  0.00    +0.334 C 
BRANCH  18  19
ATOM     19  O   UNL     1      36.797 -18.677 -19.771  0.00  0.00    -0.479 OA
ATOM     20  H   UNL     1      37.112 -17.825 -19.542  0.00  0.00    +0.295 HD
ENDBRANCH  18  19
ENDBRANCH  16  18
ENDBRANCH  13  16
ENDBRANCH   7  14
BRANCH   5  21
ATOM     21  O   UNL     1      33.845 -15.256 -20.534  0.00  0.00    -0.373 OA
ATOM     22  H   UNL     1      34.289 -14.769 -19.868  0.00  0.00    +0.211 HD
ENDBRANCH   5  21
BRANCH   9  23
ATOM     23  O   UNL     1      31.010  -9.701 -21.990  0.00  0.00    -0.453 OA
BRANCH  23  24
ATOM     24  C   UNL     1      31.808  -8.570 -21.946  0.00  0.00    +0.145 C 
ATOM     25  C   UNL     1      32.617  -8.274 -23.028  0.00  0.00    +0.037 C 
ATOM     26  C   UNL     1      31.777  -7.767 -20.820  0.00  0.00    +0.037 C 
ATOM     27  C   UNL     1      33.421  -7.135 -22.984  0.00  0.00    +0.003 C 
ATOM     28  C   UNL     1      32.582  -6.629 -20.775  0.00  0.00    +0.003 C 
ATOM     29  C   UNL     1      33.404  -6.313 -21.857  0.00  0.00    +0.000 C 
ENDBRANCH  23  24
ENDBRANCH   9  23
TORSDOF 7
ENDMDL
MODEL 7
REMARK VINA RESULT:     -10.9      6.641     11.211
REMARK  Name = 11256664
REMARK  7 active torsions:
REMARK  status: ('A' for Active; 'I' for Inactive)
REMARK    1  A    between atoms: C_5  and  O_21
REMARK    2  A    between atoms: CA_7  and  C_14
REMARK    3  A    between atoms: C_9  and  O_23
REMARK    4  A    between atoms: N_13  and  CA_16
REMARK    5  A    between atoms: CA_16  and  C_18
REMARK    6  A    between atoms: C_18  and  O_19
REMARK    7  A    between atoms: O_23  and  C_24
REMARK                            x       y       z     vdW  Elec       q    Type
REMARK                         _______ _______ _______ _____ _____    ______ ____
ROOT
ATOM      1  N   UNL     1      34.722 -22.269 -16.795  0.00  0.00    -0.403 NA
ATOM      2  C   UNL     1      34.551 -21.016 -18.873  0.00  0.00    +0.027 C 
ATOM      3  C   UNL     1      33.149 -21.158 -18.849  0.00  0.00    +0.014 C 
ATOM      4  C   UNL     1      35.275 -21.590 -17.826  0.00  0.00    +0.109 C 
ATOM      5  C   UNL     1      32.557 -21.858 -17.792  0.00  0.00    +0.190 C 
ATOM      6  C   UNL     1      35.165 -20.318 -19.927  0.00  0.00    +0.039 C 
ATOM      7  CA  UNL     1      33.377 -22.385 -16.806  0.00  0.00    +0.192 C 
ATOM      8  C   UNL     1      32.386 -20.595 -19.886  0.00  0.00    +0.002 C 
ATOM      9  C   UNL     1      34.393 -19.765 -20.948  0.00  0.00    +0.145 C 
ATOM     10  C   UNL     1      33.007 -19.903 -20.928  0.00  0.00    +0.037 C 
ATOM     11  C   UNL     1      36.767 -21.491 -17.767  0.00  0.00    +0.066 C 
ENDROOT
BRANCH   7  14
ATOM     12  O   UNL     1      31.608 -23.395 -15.645  0.00  0.00    -0.268 OA
ATOM     13  N   UNL     1      33.713 -23.518 -14.677  0.00  0.00    -0.290 N 
ATOM     14  C   ACE A   1      32.821 -23.122 -15.681  0.00  0.00    +0.275 C 
ATOM     15  H   UNL     1      34.660 -23.266 -14.772  0.00  0.00    +0.150 HD
BRANCH  13  16
ATOM     16  CA  UNL     1      33.317 -24.275 -13.512  0.00  0.00    +0.201 C 
BRANCH  16  18
ATOM     17  OXT UNL     1      34.105 -23.166 -11.526  0.00  0.00    -0.248 OA
ATOM     18  C   UNL     1      34.241 -24.072 -12.340  0.00  0.00    +0.334 C 
BRANCH  18  19
ATOM     19  O   UNL     1      35.236 -24.987 -12.270  0.00  0.00    -0.479 OA
ATOM     20  H   UNL     1      35.362 -25.484 -11.486  0.00  0.00    +0.295 HD
ENDBRANCH  18  19
ENDBRANCH  16  18
ENDBRANCH  13  16
ENDBRANCH   7  14
BRANCH   5  21
ATOM     21  O   UNL     1      31.207 -22.026 -17.718  0.00  0.00    -0.373 OA
ATOM     22  H   UNL     1      30.646 -21.581 -18.323  0.00  0.00    +0.211 HD
ENDBRANCH   5  21
BRANCH   9  23
ATOM     23  O   UNL     1      34.994 -19.090 -21.966  0.00  0.00    -0.453 OA
BRANCH  23  24
ATOM     24  C   UNL     1      34.691 -17.747 -22.115  0.00  0.00    +0.145 C 
ATOM     25  C   UNL     1      34.671 -16.933 -20.996  0.00  0.00    +0.037 C 
ATOM     26  C   UNL     1      34.414 -17.254 -23.377  0.00  0.00    +0.037 C 
ATOM     27  C   UNL     1      34.364 -15.580 -21.145  0.00  0.00    +0.003 C 
ATOM     28  C   UNL     1      34.107 -15.902 -23.526  0.00  0.00    +0.003 C 
ATOM     29  C   UNL     1      34.082 -15.065 -22.410  0.00  0.00    +0.000 C 
ENDBRANCH  23  24
ENDBRANCH   9  23
TORSDOF 7
ENDMDL
MODEL 8
REMARK VINA RESULT:     -10.9      2.021      3.622
REMARK  Name = 11256664
REMARK  7 active torsions:
REMARK  status: ('A' for Active; 'I' for Inactive)
REMARK    1  A    between atoms: C_5  and  O_21
REMARK    2  A    between atoms: CA_7  and  C_14
REMARK    3  A    between atoms: C_9  and  O_23
REMARK    4  A    between atoms: N_13  and  CA_16
REMARK    5  A    between atoms: CA_16  and  C_18
REMARK    6  A    between atoms: C_18  and  O_19
REMARK    7  A    between atoms: O_23  and  C_24
REMARK                            x       y       z     vdW  Elec       q    Type
REMARK                         _______ _______ _______ _____ _____    ______ ____
ROOT
ATOM      1  N   UNL     1      33.467 -13.673 -22.042  0.00  0.00    -0.403 NA
ATOM      2  C   UNL     1      34.264 -15.970 -21.945  0.00  0.00    +0.027 C 
ATOM      3  C   UNL     1      34.109 -16.087 -23.342  0.00  0.00    +0.014 C 
ATOM      4  C   UNL     1      33.928 -14.747 -21.360  0.00  0.00    +0.109 C 
ATOM      5  C   UNL     1      33.634 -14.988 -24.066  0.00  0.00    +0.190 C 
ATOM      6  C   UNL     1      34.739 -17.062 -21.200  0.00  0.00    +0.039 C 
ATOM      7  CA  UNL     1      33.332 -13.823 -23.378  0.00  0.00    +0.192 C 
ATOM      8  C   UNL     1      34.437 -17.303 -23.966  0.00  0.00    +0.002 C 
ATOM      9  C   UNL     1      35.060 -18.261 -21.836  0.00  0.00    +0.145 C 
ATOM     10  C   UNL     1      34.908 -18.381 -23.215  0.00  0.00    +0.037 C 
ATOM     11  C   UNL     1      34.058 -14.529 -19.886  0.00  0.00    +0.066 C 
ENDROOT
BRANCH   7  14
ATOM     12  O   UNL     1      32.405 -12.739 -25.238  0.00  0.00    -0.268 OA
ATOM     13  N   UNL     1      32.845 -11.438 -23.368  0.00  0.00    -0.290 N 
ATOM     14  C   ACE A   1      32.834 -12.647 -24.075  0.00  0.00    +0.275 C 
ATOM     15  H   UNL     1      33.201 -11.439 -22.450  0.00  0.00    +0.150 HD
BRANCH  13  16
ATOM     16  CA  UNL     1      32.361 -10.191 -23.915  0.00  0.00    +0.201 C 
BRANCH  16  18
ATOM     17  OXT UNL     1      31.794  -8.150 -22.771  0.00  0.00    -0.248 OA
ATOM     18  C   UNL     1      31.619  -9.356 -22.904  0.00  0.00    +0.334 C 
BRANCH  18  19
ATOM     19  O   UNL     1      30.741 -10.064 -22.157  0.00  0.00    -0.479 OA
ATOM     20  H   UNL     1      29.848  -9.788 -22.097  0.00  0.00    +0.295 HD
ENDBRANCH  18  19
ENDBRANCH  16  18
ENDBRANCH  13  16
ENDBRANCH   7  14
BRANCH   5  21
ATOM     21  O   UNL     1      33.465 -15.046 -25.416  0.00  0.00    -0.373 OA
ATOM     22  H   UNL     1      33.765 -15.795 -25.894  0.00  0.00    +0.211 HD
ENDBRANCH   5  21
BRANCH   9  23
ATOM     23  O   UNL     1      35.519 -19.316 -21.108  0.00  0.00    -0.453 OA
BRANCH  23  24
ATOM     24  C   UNL     1      34.600 -20.021 -20.348  0.00  0.00    +0.145 C 
ATOM     25  C   UNL     1      35.057 -20.958 -19.438  0.00  0.00    +0.037 C 
ATOM     26  C   UNL     1      33.251 -19.771 -20.519  0.00  0.00    +0.037 C 
ATOM     27  C   UNL     1      34.133 -21.670 -18.673  0.00  0.00    +0.003 C 
ATOM     28  C   UNL     1      32.326 -20.483 -19.755  0.00  0.00    +0.003 C 
ATOM     29  C   UNL     1      32.767 -21.432 -18.832  0.00  0.00    +0.000 C 
ENDBRANCH  23  24
ENDBRANCH   9  23
TORSDOF 7
ENDMDL
MODEL 9
REMARK VINA RESULT:     -10.6      2.508      8.679
REMARK  Name = 11256664
REMARK  7 active torsions:
REMARK  status: ('A' for Active; 'I' for Inactive)
REMARK    1  A    between atoms: C_5  and  O_21
REMARK    2  A    between atoms: CA_7  and  C_14
REMARK    3  A    between atoms: C_9  and  O_23
REMARK    4  A    between atoms: N_13  and  CA_16
REMARK    5  A    between atoms: CA_16  and  C_18
REMARK    6  A    between atoms: C_18  and  O_19
REMARK    7  A    between atoms: O_23  and  C_24
REMARK                            x       y       z     vdW  Elec       q    Type
REMARK                         _______ _______ _______ _____ _____    ______ ____
ROOT
ATOM      1  N   UNL     1      34.197 -15.839 -23.441  0.00  0.00    -0.403 NA
ATOM      2  C   UNL     1      33.023 -13.814 -22.780  0.00  0.00    +0.027 C 
ATOM      3  C   UNL     1      33.255 -14.117 -21.423  0.00  0.00    +0.014 C 
ATOM      4  C   UNL     1      33.515 -14.708 -23.733  0.00  0.00    +0.109 C 
ATOM      5  C   UNL     1      33.958 -15.282 -21.099  0.00  0.00    +0.190 C 
ATOM      6  C   UNL     1      32.319 -12.648 -23.126  0.00  0.00    +0.039 C 
ATOM      7  CA  UNL     1      34.400 -16.096 -22.131  0.00  0.00    +0.192 C 
ATOM      8  C   UNL     1      32.775 -13.240 -20.435  0.00  0.00    +0.002 C 
ATOM      9  C   UNL     1      31.850 -11.790 -22.133  0.00  0.00    +0.145 C 
ATOM     10  C   UNL     1      32.076 -12.085 -20.790  0.00  0.00    +0.037 C 
ATOM     11  C   UNL     1      33.317 -14.470 -25.197  0.00  0.00    +0.066 C 
ENDROOT
BRANCH   7  14
ATOM     12  O   UNL     1      36.269 -17.495 -22.339  0.00  0.00    -0.268 OA
ATOM     13  N   UNL     1      34.520 -18.260 -21.023  0.00  0.00    -0.290 N 
ATOM     14  C   ACE A   1      35.136 -17.321 -21.858  0.00  0.00    +0.275 C 
ATOM     15  H   UNL     1      33.620 -18.056 -20.678  0.00  0.00    +0.150 HD
BRANCH  13  16
ATOM     16  CA  UNL     1      35.133 -19.512 -20.640  0.00  0.00    +0.201 C 
BRANCH  16  18
ATOM     17  OXT UNL     1      34.574 -21.284 -19.109  0.00  0.00    -0.248 OA
ATOM     18  C   UNL     1      34.193 -20.421 -19.891  0.00  0.00    +0.334 C 
BRANCH  18  19
ATOM     19  O   UNL     1      32.888 -20.193 -20.165  0.00  0.00    -0.479 OA
ATOM     20  H   UNL     1      32.615 -19.357 -20.486  0.00  0.00    +0.295 HD
ENDBRANCH  18  19
ENDBRANCH  16  18
ENDBRANCH  13  16
ENDBRANCH   7  14
BRANCH   5  21
ATOM     21  O   UNL     1      34.211 -15.624 -19.805  0.00  0.00    -0.373 OA
ATOM     22  H   UNL     1      34.981 -16.115 -19.592  0.00  0.00    +0.211 HD
ENDBRANCH   5  21
BRANCH   9  23
ATOM     23  O   UNL     1      31.167 -10.662 -22.474  0.00  0.00    -0.453 OA
BRANCH  23  24
ATOM     24  C   UNL     1      31.521  -9.480 -21.844  0.00  0.00    +0.145 C 
ATOM     25  C   UNL     1      32.286  -8.554 -22.531  0.00  0.00    +0.037 C 
ATOM     26  C   UNL     1      31.103  -9.257 -20.545  0.00  0.00    +0.037 C 
ATOM     27  C   UNL     1      32.644  -7.364 -21.897  0.00  0.00    +0.003 C 
ATOM     28  C   UNL     1      31.462  -8.068 -19.911  0.00  0.00    +0.003 C 
ATOM     29  C   UNL     1      32.232  -7.122 -20.586  0.00  0.00    +0.000 C 
ENDBRANCH  23  24
ENDBRANCH   9  23
TORSDOF 7
ENDMDL
