MODEL 1
REMARK VINA RESULT:     -11.6      0.000      0.000
REMARK  Name = 3220
REMARK  3 active torsions:
REMARK  status: ('A' for Active; 'I' for Inactive)
REMARK    1  A    between atoms: C_10  and  O_18
REMARK    2  A    between atoms: C_12  and  O_20
REMARK    3  A    between atoms: C_15  and  O_22
REMARK                            x       y       z     vdW  Elec       q    Type
REMARK                         _______ _______ _______ _____ _____    ______ ____
ROOT
ATOM      1  O   UNL     1      33.224 -15.983 -25.384  0.00  0.00    -0.286 OA
ATOM      2  O   UNL     1      34.299 -14.263 -20.440  0.00  0.00    -0.287 OA
ATOM      3  C   UNL     1      33.536 -13.724 -22.595  0.00  0.00    +0.045 C 
ATOM      4  C   UNL     1      33.256 -14.174 -23.887  0.00  0.00    +0.076 C 
ATOM      5  C   UNL     1      33.987 -16.523 -23.229  0.00  0.00    +0.076 C 
ATOM      6  C   UNL     1      34.266 -16.073 -21.936  0.00  0.00    +0.048 C 
ATOM      7  C   UNL     1      33.470 -15.590 -24.252  0.00  0.00    +0.202 C 
ATOM      8  C   UNL     1      34.053 -14.658 -21.573  0.00  0.00    +0.196 C 
ATOM      9  C   UNL     1      33.328 -12.380 -22.263  0.00  0.00    -0.001 C 
ATOM     10  C   UNL     1      32.766 -13.279 -24.847  0.00  0.00    +0.136 C 
ATOM     11  C   UNL     1      32.842 -11.493 -23.222  0.00  0.00    -0.019 C 
ATOM     12  C   UNL     1      34.195 -17.867 -23.561  0.00  0.00    +0.140 C 
ATOM     13  C   UNL     1      34.755 -16.968 -20.976  0.00  0.00    +0.040 C 
ATOM     14  C   UNL     1      32.561 -11.941 -24.511  0.00  0.00    +0.032 C 
ATOM     15  C   UNL     1      34.960 -18.307 -21.312  0.00  0.00    +0.137 C 
ATOM     16  C   UNL     1      34.681 -18.755 -22.601  0.00  0.00    +0.073 C 
ATOM     17  C   UNL     1      32.620 -10.061 -22.868  0.00  0.00    +0.031 C 
ENDROOT
BRANCH  10  18
ATOM     18  O   UNL     1      32.473 -13.649 -26.126  0.00  0.00    -0.505 OA
ATOM     19  H   UNL     1      32.940 -13.267 -26.843  0.00  0.00    +0.292 HD
ENDBRANCH  10  18
BRANCH  12  20
ATOM     20  O   UNL     1      33.943 -18.373 -24.802  0.00  0.00    -0.505 OA
ATOM     21  H   UNL     1      33.911 -17.802 -25.544  0.00  0.00    +0.292 HD
ENDBRANCH  12  20
BRANCH  15  22
ATOM     22  O   UNL     1      35.434 -19.176 -20.378  0.00  0.00    -0.505 OA
ATOM     23  H   UNL     1      35.097 -20.049 -20.334  0.00  0.00    +0.292 HD
ENDBRANCH  15  22
TORSDOF 3
ENDMDL
MODEL 2
REMARK VINA RESULT:     -11.5      1.153      5.437
REMARK  Name = 3220
REMARK  3 active torsions:
REMARK  status: ('A' for Active; 'I' for Inactive)
REMARK    1  A    between atoms: C_10  and  O_18
REMARK    2  A    between atoms: C_12  and  O_20
REMARK    3  A    between atoms: C_15  and  O_22
REMARK                            x       y       z     vdW  Elec       q    Type
REMARK                         _______ _______ _______ _____ _____    ______ ____
ROOT
ATOM      1  O   UNL     1      33.299 -16.161 -25.405  0.00  0.00    -0.286 OA
ATOM      2  O   UNL     1      34.328 -14.553 -20.413  0.00  0.00    -0.287 OA
ATOM      3  C   UNL     1      34.285 -16.334 -21.944  0.00  0.00    +0.045 C 
ATOM      4  C   UNL     1      34.016 -16.754 -23.248  0.00  0.00    +0.076 C 
ATOM      5  C   UNL     1      33.342 -14.379 -23.874  0.00  0.00    +0.076 C 
ATOM      6  C   UNL     1      33.612 -13.959 -22.569  0.00  0.00    +0.048 C 
ATOM      7  C   UNL     1      33.535 -15.792 -24.261  0.00  0.00    +0.202 C 
ATOM      8  C   UNL     1      34.092 -14.921 -21.557  0.00  0.00    +0.196 C 
ATOM      9  C   UNL     1      34.740 -17.256 -20.993  0.00  0.00    -0.001 C 
ATOM     10  C   UNL     1      34.203 -18.096 -23.602  0.00  0.00    +0.136 C 
ATOM     11  C   UNL     1      34.924 -18.591 -21.350  0.00  0.00    -0.019 C 
ATOM     12  C   UNL     1      32.886 -13.457 -24.824  0.00  0.00    +0.140 C 
ATOM     13  C   UNL     1      33.426 -12.617 -22.216  0.00  0.00    +0.040 C 
ATOM     14  C   UNL     1      34.656 -19.010 -22.652  0.00  0.00    +0.032 C 
ATOM     15  C   UNL     1      32.973 -11.702 -23.167  0.00  0.00    +0.137 C 
ATOM     16  C   UNL     1      32.704 -12.121 -24.468  0.00  0.00    +0.073 C 
ATOM     17  C   UNL     1      35.409 -19.573 -20.337  0.00  0.00    +0.031 C 
ENDROOT
BRANCH  10  18
ATOM     18  O   UNL     1      33.959 -18.574 -24.855  0.00  0.00    -0.505 OA
ATOM     19  H   UNL     1      33.077 -18.653 -25.163  0.00  0.00    +0.292 HD
ENDBRANCH  10  18
BRANCH  12  20
ATOM     20  O   UNL     1      32.605 -13.799 -26.114  0.00  0.00    -0.505 OA
ATOM     21  H   UNL     1      32.255 -13.159 -26.703  0.00  0.00    +0.292 HD
ENDBRANCH  12  20
BRANCH  15  22
ATOM     22  O   UNL     1      32.793 -10.397 -22.822  0.00  0.00    -0.505 OA
ATOM     23  H   UNL     1      32.124 -10.162 -22.209  0.00  0.00    +0.292 HD
ENDBRANCH  15  22
TORSDOF 3
ENDMDL
MODEL 3
REMARK VINA RESULT:     -10.7      8.069     11.432
REMARK  Name = 3220
REMARK  3 active torsions:
REMARK  status: ('A' for Active; 'I' for Inactive)
REMARK    1  A    between atoms: C_10  and  O_18
REMARK    2  A    between atoms: C_12  and  O_20
REMARK    3  A    between atoms: C_15  and  O_22
REMARK                            x       y       z     vdW  Elec       q    Type
REMARK                         _______ _______ _______ _____ _____    ______ ____
ROOT
ATOM      1  O   UNL     1      32.496 -23.520 -15.073  0.00  0.00    -0.286 OA
ATOM      2  O   UNL     1      37.604 -21.972 -15.340  0.00  0.00    -0.287 OA
ATOM      3  C   UNL     1      35.528 -22.122 -16.428  0.00  0.00    +0.045 C 
ATOM      4  C   UNL     1      34.193 -22.527 -16.358  0.00  0.00    +0.076 C 
ATOM      5  C   UNL     1      34.573 -23.370 -13.984  0.00  0.00    +0.076 C 
ATOM      6  C   UNL     1      35.908 -22.964 -14.055  0.00  0.00    +0.048 C 
ATOM      7  C   UNL     1      33.666 -23.165 -15.134  0.00  0.00    +0.202 C 
ATOM      8  C   UNL     1      36.433 -22.327 -15.278  0.00  0.00    +0.196 C 
ATOM      9  C   UNL     1      36.014 -21.518 -17.593  0.00  0.00    -0.001 C 
ATOM     10  C   UNL     1      33.345 -22.327 -17.453  0.00  0.00    +0.136 C 
ATOM     11  C   UNL     1      35.165 -21.323 -18.683  0.00  0.00    -0.019 C 
ATOM     12  C   UNL     1      34.087 -23.973 -12.819  0.00  0.00    +0.140 C 
ATOM     13  C   UNL     1      36.756 -23.163 -12.958  0.00  0.00    +0.040 C 
ATOM     14  C   UNL     1      33.834 -21.726 -18.613  0.00  0.00    +0.032 C 
ATOM     15  C   UNL     1      36.266 -23.764 -11.798  0.00  0.00    +0.137 C 
ATOM     16  C   UNL     1      34.935 -24.168 -11.729  0.00  0.00    +0.073 C 
ATOM     17  C   UNL     1      35.684 -20.680 -19.924  0.00  0.00    +0.031 C 
ENDROOT
BRANCH  10  18
ATOM     18  O   UNL     1      32.032 -22.699 -17.454  0.00  0.00    -0.505 OA
ATOM     19  H   UNL     1      31.367 -22.068 -17.649  0.00  0.00    +0.292 HD
ENDBRANCH  10  18
BRANCH  12  20
ATOM     20  O   UNL     1      32.796 -24.392 -12.682  0.00  0.00    -0.505 OA
ATOM     21  H   UNL     1      32.164 -23.838 -12.268  0.00  0.00    +0.292 HD
ENDBRANCH  12  20
BRANCH  15  22
ATOM     22  O   UNL     1      37.092 -23.956 -10.733  0.00  0.00    -0.505 OA
ATOM     23  H   UNL     1      37.075 -23.358 -10.012  0.00  0.00    +0.292 HD
ENDBRANCH  15  22
TORSDOF 3
ENDMDL
MODEL 4
REMARK VINA RESULT:     -10.5      8.058     11.481
REMARK  Name = 3220
REMARK  3 active torsions:
REMARK  status: ('A' for Active; 'I' for Inactive)
REMARK    1  A    between atoms: C_10  and  O_18
REMARK    2  A    between atoms: C_12  and  O_20
REMARK    3  A    between atoms: C_15  and  O_22
REMARK                            x       y       z     vdW  Elec       q    Type
REMARK                         _______ _______ _______ _____ _____    ______ ____
ROOT
ATOM      1  O   UNL     1      34.973 -23.345 -13.900  0.00  0.00    -0.286 OA
ATOM      2  O   UNL     1      31.448 -22.407 -17.806  0.00  0.00    -0.287 OA
ATOM      3  C   UNL     1      33.674 -22.241 -17.074  0.00  0.00    +0.045 C 
ATOM      4  C   UNL     1      34.595 -22.486 -16.053  0.00  0.00    +0.076 C 
ATOM      5  C   UNL     1      32.747 -23.511 -14.631  0.00  0.00    +0.076 C 
ATOM      6  C   UNL     1      31.827 -23.267 -15.653  0.00  0.00    +0.048 C 
ATOM      7  C   UNL     1      34.166 -23.130 -14.795  0.00  0.00    +0.202 C 
ATOM      8  C   UNL     1      32.256 -22.622 -16.910  0.00  0.00    +0.196 C 
ATOM      9  C   UNL     1      34.093 -21.630 -18.262  0.00  0.00    -0.001 C 
ATOM     10  C   UNL     1      35.936 -22.121 -16.221  0.00  0.00    +0.136 C 
ATOM     11  C   UNL     1      35.430 -21.267 -18.424  0.00  0.00    -0.019 C 
ATOM     12  C   UNL     1      32.327 -24.122 -13.444  0.00  0.00    +0.140 C 
ATOM     13  C   UNL     1      30.485 -23.633 -15.485  0.00  0.00    +0.040 C 
ATOM     14  C   UNL     1      36.349 -21.512 -17.406  0.00  0.00    +0.032 C 
ATOM     15  C   UNL     1      30.072 -24.243 -14.301  0.00  0.00    +0.137 C 
ATOM     16  C   UNL     1      30.991 -24.486 -13.282  0.00  0.00    +0.073 C 
ATOM     17  C   UNL     1      35.877 -20.616 -19.689  0.00  0.00    +0.031 C 
ENDROOT
BRANCH  10  18
ATOM     18  O   UNL     1      36.888 -22.329 -15.267  0.00  0.00    -0.505 OA
ATOM     19  H   UNL     1      36.788 -23.027 -14.649  0.00  0.00    +0.292 HD
ENDBRANCH  10  18
BRANCH  12  20
ATOM     20  O   UNL     1      33.172 -24.390 -12.408  0.00  0.00    -0.505 OA
ATOM     21  H   UNL     1      32.916 -24.991 -11.737  0.00  0.00    +0.292 HD
ENDBRANCH  12  20
BRANCH  15  22
ATOM     22  O   UNL     1      28.768 -24.599 -14.139  0.00  0.00    -0.505 OA
ATOM     23  H   UNL     1      28.213 -24.702 -14.887  0.00  0.00    +0.292 HD
ENDBRANCH  15  22
TORSDOF 3
ENDMDL
MODEL 5
REMARK VINA RESULT:     -10.3      6.164      9.069
REMARK  Name = 3220
REMARK  3 active torsions:
REMARK  status: ('A' for Active; 'I' for Inactive)
REMARK    1  A    between atoms: C_10  and  O_18
REMARK    2  A    between atoms: C_12  and  O_20
REMARK    3  A    between atoms: C_15  and  O_22
REMARK                            x       y       z     vdW  Elec       q    Type
REMARK                         _______ _______ _______ _____ _____    ______ ____
ROOT
ATOM      1  O   UNL     1      31.556 -21.952 -18.098  0.00  0.00    -0.286 OA
ATOM      2  O   UNL     1      36.786 -21.747 -17.018  0.00  0.00    -0.287 OA
ATOM      3  C   UNL     1      35.042 -21.117 -18.460  0.00  0.00    +0.045 C 
ATOM      4  C   UNL     1      33.675 -21.171 -18.742  0.00  0.00    +0.076 C 
ATOM      5  C   UNL     1      33.300 -22.583 -16.656  0.00  0.00    +0.076 C 
ATOM      6  C   UNL     1      34.667 -22.527 -16.374  0.00  0.00    +0.048 C 
ATOM      7  C   UNL     1      32.754 -21.905 -17.850  0.00  0.00    +0.202 C 
ATOM      8  C   UNL     1      35.587 -21.795 -17.265  0.00  0.00    +0.196 C 
ATOM      9  C   UNL     1      35.904 -20.418 -19.313  0.00  0.00    -0.001 C 
ATOM     10  C   UNL     1      33.171 -20.524 -19.877  0.00  0.00    +0.136 C 
ATOM     11  C   UNL     1      35.397 -19.776 -20.443  0.00  0.00    -0.019 C 
ATOM     12  C   UNL     1      32.437 -23.282 -15.803  0.00  0.00    +0.140 C 
ATOM     13  C   UNL     1      35.171 -23.174 -15.237  0.00  0.00    +0.040 C 
ATOM     14  C   UNL     1      34.034 -19.829 -20.724  0.00  0.00    +0.032 C 
ATOM     15  C   UNL     1      34.307 -23.868 -14.390  0.00  0.00    +0.137 C 
ATOM     16  C   UNL     1      32.944 -23.923 -14.672  0.00  0.00    +0.073 C 
ATOM     17  C   UNL     1      36.316 -19.031 -21.351  0.00  0.00    +0.031 C 
ENDROOT
BRANCH  10  18
ATOM     18  O   UNL     1      31.849 -20.537 -20.213  0.00  0.00    -0.505 OA
ATOM     19  H   UNL     1      31.493 -21.263 -20.687  0.00  0.00    +0.292 HD
ENDBRANCH  10  18
BRANCH  12  20
ATOM     20  O   UNL     1      31.094 -23.375 -16.018  0.00  0.00    -0.505 OA
ATOM     21  H   UNL     1      30.517 -22.723 -15.671  0.00  0.00    +0.292 HD
ENDBRANCH  12  20
BRANCH  15  22
ATOM     22  O   UNL     1      34.799 -24.495 -13.286  0.00  0.00    -0.505 OA
ATOM     23  H   UNL     1      35.170 -25.353 -13.359  0.00  0.00    +0.292 HD
ENDBRANCH  15  22
TORSDOF 3
ENDMDL
MODEL 6
REMARK VINA RESULT:     -10.2      8.246     11.847
REMARK  Name = 3220
REMARK  3 active torsions:
REMARK  status: ('A' for Active; 'I' for Inactive)
REMARK    1  A    between atoms: C_10  and  O_18
REMARK    2  A    between atoms: C_12  and  O_20
REMARK    3  A    between atoms: C_15  and  O_22
REMARK                            x       y       z     vdW  Elec       q    Type
REMARK                         _______ _______ _______ _____ _____    ______ ____
ROOT
ATOM      1  O   UNL     1      35.029 -23.291 -13.887  0.00  0.00    -0.286 OA
ATOM      2  O   UNL     1      31.579 -22.430 -17.877  0.00  0.00    -0.287 OA
ATOM      3  C   UNL     1      31.920 -23.265 -15.708  0.00  0.00    +0.045 C 
ATOM      4  C   UNL     1      32.822 -23.490 -14.665  0.00  0.00    +0.076 C 
ATOM      5  C   UNL     1      34.688 -22.455 -16.056  0.00  0.00    +0.076 C 
ATOM      6  C   UNL     1      33.785 -22.230 -17.098  0.00  0.00    +0.048 C 
ATOM      7  C   UNL     1      34.239 -23.093 -14.801  0.00  0.00    +0.202 C 
ATOM      8  C   UNL     1      32.370 -22.627 -16.963  0.00  0.00    +0.196 C 
ATOM      9  C   UNL     1      30.581 -23.646 -15.567  0.00  0.00    -0.001 C 
ATOM     10  C   UNL     1      32.384 -24.095 -13.482  0.00  0.00    +0.136 C 
ATOM     11  C   UNL     1      30.149 -24.249 -14.386  0.00  0.00    -0.019 C 
ATOM     12  C   UNL     1      36.028 -22.075 -16.198  0.00  0.00    +0.140 C 
ATOM     13  C   UNL     1      34.225 -21.623 -18.282  0.00  0.00    +0.040 C 
ATOM     14  C   UNL     1      31.048 -24.473 -13.346  0.00  0.00    +0.032 C 
ATOM     15  C   UNL     1      35.560 -21.245 -18.418  0.00  0.00    +0.137 C 
ATOM     16  C   UNL     1      36.460 -21.470 -17.378  0.00  0.00    +0.073 C 
ATOM     17  C   UNL     1      28.721 -24.655 -14.236  0.00  0.00    +0.031 C 
ENDROOT
BRANCH  10  18
ATOM     18  O   UNL     1      33.209 -24.346 -12.425  0.00  0.00    -0.505 OA
ATOM     19  H   UNL     1      33.465 -25.226 -12.229  0.00  0.00    +0.292 HD
ENDBRANCH  10  18
BRANCH  12  20
ATOM     20  O   UNL     1      36.961 -22.264 -15.221  0.00  0.00    -0.505 OA
ATOM     21  H   UNL     1      37.627 -21.622 -15.078  0.00  0.00    +0.292 HD
ENDBRANCH  12  20
BRANCH  15  22
ATOM     22  O   UNL     1      35.985 -20.656 -19.569  0.00  0.00    -0.505 OA
ATOM     23  H   UNL     1      36.508 -21.139 -20.179  0.00  0.00    +0.292 HD
ENDBRANCH  15  22
TORSDOF 3
ENDMDL
MODEL 7
REMARK VINA RESULT:     -10.1      1.040      3.317
REMARK  Name = 3220
REMARK  3 active torsions:
REMARK  status: ('A' for Active; 'I' for Inactive)
REMARK    1  A    between atoms: C_10  and  O_18
REMARK    2  A    between atoms: C_12  and  O_20
REMARK    3  A    between atoms: C_15  and  O_22
REMARK                            x       y       z     vdW  Elec       q    Type
REMARK                         _______ _______ _______ _____ _____    ______ ____
ROOT
ATOM      1  O   UNL     1      34.606 -15.974 -20.421  0.00  0.00    -0.286 OA
ATOM      2  O   UNL     1      33.158 -15.624 -25.554  0.00  0.00    -0.287 OA
ATOM      3  C   UNL     1      33.470 -14.509 -23.511  0.00  0.00    +0.045 C 
ATOM      4  C   UNL     1      33.848 -14.600 -22.169  0.00  0.00    +0.076 C 
ATOM      5  C   UNL     1      34.294 -17.091 -22.465  0.00  0.00    +0.076 C 
ATOM      6  C   UNL     1      33.917 -16.998 -23.807  0.00  0.00    +0.048 C 
ATOM      7  C   UNL     1      34.274 -15.894 -21.597  0.00  0.00    +0.202 C 
ATOM      8  C   UNL     1      33.490 -15.705 -24.377  0.00  0.00    +0.196 C 
ATOM      9  C   UNL     1      33.069 -13.277 -24.040  0.00  0.00    -0.001 C 
ATOM     10  C   UNL     1      33.826 -13.459 -21.358  0.00  0.00    +0.136 C 
ATOM     11  C   UNL     1      33.047 -12.143 -23.228  0.00  0.00    -0.019 C 
ATOM     12  C   UNL     1      34.695 -18.323 -21.935  0.00  0.00    +0.140 C 
ATOM     13  C   UNL     1      33.941 -18.139 -24.618  0.00  0.00    +0.040 C 
ATOM     14  C   UNL     1      33.425 -12.234 -21.890  0.00  0.00    +0.032 C 
ATOM     15  C   UNL     1      34.342 -19.365 -24.086  0.00  0.00    +0.137 C 
ATOM     16  C   UNL     1      34.719 -19.456 -22.748  0.00  0.00    +0.073 C 
ATOM     17  C   UNL     1      32.619 -10.831 -23.793  0.00  0.00    +0.031 C 
ENDROOT
BRANCH  10  18
ATOM     18  O   UNL     1      34.180 -13.477 -20.041  0.00  0.00    -0.505 OA
ATOM     19  H   UNL     1      33.841 -12.828 -19.456  0.00  0.00    +0.292 HD
ENDBRANCH  10  18
BRANCH  12  20
ATOM     20  O   UNL     1      35.077 -18.484 -20.636  0.00  0.00    -0.505 OA
ATOM     21  H   UNL     1      35.251 -19.341 -20.301  0.00  0.00    +0.292 HD
ENDBRANCH  12  20
BRANCH  15  22
ATOM     22  O   UNL     1      34.365 -20.473 -24.876  0.00  0.00    -0.505 OA
ATOM     23  H   UNL     1      34.844 -21.232 -24.606  0.00  0.00    +0.292 HD
ENDBRANCH  15  22
TORSDOF 3
ENDMDL
MODEL 8
REMARK VINA RESULT:     -10.0      7.218     11.472
REMARK  Name = 3220
REMARK  3 active torsions:
REMARK  status: ('A' for Active; 'I' for Inactive)
REMARK    1  A    between atoms: C_10  and  O_18
REMARK    2  A    between atoms: C_12  and  O_20
REMARK    3  A    between atoms: C_15  and  O_22
REMARK                            x       y       z     vdW  Elec       q    Type
REMARK                         _______ _______ _______ _____ _____    ______ ____
ROOT
ATOM      1  O   UNL     1      32.467 -23.283 -16.019  0.00  0.00    -0.286 OA
ATOM      2  O   UNL     1      37.569 -21.721 -16.318  0.00  0.00    -0.287 OA
ATOM      3  C   UNL     1      35.917 -22.840 -15.080  0.00  0.00    +0.045 C 
ATOM      4  C   UNL     1      34.583 -23.248 -15.001  0.00  0.00    +0.076 C 
ATOM      5  C   UNL     1      34.119 -22.164 -17.258  0.00  0.00    +0.076 C 
ATOM      6  C   UNL     1      35.453 -21.757 -17.336  0.00  0.00    +0.048 C 
ATOM      7  C   UNL     1      33.636 -22.926 -16.088  0.00  0.00    +0.202 C 
ATOM      8  C   UNL     1      36.399 -22.079 -16.250  0.00  0.00    +0.196 C 
ATOM      9  C   UNL     1      36.805 -23.152 -14.043  0.00  0.00    -0.001 C 
ATOM     10  C   UNL     1      34.139 -23.969 -13.886  0.00  0.00    +0.136 C 
ATOM     11  C   UNL     1      36.357 -23.870 -12.934  0.00  0.00    -0.019 C 
ATOM     12  C   UNL     1      33.231 -21.852 -18.295  0.00  0.00    +0.140 C 
ATOM     13  C   UNL     1      35.898 -21.036 -18.452  0.00  0.00    +0.040 C 
ATOM     14  C   UNL     1      35.027 -24.278 -12.856  0.00  0.00    +0.032 C 
ATOM     15  C   UNL     1      35.009 -20.729 -19.483  0.00  0.00    +0.137 C 
ATOM     16  C   UNL     1      33.679 -21.135 -19.404  0.00  0.00    +0.073 C 
ATOM     17  C   UNL     1      37.303 -24.202 -11.831  0.00  0.00    +0.031 C 
ENDROOT
BRANCH  10  18
ATOM     18  O   UNL     1      32.852 -24.398 -13.744  0.00  0.00    -0.505 OA
ATOM     19  H   UNL     1      32.602 -25.244 -14.060  0.00  0.00    +0.292 HD
ENDBRANCH  10  18
BRANCH  12  20
ATOM     20  O   UNL     1      31.918 -22.218 -18.283  0.00  0.00    -0.505 OA
ATOM     21  H   UNL     1      31.448 -22.257 -17.473  0.00  0.00    +0.292 HD
ENDBRANCH  12  20
BRANCH  15  22
ATOM     22  O   UNL     1      35.444 -20.028 -20.567  0.00  0.00    -0.505 OA
ATOM     23  H   UNL     1      35.608 -19.108 -20.496  0.00  0.00    +0.292 HD
ENDBRANCH  15  22
TORSDOF 3
ENDMDL
MODEL 9
REMARK VINA RESULT:      -9.9      9.683     11.994
REMARK  Name = 3220
REMARK  3 active torsions:
REMARK  status: ('A' for Active; 'I' for Inactive)
REMARK    1  A    between atoms: C_10  and  O_18
REMARK    2  A    between atoms: C_12  and  O_20
REMARK    3  A    between atoms: C_15  and  O_22
REMARK                            x       y       z     vdW  Elec       q    Type
REMARK                         _______ _______ _______ _____ _____    ______ ____
ROOT
ATOM      1  O   UNL     1      35.826 -22.561 -16.612  0.00  0.00    -0.286 OA
ATOM      2  O   UNL     1      32.668 -23.899 -12.514  0.00  0.00    -0.287 OA
ATOM      3  C   UNL     1      32.807 -23.150 -14.735  0.00  0.00    +0.045 C 
ATOM      4  C   UNL     1      33.633 -22.800 -15.806  0.00  0.00    +0.076 C 
ATOM      5  C   UNL     1      35.687 -23.311 -14.390  0.00  0.00    +0.076 C 
ATOM      6  C   UNL     1      34.861 -23.662 -13.320  0.00  0.00    +0.048 C 
ATOM      7  C   UNL     1      35.103 -22.868 -15.673  0.00  0.00    +0.202 C 
ATOM      8  C   UNL     1      33.392 -23.593 -13.453  0.00  0.00    +0.196 C 
ATOM      9  C   UNL     1      31.416 -23.081 -14.875  0.00  0.00    -0.001 C 
ATOM     10  C   UNL     1      33.067 -22.382 -17.017  0.00  0.00    +0.136 C 
ATOM     11  C   UNL     1      30.857 -22.663 -16.082  0.00  0.00    -0.019 C 
ATOM     12  C   UNL     1      37.078 -23.380 -14.250  0.00  0.00    +0.140 C 
ATOM     13  C   UNL     1      35.428 -24.081 -12.109  0.00  0.00    +0.040 C 
ATOM     14  C   UNL     1      31.680 -22.315 -17.151  0.00  0.00    +0.032 C 
ATOM     15  C   UNL     1      36.815 -24.149 -11.976  0.00  0.00    +0.137 C 
ATOM     16  C   UNL     1      37.638 -23.798 -13.043  0.00  0.00    +0.073 C 
ATOM     17  C   UNL     1      29.374 -22.590 -16.230  0.00  0.00    +0.031 C 
ENDROOT
BRANCH  10  18
ATOM     18  O   UNL     1      33.812 -22.025 -18.101  0.00  0.00    -0.505 OA
ATOM     19  H   UNL     1      34.748 -22.022 -18.047  0.00  0.00    +0.292 HD
ENDBRANCH  10  18
BRANCH  12  20
ATOM     20  O   UNL     1      37.942 -23.053 -15.254  0.00  0.00    -0.505 OA
ATOM     21  H   UNL     1      38.620 -23.650 -15.502  0.00  0.00    +0.292 HD
ENDBRANCH  12  20
BRANCH  15  22
ATOM     22  O   UNL     1      37.364 -24.556 -10.798  0.00  0.00    -0.505 OA
ATOM     23  H   UNL     1      37.265 -24.032 -10.028  0.00  0.00    +0.292 HD
ENDBRANCH  15  22
TORSDOF 3
ENDMDL
