MODEL 1
REMARK VINA RESULT:     -12.1      0.000      0.000
REMARK  Name = 3071
REMARK  2 active torsions:
REMARK  status: ('A' for Active; 'I' for Inactive)
REMARK    1  A    between atoms: C_1  and  C_3
REMARK    2  A    between atoms: C_1  and  C_13
REMARK                            x       y       z     vdW  Elec       q    Type
REMARK                         _______ _______ _______ _____ _____    ______ ____
ROOT
ATOM      1  C   UNL     1      34.437 -17.370 -23.020  0.00  0.00    +0.055 C 
ENDROOT
BRANCH   1   3
ATOM      2  N   UNL     1      33.951 -14.139 -21.390  0.00  0.00    -0.312 N 
ATOM      3  C   UNL     1      34.159 -15.975 -22.618  0.00  0.00    -0.002 C 
ATOM      4  C   UNL     1      33.693 -14.928 -23.461  0.00  0.00    +0.011 C 
ATOM      5  C   UNL     1      33.569 -13.786 -22.666  0.00  0.00    +0.048 C 
ATOM      6  C   UNL     1      34.308 -15.460 -21.352  0.00  0.00    +0.058 C 
ATOM      7  C   UNL     1      33.361 -14.841 -24.827  0.00  0.00    +0.001 C 
ATOM      8  C   UNL     1      33.131 -12.557 -23.170  0.00  0.00    +0.015 C 
ATOM      9  C   UNL     1      32.920 -13.618 -25.347  0.00  0.00    +0.000 C 
ATOM     10  C   UNL     1      32.808 -12.495 -24.528  0.00  0.00    +0.001 C 
ATOM     11  H   UNL     1      33.963 -13.529 -20.617  0.00  0.00    +0.152 HD
ENDBRANCH   1   3
BRANCH   1  13
ATOM     12  N   UNL     1      36.906 -18.931 -20.830  0.00  0.00    -0.312 N 
ATOM     13  C   UNL     1      35.237 -18.170 -22.003  0.00  0.00    -0.002 C 
ATOM     14  C   UNL     1      34.704 -19.122 -21.131  0.00  0.00    +0.011 C 
ATOM     15  C   UNL     1      35.788 -19.599 -20.388  0.00  0.00    +0.048 C 
ATOM     16  C   UNL     1      36.571 -18.051 -21.824  0.00  0.00    +0.058 C 
ATOM     17  C   UNL     1      33.423 -19.648 -20.874  0.00  0.00    +0.001 C 
ATOM     18  C   UNL     1      35.651 -20.579 -19.397  0.00  0.00    +0.015 C 
ATOM     19  C   UNL     1      33.271 -20.628 -19.886  0.00  0.00    +0.000 C 
ATOM     20  C   UNL     1      34.370 -21.084 -19.161  0.00  0.00    +0.001 C 
ATOM     21  H   UNL     1      37.818 -19.066 -20.482  0.00  0.00    +0.152 HD
ENDBRANCH   1  13
TORSDOF 2
ENDMDL
MODEL 2
REMARK VINA RESULT:     -12.1      0.022      6.696
REMARK  Name = 3071
REMARK  2 active torsions:
REMARK  status: ('A' for Active; 'I' for Inactive)
REMARK    1  A    between atoms: C_1  and  C_3
REMARK    2  A    between atoms: C_1  and  C_13
REMARK                            x       y       z     vdW  Elec       q    Type
REMARK                         _______ _______ _______ _____ _____    ______ ____
ROOT
ATOM      1  C   UNL     1      34.444 -17.367 -23.007  0.00  0.00    +0.055 C 
ENDROOT
BRANCH   1   3
ATOM      2  N   UNL     1      36.904 -18.935 -20.812  0.00  0.00    -0.312 N 
ATOM      3  C   UNL     1      35.217 -18.147 -22.019  0.00  0.00    -0.002 C 
ATOM      4  C   UNL     1      34.702 -19.122 -21.119  0.00  0.00    +0.011 C 
ATOM      5  C   UNL     1      35.782 -19.603 -20.374  0.00  0.00    +0.048 C 
ATOM      6  C   UNL     1      36.573 -18.054 -21.806  0.00  0.00    +0.058 C 
ATOM      7  C   UNL     1      33.419 -19.646 -20.869  0.00  0.00    +0.001 C 
ATOM      8  C   UNL     1      35.641 -20.583 -19.386  0.00  0.00    +0.015 C 
ATOM      9  C   UNL     1      33.263 -20.627 -19.882  0.00  0.00    +0.000 C 
ATOM     10  C   UNL     1      34.359 -21.086 -19.154  0.00  0.00    +0.001 C 
ATOM     11  H   UNL     1      37.814 -19.074 -20.461  0.00  0.00    +0.152 HD
ENDBRANCH   1   3
BRANCH   1  13
ATOM     12  N   UNL     1      33.956 -14.140 -21.372  0.00  0.00    -0.312 N 
ATOM     13  C   UNL     1      34.157 -15.932 -22.592  0.00  0.00    -0.002 C 
ATOM     14  C   UNL     1      33.698 -14.925 -23.444  0.00  0.00    +0.011 C 
ATOM     15  C   UNL     1      33.574 -13.785 -22.645  0.00  0.00    +0.048 C 
ATOM     16  C   UNL     1      34.315 -15.460 -21.336  0.00  0.00    +0.058 C 
ATOM     17  C   UNL     1      33.366 -14.835 -24.810  0.00  0.00    +0.001 C 
ATOM     18  C   UNL     1      33.134 -12.555 -23.149  0.00  0.00    +0.015 C 
ATOM     19  C   UNL     1      32.925 -13.611 -25.327  0.00  0.00    +0.000 C 
ATOM     20  C   UNL     1      32.811 -12.491 -24.506  0.00  0.00    +0.001 C 
ATOM     21  H   UNL     1      33.969 -13.531 -20.597  0.00  0.00    +0.152 HD
ENDBRANCH   1  13
TORSDOF 2
ENDMDL
MODEL 3
REMARK VINA RESULT:     -11.5      1.255      6.291
REMARK  Name = 3071
REMARK  2 active torsions:
REMARK  status: ('A' for Active; 'I' for Inactive)
REMARK    1  A    between atoms: C_1  and  C_3
REMARK    2  A    between atoms: C_1  and  C_13
REMARK                            x       y       z     vdW  Elec       q    Type
REMARK                         _______ _______ _______ _____ _____    ______ ____
ROOT
ATOM      1  C   UNL     1      34.138 -18.044 -23.209  0.00  0.00    +0.055 C 
ENDROOT
BRANCH   1   3
ATOM      2  N   UNL     1      36.920 -18.698 -20.937  0.00  0.00    -0.312 N 
ATOM      3  C   UNL     1      35.079 -18.479 -22.157  0.00  0.00    -0.002 C 
ATOM      4  C   UNL     1      34.803 -19.382 -21.093  0.00  0.00    +0.011 C 
ATOM      5  C   UNL     1      35.975 -19.503 -20.343  0.00  0.00    +0.048 C 
ATOM      6  C   UNL     1      36.389 -18.075 -22.034  0.00  0.00    +0.058 C 
ATOM      7  C   UNL     1      33.666 -20.113 -20.696  0.00  0.00    +0.001 C 
ATOM      8  C   UNL     1      36.066 -20.320 -19.210  0.00  0.00    +0.015 C 
ATOM      9  C   UNL     1      33.742 -20.934 -19.565  0.00  0.00    +0.000 C 
ATOM     10  C   UNL     1      34.925 -21.034 -18.835  0.00  0.00    +0.001 C 
ATOM     11  H   UNL     1      37.846 -18.587 -20.619  0.00  0.00    +0.152 HD
ENDBRANCH   1   3
BRANCH   1  13
ATOM     12  N   UNL     1      34.049 -14.593 -24.397  0.00  0.00    -0.312 N 
ATOM     13  C   UNL     1      34.081 -16.538 -23.420  0.00  0.00    -0.002 C 
ATOM     14  C   UNL     1      33.977 -15.588 -22.402  0.00  0.00    +0.011 C 
ATOM     15  C   UNL     1      33.959 -14.348 -23.047  0.00  0.00    +0.048 C 
ATOM     16  C   UNL     1      34.124 -15.940 -24.630  0.00  0.00    +0.058 C 
ATOM     17  C   UNL     1      33.897 -15.622 -20.996  0.00  0.00    +0.001 C 
ATOM     18  C   UNL     1      33.862 -13.137 -22.351  0.00  0.00    +0.015 C 
ATOM     19  C   UNL     1      33.800 -14.419 -20.287  0.00  0.00    +0.000 C 
ATOM     20  C   UNL     1      33.784 -13.197 -20.957  0.00  0.00    +0.001 C 
ATOM     21  H   UNL     1      34.058 -13.899 -25.096  0.00  0.00    +0.152 HD
ENDBRANCH   1  13
TORSDOF 2
ENDMDL
MODEL 4
REMARK VINA RESULT:     -11.4      2.000      7.060
REMARK  Name = 3071
REMARK  2 active torsions:
REMARK  status: ('A' for Active; 'I' for Inactive)
REMARK    1  A    between atoms: C_1  and  C_3
REMARK    2  A    between atoms: C_1  and  C_13
REMARK                            x       y       z     vdW  Elec       q    Type
REMARK                         _______ _______ _______ _____ _____    ______ ____
ROOT
ATOM      1  C   UNL     1      35.071 -18.930 -21.353  0.00  0.00    +0.055 C 
ENDROOT
BRANCH   1   3
ATOM      2  N   UNL     1      32.223 -20.678 -19.882  0.00  0.00    -0.312 N 
ATOM      3  C   UNL     1      34.112 -19.746 -20.581  0.00  0.00    -0.002 C 
ATOM      4  C   UNL     1      34.416 -20.592 -19.477  0.00  0.00    +0.011 C 
ATOM      5  C   UNL     1      33.213 -21.165 -19.057  0.00  0.00    +0.048 C 
ATOM      6  C   UNL     1      32.757 -19.820 -20.805  0.00  0.00    +0.058 C 
ATOM      7  C   UNL     1      35.601 -20.926 -18.793  0.00  0.00    +0.001 C 
ATOM      8  C   UNL     1      33.136 -22.058 -17.983  0.00  0.00    +0.015 C 
ATOM      9  C   UNL     1      35.539 -21.819 -17.717  0.00  0.00    +0.000 C 
ATOM     10  C   UNL     1      34.325 -22.375 -17.320  0.00  0.00    +0.001 C 
ATOM     11  H   UNL     1      31.269 -20.913 -19.816  0.00  0.00    +0.152 HD
ENDBRANCH   1   3
BRANCH   1  13
ATOM     12  N   UNL     1      33.634 -18.039 -24.589  0.00  0.00    -0.312 N 
ATOM     13  C   UNL     1      34.486 -18.284 -22.600  0.00  0.00    -0.002 C 
ATOM     14  C   UNL     1      34.273 -16.915 -22.771  0.00  0.00    +0.011 C 
ATOM     15  C   UNL     1      33.728 -16.776 -24.051  0.00  0.00    +0.048 C 
ATOM     16  C   UNL     1      34.100 -18.968 -23.699  0.00  0.00    +0.058 C 
ATOM     17  C   UNL     1      34.477 -15.758 -21.993  0.00  0.00    +0.001 C 
ATOM     18  C   UNL     1      33.375 -15.533 -24.590  0.00  0.00    +0.015 C 
ATOM     19  C   UNL     1      34.129 -14.509 -22.520  0.00  0.00    +0.000 C 
ATOM     20  C   UNL     1      33.587 -14.401 -23.799  0.00  0.00    +0.001 C 
ATOM     21  H   UNL     1      33.282 -18.244 -25.486  0.00  0.00    +0.152 HD
ENDBRANCH   1  13
TORSDOF 2
ENDMDL
MODEL 5
REMARK VINA RESULT:     -11.3      2.045      3.427
REMARK  Name = 3071
REMARK  2 active torsions:
REMARK  status: ('A' for Active; 'I' for Inactive)
REMARK    1  A    between atoms: C_1  and  C_3
REMARK    2  A    between atoms: C_1  and  C_13
REMARK                            x       y       z     vdW  Elec       q    Type
REMARK                         _______ _______ _______ _____ _____    ______ ____
ROOT
ATOM      1  C   UNL     1      35.007 -19.131 -21.353  0.00  0.00    +0.055 C 
ENDROOT
BRANCH   1   3
ATOM      2  N   UNL     1      33.651 -18.088 -24.578  0.00  0.00    -0.312 N 
ATOM      3  C   UNL     1      34.476 -18.447 -22.550  0.00  0.00    -0.002 C 
ATOM      4  C   UNL     1      34.284 -17.046 -22.711  0.00  0.00    +0.011 C 
ATOM      5  C   UNL     1      33.766 -16.847 -23.992  0.00  0.00    +0.048 C 
ATOM      6  C   UNL     1      34.078 -19.061 -23.715  0.00  0.00    +0.058 C 
ATOM      7  C   UNL     1      34.504 -15.924 -21.887  0.00  0.00    +0.001 C 
ATOM      8  C   UNL     1      33.454 -15.579 -24.493  0.00  0.00    +0.015 C 
ATOM      9  C   UNL     1      34.196 -14.648 -22.374  0.00  0.00    +0.000 C 
ATOM     10  C   UNL     1      33.680 -14.481 -23.658  0.00  0.00    +0.001 C 
ATOM     11  H   UNL     1      33.310 -18.252 -25.489  0.00  0.00    +0.152 HD
ENDBRANCH   1   3
BRANCH   1  13
ATOM     12  N   UNL     1      32.034 -20.602 -19.827  0.00  0.00    -0.312 N 
ATOM     13  C   UNL     1      33.959 -19.869 -20.533  0.00  0.00    -0.002 C 
ATOM     14  C   UNL     1      34.229 -20.693 -19.439  0.00  0.00    +0.011 C 
ATOM     15  C   UNL     1      32.985 -21.153 -18.999  0.00  0.00    +0.048 C 
ATOM     16  C   UNL     1      32.631 -19.811 -20.772  0.00  0.00    +0.058 C 
ATOM     17  C   UNL     1      35.387 -21.112 -18.755  0.00  0.00    +0.001 C 
ATOM     18  C   UNL     1      32.843 -22.015 -17.906  0.00  0.00    +0.015 C 
ATOM     19  C   UNL     1      35.260 -21.974 -17.659  0.00  0.00    +0.000 C 
ATOM     20  C   UNL     1      34.006 -22.417 -17.244  0.00  0.00    +0.001 C 
ATOM     21  H   UNL     1      31.064 -20.755 -19.751  0.00  0.00    +0.152 HD
ENDBRANCH   1  13
TORSDOF 2
ENDMDL
MODEL 6
REMARK VINA RESULT:     -11.3      1.678      6.708
REMARK  Name = 3071
REMARK  2 active torsions:
REMARK  status: ('A' for Active; 'I' for Inactive)
REMARK    1  A    between atoms: C_1  and  C_3
REMARK    2  A    between atoms: C_1  and  C_13
REMARK                            x       y       z     vdW  Elec       q    Type
REMARK                         _______ _______ _______ _____ _____    ______ ____
ROOT
ATOM      1  C   UNL     1      35.268 -18.303 -22.107  0.00  0.00    +0.055 C 
ENDROOT
BRANCH   1   3
ATOM      2  N   UNL     1      32.458 -20.091 -20.613  0.00  0.00    -0.312 N 
ATOM      3  C   UNL     1      34.328 -19.138 -21.332  0.00  0.00    -0.002 C 
ATOM      4  C   UNL     1      34.658 -20.006 -20.253  0.00  0.00    +0.011 C 
ATOM      5  C   UNL     1      33.466 -20.592 -19.820  0.00  0.00    +0.048 C 
ATOM      6  C   UNL     1      32.969 -19.212 -21.529  0.00  0.00    +0.058 C 
ATOM      7  C   UNL     1      35.858 -20.349 -19.601  0.00  0.00    +0.001 C 
ATOM      8  C   UNL     1      33.415 -21.508 -18.763  0.00  0.00    +0.015 C 
ATOM      9  C   UNL     1      35.822 -21.265 -18.542  0.00  0.00    +0.000 C 
ATOM     10  C   UNL     1      34.618 -21.833 -18.132  0.00  0.00    +0.001 C 
ATOM     11  H   UNL     1      31.506 -20.332 -20.532  0.00  0.00    +0.152 HD
ENDBRANCH   1   3
BRANCH   1  13
ATOM     12  N   UNL     1      33.748 -15.986 -24.485  0.00  0.00    -0.312 N 
ATOM     13  C   UNL     1      34.613 -17.158 -22.867  0.00  0.00    -0.002 C 
ATOM     14  C   UNL     1      34.231 -15.937 -22.308  0.00  0.00    +0.011 C 
ATOM     15  C   UNL     1      33.680 -15.199 -23.359  0.00  0.00    +0.048 C 
ATOM     16  C   UNL     1      34.322 -17.192 -24.186  0.00  0.00    +0.058 C 
ATOM     17  C   UNL     1      34.284 -15.355 -21.026  0.00  0.00    +0.001 C 
ATOM     18  C   UNL     1      33.177 -13.904 -23.189  0.00  0.00    +0.015 C 
ATOM     19  C   UNL     1      33.785 -14.060 -20.842  0.00  0.00    +0.000 C 
ATOM     20  C   UNL     1      33.241 -13.348 -21.909  0.00  0.00    +0.001 C 
ATOM     21  H   UNL     1      33.430 -15.720 -25.379  0.00  0.00    +0.152 HD
ENDBRANCH   1  13
TORSDOF 2
ENDMDL
MODEL 7
REMARK VINA RESULT:     -11.0      2.272      7.136
REMARK  Name = 3071
REMARK  2 active torsions:
REMARK  status: ('A' for Active; 'I' for Inactive)
REMARK    1  A    between atoms: C_1  and  C_3
REMARK    2  A    between atoms: C_1  and  C_13
REMARK                            x       y       z     vdW  Elec       q    Type
REMARK                         _______ _______ _______ _____ _____    ______ ____
ROOT
ATOM      1  C   UNL     1      34.204 -13.734 -22.939  0.00  0.00    +0.055 C 
ENDROOT
BRANCH   1   3
ATOM      2  N   UNL     1      33.308 -16.782 -24.739  0.00  0.00    -0.312 N 
ATOM      3  C   UNL     1      33.955 -15.100 -23.443  0.00  0.00    -0.002 C 
ATOM      4  C   UNL     1      34.288 -16.319 -22.789  0.00  0.00    +0.011 C 
ATOM      5  C   UNL     1      33.871 -17.359 -23.622  0.00  0.00    +0.048 C 
ATOM      6  C   UNL     1      33.354 -15.417 -24.640  0.00  0.00    +0.058 C 
ATOM      7  C   UNL     1      34.903 -16.639 -21.563  0.00  0.00    +0.001 C 
ATOM      8  C   UNL     1      34.041 -18.708 -23.291  0.00  0.00    +0.015 C 
ATOM      9  C   UNL     1      35.081 -17.984 -21.218  0.00  0.00    +0.000 C 
ATOM     10  C   UNL     1      34.655 -19.000 -22.070  0.00  0.00    +0.001 C 
ATOM     11  H   UNL     1      32.928 -17.279 -25.499  0.00  0.00    +0.152 HD
ENDBRANCH   1   3
BRANCH   1  13
ATOM     12  N   UNL     1      31.564 -12.965 -20.536  0.00  0.00    -0.312 N 
ATOM     13  C   UNL     1      33.079 -13.163 -22.088  0.00  0.00    -0.002 C 
ATOM     14  C   UNL     1      32.470 -11.923 -22.288  0.00  0.00    +0.011 C 
ATOM     15  C   UNL     1      31.502 -11.813 -21.286  0.00  0.00    +0.048 C 
ATOM     16  C   UNL     1      32.533 -13.798 -21.027  0.00  0.00    +0.058 C 
ATOM     17  C   UNL     1      32.618 -10.865 -23.206  0.00  0.00    +0.001 C 
ATOM     18  C   UNL     1      30.673 -10.692 -21.157  0.00  0.00    +0.015 C 
ATOM     19  C   UNL     1      31.795  -9.738 -23.089  0.00  0.00    +0.000 C 
ATOM     20  C   UNL     1      30.839  -9.656 -22.079  0.00  0.00    +0.001 C 
ATOM     21  H   UNL     1      30.993 -13.162 -19.758  0.00  0.00    +0.152 HD
ENDBRANCH   1  13
TORSDOF 2
ENDMDL
MODEL 8
REMARK VINA RESULT:     -11.0      2.271      3.904
REMARK  Name = 3071
REMARK  2 active torsions:
REMARK  status: ('A' for Active; 'I' for Inactive)
REMARK    1  A    between atoms: C_1  and  C_3
REMARK    2  A    between atoms: C_1  and  C_13
REMARK                            x       y       z     vdW  Elec       q    Type
REMARK                         _______ _______ _______ _____ _____    ______ ____
ROOT
ATOM      1  C   UNL     1      34.195 -13.725 -22.972  0.00  0.00    +0.055 C 
ENDROOT
BRANCH   1   3
ATOM      2  N   UNL     1      31.578 -12.966 -20.542  0.00  0.00    -0.312 N 
ATOM      3  C   UNL     1      33.112 -13.174 -22.132  0.00  0.00    -0.002 C 
ATOM      4  C   UNL     1      32.471 -11.914 -22.295  0.00  0.00    +0.011 C 
ATOM      5  C   UNL     1      31.512 -11.808 -21.285  0.00  0.00    +0.048 C 
ATOM      6  C   UNL     1      32.541 -13.798 -21.047  0.00  0.00    +0.058 C 
ATOM      7  C   UNL     1      32.613 -10.851 -23.208  0.00  0.00    +0.001 C 
ATOM      8  C   UNL     1      30.687 -10.688 -21.140  0.00  0.00    +0.015 C 
ATOM      9  C   UNL     1      31.794  -9.723 -23.076  0.00  0.00    +0.000 C 
ATOM     10  C   UNL     1      30.847  -9.646 -22.057  0.00  0.00    +0.001 C 
ATOM     11  H   UNL     1      31.013 -13.167 -19.760  0.00  0.00    +0.152 HD
ENDBRANCH   1   3
BRANCH   1  13
ATOM     12  N   UNL     1      33.310 -16.795 -24.739  0.00  0.00    -0.312 N 
ATOM     13  C   UNL     1      33.944 -15.139 -23.476  0.00  0.00    -0.002 C 
ATOM     14  C   UNL     1      34.289 -16.308 -22.795  0.00  0.00    +0.011 C 
ATOM     15  C   UNL     1      33.875 -17.358 -23.618  0.00  0.00    +0.048 C 
ATOM     16  C   UNL     1      33.351 -15.430 -24.654  0.00  0.00    +0.058 C 
ATOM     17  C   UNL     1      34.908 -16.613 -21.566  0.00  0.00    +0.001 C 
ATOM     18  C   UNL     1      34.052 -18.703 -23.272  0.00  0.00    +0.015 C 
ATOM     19  C   UNL     1      35.092 -17.953 -21.207  0.00  0.00    +0.000 C 
ATOM     20  C   UNL     1      34.669 -18.980 -22.049  0.00  0.00    +0.001 C 
ATOM     21  H   UNL     1      32.931 -17.302 -25.494  0.00  0.00    +0.152 HD
ENDBRANCH   1  13
TORSDOF 2
ENDMDL
MODEL 9
REMARK VINA RESULT:     -10.9      1.496      2.372
REMARK  Name = 3071
REMARK  2 active torsions:
REMARK  status: ('A' for Active; 'I' for Inactive)
REMARK    1  A    between atoms: C_1  and  C_3
REMARK    2  A    between atoms: C_1  and  C_13
REMARK                            x       y       z     vdW  Elec       q    Type
REMARK                         _______ _______ _______ _____ _____    ______ ____
ROOT
ATOM      1  C   UNL     1      34.857 -18.556 -21.963  0.00  0.00    +0.055 C 
ENDROOT
BRANCH   1   3
ATOM      2  N   UNL     1      34.241 -15.077 -21.044  0.00  0.00    -0.312 N 
ATOM      3  C   UNL     1      34.545 -17.116 -21.866  0.00  0.00    -0.002 C 
ATOM      4  C   UNL     1      34.133 -16.265 -22.930  0.00  0.00    +0.011 C 
ATOM      5  C   UNL     1      33.948 -14.991 -22.387  0.00  0.00    +0.048 C 
ATOM      6  C   UNL     1      34.602 -16.357 -20.720  0.00  0.00    +0.058 C 
ATOM      7  C   UNL     1      33.898 -16.457 -24.305  0.00  0.00    +0.001 C 
ATOM      8  C   UNL     1      33.540 -13.895 -23.155  0.00  0.00    +0.015 C 
ATOM      9  C   UNL     1      33.488 -15.369 -25.086  0.00  0.00    +0.000 C 
ATOM     10  C   UNL     1      33.313 -14.109 -24.517  0.00  0.00    +0.001 C 
ATOM     11  H   UNL     1      34.196 -14.326 -20.409  0.00  0.00    +0.152 HD
ENDBRANCH   1   3
BRANCH   1  13
ATOM     12  N   UNL     1      32.284 -20.459 -20.204  0.00  0.00    -0.312 N 
ATOM     13  C   UNL     1      34.008 -19.446 -21.066  0.00  0.00    -0.002 C 
ATOM     14  C   UNL     1      34.495 -20.229 -20.018  0.00  0.00    +0.011 C 
ATOM     15  C   UNL     1      33.377 -20.870 -19.477  0.00  0.00    +0.048 C 
ATOM     16  C   UNL     1      32.669 -19.582 -21.183  0.00  0.00    +0.058 C 
ATOM     17  C   UNL     1      35.760 -20.479 -19.450  0.00  0.00    +0.001 C 
ATOM     18  C   UNL     1      33.463 -21.752 -18.393  0.00  0.00    +0.015 C 
ATOM     19  C   UNL     1      35.861 -21.358 -18.365  0.00  0.00    +0.000 C 
ATOM     20  C   UNL     1      34.728 -21.983 -17.847  0.00  0.00    +0.001 C 
ATOM     21  H   UNL     1      31.358 -20.753 -20.044  0.00  0.00    +0.152 HD
ENDBRANCH   1  13
TORSDOF 2
ENDMDL
