MODEL 1
REMARK VINA RESULT:     -12.2      0.000      0.000
REMARK  Name = 24779675
REMARK  4 active torsions:
REMARK  status: ('A' for Active; 'I' for Inactive)
REMARK    1  A    between atoms: N_1  and  C_22
REMARK    2  A    between atoms: N_5  and  C_14
REMARK    3  A    between atoms: C_10  and  C_21
REMARK    4  A    between atoms: C_22  and  C_23
REMARK                            x       y       z     vdW  Elec       q    Type
REMARK                         _______ _______ _______ _____ _____    ______ ____
ROOT
ATOM      1  N   UNL     1      33.892 -22.116 -18.343  0.00  0.00    -0.259 N 
ATOM      2  N   UNL     1      31.955 -22.360 -17.131  0.00  0.00    -0.314 NA
ATOM      3  N   UNL     1      34.020 -23.202 -16.275  0.00  0.00    -0.295 NA
ATOM      4  N   UNL     1      32.101 -23.454 -15.052  0.00  0.00    -0.123 N 
ATOM      5  N   UNL     1      34.125 -24.298 -14.175  0.00  0.00    -0.274 N 
ATOM      6  N   UNL     1      31.393 -23.863 -13.985  0.00  0.00    -0.170 NA
ATOM      7  C   UNL     1      33.251 -22.556 -17.240  0.00  0.00    +0.203 C 
ATOM      8  C   UNL     1      31.359 -22.819 -16.006  0.00  0.00    +0.219 C 
ATOM      9  C   UNL     1      33.466 -23.652 -15.186  0.00  0.00    +0.279 C 
ATOM     10  C   UNL     1      30.070 -22.812 -15.525  0.00  0.00    +0.203 C 
ATOM     11  C   UNL     1      30.152 -23.467 -14.279  0.00  0.00    +0.116 C 
ATOM     12  H   UNL     1      34.861 -22.269 -18.412  0.00  0.00    +0.160 HD
ATOM     13  H   UNL     1      33.579 -24.585 -13.408  0.00  0.00    +0.156 HD
ENDROOT
BRANCH   5  14
ATOM     14  C   UNL     1      35.488 -24.593 -14.117  0.00  0.00    +0.051 C 
ATOM     15  C   UNL     1      35.974 -25.763 -14.702  0.00  0.00    +0.015 C 
ATOM     16  C   UNL     1      36.364 -23.718 -13.474  0.00  0.00    +0.015 C 
ATOM     17  C   UNL     1      37.336 -26.058 -14.643  0.00  0.00    +0.001 C 
ATOM     18  C   UNL     1      37.726 -24.014 -13.416  0.00  0.00    +0.001 C 
ATOM     19  C   UNL     1      38.212 -25.183 -14.000  0.00  0.00    +0.000 C 
ENDBRANCH   5  14
BRANCH  10  21
ATOM     20  N   UNL     1      27.992 -21.812 -16.686  0.00  0.00    -0.195 NA
ATOM     21  C   UNL     1      28.927 -22.261 -16.163  0.00  0.00    +0.087 C 
ENDBRANCH  10  21
BRANCH   1  22
ATOM     22  C   UNL     1      33.227 -21.434 -19.421  0.00  0.00    +0.099 C 
BRANCH  22  23
ATOM     23  C   UNL     1      34.008 -20.174 -19.792  0.00  0.00    +0.020 C 
ATOM     24  C   UNL     1      35.517 -20.457 -19.805  0.00  0.00    +0.002 C 
ATOM     25  C   UNL     1      33.544 -19.628 -21.149  0.00  0.00    +0.002 C 
ATOM     26  C   UNL     1      36.318 -19.227 -20.225  0.00  0.00    +0.000 C 
ATOM     27  C   UNL     1      34.348 -18.399 -21.567  0.00  0.00    +0.000 C 
ATOM     28  C   UNL     1      35.848 -18.681 -21.569  0.00  0.00    +0.000 C 
ENDBRANCH  22  23
ENDBRANCH   1  22
TORSDOF 4
ENDMDL
MODEL 2
REMARK VINA RESULT:     -12.0      1.301      2.076
REMARK  Name = 24779675
REMARK  4 active torsions:
REMARK  status: ('A' for Active; 'I' for Inactive)
REMARK    1  A    between atoms: N_1  and  C_22
REMARK    2  A    between atoms: N_5  and  C_14
REMARK    3  A    between atoms: C_10  and  C_21
REMARK    4  A    between atoms: C_22  and  C_23
REMARK                            x       y       z     vdW  Elec       q    Type
REMARK                         _______ _______ _______ _____ _____    ______ ____
ROOT
ATOM      1  N   UNL     1      33.415 -22.403 -17.165  0.00  0.00    -0.259 N 
ATOM      2  N   UNL     1      31.515 -23.132 -16.098  0.00  0.00    -0.314 NA
ATOM      3  N   UNL     1      33.635 -23.282 -15.009  0.00  0.00    -0.295 NA
ATOM      4  N   UNL     1      31.753 -24.013 -13.930  0.00  0.00    -0.123 N 
ATOM      5  N   UNL     1      33.833 -24.177 -12.823  0.00  0.00    -0.274 N 
ATOM      6  N   UNL     1      31.086 -24.549 -12.892  0.00  0.00    -0.170 NA
ATOM      7  C   UNL     1      32.816 -22.947 -16.085  0.00  0.00    +0.203 C 
ATOM      8  C   UNL     1      30.963 -23.679 -14.991  0.00  0.00    +0.219 C 
ATOM      9  C   UNL     1      33.124 -23.811 -13.935  0.00  0.00    +0.279 C 
ATOM     10  C   UNL     1      29.683 -24.021 -14.618  0.00  0.00    +0.203 C 
ATOM     11  C   UNL     1      29.820 -24.550 -13.319  0.00  0.00    +0.116 C 
ATOM     12  H   UNL     1      34.389 -22.270 -17.142  0.00  0.00    +0.160 HD
ATOM     13  H   UNL     1      33.316 -24.566 -12.081  0.00  0.00    +0.156 HD
ENDROOT
BRANCH   5  14
ATOM     14  C   UNL     1      35.210 -24.057 -12.629  0.00  0.00    +0.051 C 
ATOM     15  C   UNL     1      35.715 -23.036 -11.824  0.00  0.00    +0.015 C 
ATOM     16  C   UNL     1      36.082 -24.958 -13.241  0.00  0.00    +0.015 C 
ATOM     17  C   UNL     1      37.091 -22.914 -11.631  0.00  0.00    +0.001 C 
ATOM     18  C   UNL     1      37.458 -24.837 -13.048  0.00  0.00    +0.001 C 
ATOM     19  C   UNL     1      37.962 -23.815 -12.243  0.00  0.00    +0.000 C 
ENDBRANCH   5  14
BRANCH  10  21
ATOM     20  N   UNL     1      27.537 -23.737 -16.025  0.00  0.00    -0.195 NA
ATOM     21  C   UNL     1      28.502 -23.866 -15.392  0.00  0.00    +0.087 C 
ENDBRANCH  10  21
BRANCH   1  22
ATOM     22  C   UNL     1      32.697 -22.008 -18.348  0.00  0.00    +0.099 C 
BRANCH  22  23
ATOM     23  C   UNL     1      33.677 -21.467 -19.388  0.00  0.00    +0.020 C 
ATOM     24  C   UNL     1      33.138 -20.177 -20.021  0.00  0.00    +0.002 C 
ATOM     25  C   UNL     1      35.058 -21.233 -18.761  0.00  0.00    +0.002 C 
ATOM     26  C   UNL     1      34.124 -19.587 -21.026  0.00  0.00    +0.000 C 
ATOM     27  C   UNL     1      36.041 -20.641 -19.769  0.00  0.00    +0.000 C 
ATOM     28  C   UNL     1      35.498 -19.363 -20.403  0.00  0.00    +0.000 C 
ENDBRANCH  22  23
ENDBRANCH   1  22
TORSDOF 4
ENDMDL
MODEL 3
REMARK VINA RESULT:     -11.4      1.464      5.452
REMARK  Name = 24779675
REMARK  4 active torsions:
REMARK  status: ('A' for Active; 'I' for Inactive)
REMARK    1  A    between atoms: N_1  and  C_22
REMARK    2  A    between atoms: N_5  and  C_14
REMARK    3  A    between atoms: C_10  and  C_21
REMARK    4  A    between atoms: C_22  and  C_23
REMARK                            x       y       z     vdW  Elec       q    Type
REMARK                         _______ _______ _______ _____ _____    ______ ____
ROOT
ATOM      1  N   UNL     1      34.520 -21.762 -17.775  0.00  0.00    -0.259 N 
ATOM      2  N   UNL     1      35.682 -22.804 -16.089  0.00  0.00    -0.314 NA
ATOM      3  N   UNL     1      33.295 -22.752 -16.046  0.00  0.00    -0.295 NA
ATOM      4  N   UNL     1      34.435 -23.795 -14.358  0.00  0.00    -0.123 N 
ATOM      5  N   UNL     1      32.075 -23.763 -14.283  0.00  0.00    -0.274 N 
ATOM      6  N   UNL     1      34.526 -24.484 -13.206  0.00  0.00    -0.170 NA
ATOM      7  C   UNL     1      34.530 -22.453 -16.616  0.00  0.00    +0.203 C 
ATOM      8  C   UNL     1      35.638 -23.496 -14.927  0.00  0.00    +0.219 C 
ATOM      9  C   UNL     1      33.231 -23.415 -14.928  0.00  0.00    +0.279 C 
ATOM     10  C   UNL     1      36.587 -24.030 -14.085  0.00  0.00    +0.203 C 
ATOM     11  C   UNL     1      35.845 -24.626 -13.046  0.00  0.00    +0.116 C 
ATOM     12  H   UNL     1      33.652 -21.505 -18.159  0.00  0.00    +0.160 HD
ATOM     13  H   UNL     1      32.175 -24.267 -13.443  0.00  0.00    +0.156 HD
ENDROOT
BRANCH   5  14
ATOM     14  C   UNL     1      30.770 -23.479 -14.690  0.00  0.00    +0.051 C 
ATOM     15  C   UNL     1      29.992 -24.475 -15.282  0.00  0.00    +0.015 C 
ATOM     16  C   UNL     1      30.244 -22.201 -14.504  0.00  0.00    +0.015 C 
ATOM     17  C   UNL     1      28.688 -24.191 -15.690  0.00  0.00    +0.001 C 
ATOM     18  C   UNL     1      28.940 -21.918 -14.911  0.00  0.00    +0.001 C 
ATOM     19  C   UNL     1      28.162 -22.912 -15.504  0.00  0.00    +0.000 C 
ENDBRANCH   5  14
BRANCH  10  21
ATOM     20  N   UNL     1      39.149 -23.937 -14.387  0.00  0.00    -0.195 NA
ATOM     21  C   UNL     1      37.997 -23.978 -14.251  0.00  0.00    +0.087 C 
ENDBRANCH  10  21
BRANCH   1  22
ATOM     22  C   UNL     1      35.718 -21.382 -18.477  0.00  0.00    +0.099 C 
BRANCH  22  23
ATOM     23  C   UNL     1      35.349 -20.692 -19.788  0.00  0.00    +0.020 C 
ATOM     24  C   UNL     1      33.857 -20.334 -19.811  0.00  0.00    +0.002 C 
ATOM     25  C   UNL     1      36.213 -19.442 -20.005  0.00  0.00    +0.002 C 
ATOM     26  C   UNL     1      33.473 -19.594 -21.090  0.00  0.00    +0.000 C 
ATOM     27  C   UNL     1      35.825 -18.704 -21.285  0.00  0.00    +0.000 C 
ATOM     28  C   UNL     1      34.339 -18.358 -21.308  0.00  0.00    +0.000 C 
ENDBRANCH  22  23
ENDBRANCH   1  22
TORSDOF 4
ENDMDL
MODEL 4
REMARK VINA RESULT:     -11.2      1.443      5.387
REMARK  Name = 24779675
REMARK  4 active torsions:
REMARK  status: ('A' for Active; 'I' for Inactive)
REMARK    1  A    between atoms: N_1  and  C_22
REMARK    2  A    between atoms: N_5  and  C_14
REMARK    3  A    between atoms: C_10  and  C_21
REMARK    4  A    between atoms: C_22  and  C_23
REMARK                            x       y       z     vdW  Elec       q    Type
REMARK                         _______ _______ _______ _____ _____    ______ ____
ROOT
ATOM      1  N   UNL     1      33.751 -21.970 -18.303  0.00  0.00    -0.259 N 
ATOM      2  N   UNL     1      34.936 -22.724 -16.484  0.00  0.00    -0.314 NA
ATOM      3  N   UNL     1      32.548 -22.706 -16.437  0.00  0.00    -0.295 NA
ATOM      4  N   UNL     1      33.711 -23.462 -14.616  0.00  0.00    -0.123 N 
ATOM      5  N   UNL     1      31.351 -23.458 -14.534  0.00  0.00    -0.274 N 
ATOM      6  N   UNL     1      33.817 -23.966 -13.374  0.00  0.00    -0.170 NA
ATOM      7  C   UNL     1      33.776 -22.476 -17.052  0.00  0.00    +0.203 C 
ATOM      8  C   UNL     1      34.907 -23.232 -15.231  0.00  0.00    +0.219 C 
ATOM      9  C   UNL     1      32.499 -23.193 -15.231  0.00  0.00    +0.279 C 
ATOM     10  C   UNL     1      35.868 -23.617 -14.323  0.00  0.00    +0.203 C 
ATOM     11  C   UNL     1      35.139 -24.059 -13.200  0.00  0.00    +0.116 C 
ATOM     12  H   UNL     1      32.877 -21.789 -18.716  0.00  0.00    +0.160 HD
ATOM     13  H   UNL     1      31.462 -23.827 -13.628  0.00  0.00    +0.156 HD
ENDROOT
BRANCH   5  14
ATOM     14  C   UNL     1      30.040 -23.262 -14.972  0.00  0.00    +0.051 C 
ATOM     15  C   UNL     1      29.385 -24.266 -15.684  0.00  0.00    +0.015 C 
ATOM     16  C   UNL     1      29.386 -22.061 -14.697  0.00  0.00    +0.015 C 
ATOM     17  C   UNL     1      28.075 -24.070 -16.123  0.00  0.00    +0.001 C 
ATOM     18  C   UNL     1      28.076 -21.865 -15.135  0.00  0.00    +0.001 C 
ATOM     19  C   UNL     1      27.421 -22.869 -15.849  0.00  0.00    +0.000 C 
ENDBRANCH   5  14
BRANCH  10  21
ATOM     20  N   UNL     1      38.426 -23.525 -14.650  0.00  0.00    -0.195 NA
ATOM     21  C   UNL     1      37.276 -23.567 -14.502  0.00  0.00    +0.087 C 
ENDBRANCH  10  21
BRANCH   1  22
ATOM     22  C   UNL     1      34.940 -21.681 -19.060  0.00  0.00    +0.099 C 
BRANCH  22  23
ATOM     23  C   UNL     1      34.824 -20.294 -19.691  0.00  0.00    +0.020 C 
ATOM     24  C   UNL     1      36.163 -19.866 -20.307  0.00  0.00    +0.002 C 
ATOM     25  C   UNL     1      33.707 -20.268 -20.741  0.00  0.00    +0.002 C 
ATOM     26  C   UNL     1      36.060 -18.505 -20.991  0.00  0.00    +0.000 C 
ATOM     27  C   UNL     1      33.607 -18.906 -21.425  0.00  0.00    +0.000 C 
ATOM     28  C   UNL     1      34.942 -18.479 -22.028  0.00  0.00    +0.000 C 
ENDBRANCH  22  23
ENDBRANCH   1  22
TORSDOF 4
ENDMDL
MODEL 5
REMARK VINA RESULT:     -11.0      1.809      7.491
REMARK  Name = 24779675
REMARK  4 active torsions:
REMARK  status: ('A' for Active; 'I' for Inactive)
REMARK    1  A    between atoms: N_1  and  C_22
REMARK    2  A    between atoms: N_5  and  C_14
REMARK    3  A    between atoms: C_10  and  C_21
REMARK    4  A    between atoms: C_22  and  C_23
REMARK                            x       y       z     vdW  Elec       q    Type
REMARK                         _______ _______ _______ _____ _____    ______ ____
ROOT
ATOM      1  N   UNL     1      32.586 -22.716 -14.694  0.00  0.00    -0.259 N 
ATOM      2  N   UNL     1      34.703 -23.317 -14.032  0.00  0.00    -0.314 NA
ATOM      3  N   UNL     1      34.370 -22.207 -16.120  0.00  0.00    -0.295 NA
ATOM      4  N   UNL     1      36.486 -22.796 -15.476  0.00  0.00    -0.123 N 
ATOM      5  N   UNL     1      36.193 -21.699 -17.547  0.00  0.00    -0.274 N 
ATOM      6  N   UNL     1      37.818 -22.878 -15.635  0.00  0.00    -0.170 NA
ATOM      7  C   UNL     1      33.915 -22.761 -14.926  0.00  0.00    +0.203 C 
ATOM      8  C   UNL     1      36.027 -23.336 -14.310  0.00  0.00    +0.219 C 
ATOM      9  C   UNL     1      35.639 -22.216 -16.407  0.00  0.00    +0.279 C 
ATOM     10  C   UNL     1      37.144 -23.805 -13.657  0.00  0.00    +0.203 C 
ATOM     11  C   UNL     1      38.215 -23.496 -14.519  0.00  0.00    +0.116 C 
ATOM     12  H   UNL     1      32.008 -22.298 -15.371  0.00  0.00    +0.160 HD
ATOM     13  H   UNL     1      37.171 -21.775 -17.634  0.00  0.00    +0.156 HD
ENDROOT
BRANCH   5  14
ATOM     14  C   UNL     1      35.519 -21.077 -18.599  0.00  0.00    +0.051 C 
ATOM     15  C   UNL     1      36.203 -20.203 -19.445  0.00  0.00    +0.015 C 
ATOM     16  C   UNL     1      34.163 -21.328 -18.804  0.00  0.00    +0.015 C 
ATOM     17  C   UNL     1      35.530 -19.580 -20.496  0.00  0.00    +0.001 C 
ATOM     18  C   UNL     1      33.490 -20.705 -19.856  0.00  0.00    +0.001 C 
ATOM     19  C   UNL     1      34.173 -19.831 -20.701  0.00  0.00    +0.000 C 
ENDBRANCH   5  14
BRANCH  10  21
ATOM     20  N   UNL     1      37.212 -24.988 -11.364  0.00  0.00    -0.195 NA
ATOM     21  C   UNL     1      37.181 -24.456 -12.394  0.00  0.00    +0.087 C 
ENDBRANCH  10  21
BRANCH   1  22
ATOM     22  C   UNL     1      31.975 -23.250 -13.506  0.00  0.00    +0.099 C 
BRANCH  22  23
ATOM     23  C   UNL     1      30.473 -23.414 -13.730  0.00  0.00    +0.020 C 
ATOM     24  C   UNL     1      29.989 -22.489 -14.855  0.00  0.00    +0.002 C 
ATOM     25  C   UNL     1      30.127 -24.876 -14.039  0.00  0.00    +0.002 C 
ATOM     26  C   UNL     1      28.499 -22.672 -15.135  0.00  0.00    +0.000 C 
ATOM     27  C   UNL     1      28.636 -25.056 -14.320  0.00  0.00    +0.000 C 
ATOM     28  C   UNL     1      28.157 -24.128 -15.433  0.00  0.00    +0.000 C 
ENDBRANCH  22  23
ENDBRANCH   1  22
TORSDOF 4
ENDMDL
MODEL 6
REMARK VINA RESULT:     -10.5      1.222      6.422
REMARK  Name = 24779675
REMARK  4 active torsions:
REMARK  status: ('A' for Active; 'I' for Inactive)
REMARK    1  A    between atoms: N_1  and  C_22
REMARK    2  A    between atoms: N_5  and  C_14
REMARK    3  A    between atoms: C_10  and  C_21
REMARK    4  A    between atoms: C_22  and  C_23
REMARK                            x       y       z     vdW  Elec       q    Type
REMARK                         _______ _______ _______ _____ _____    ______ ____
ROOT
ATOM      1  N   UNL     1      34.966 -23.346 -15.114  0.00  0.00    -0.259 N 
ATOM      2  N   UNL     1      32.702 -23.563 -14.787  0.00  0.00    -0.314 NA
ATOM      3  N   UNL     1      33.531 -22.420 -16.714  0.00  0.00    -0.295 NA
ATOM      4  N   UNL     1      31.272 -22.627 -16.405  0.00  0.00    -0.123 N 
ATOM      5  N   UNL     1      32.057 -21.491 -18.321  0.00  0.00    -0.274 N 
ATOM      6  N   UNL     1      29.985 -22.442 -16.745  0.00  0.00    -0.170 NA
ATOM      7  C   UNL     1      33.699 -23.120 -15.521  0.00  0.00    +0.203 C 
ATOM      8  C   UNL     1      31.451 -23.313 -15.239  0.00  0.00    +0.219 C 
ATOM      9  C   UNL     1      32.337 -22.168 -17.165  0.00  0.00    +0.279 C 
ATOM     10  C   UNL     1      30.184 -23.598 -14.782  0.00  0.00    +0.203 C 
ATOM     11  C   UNL     1      29.324 -23.039 -15.748  0.00  0.00    +0.116 C 
ATOM     12  H   UNL     1      35.703 -23.009 -15.673  0.00  0.00    +0.160 HD
ATOM     13  H   UNL     1      31.105 -21.372 -18.542  0.00  0.00    +0.156 HD
ENDROOT
BRANCH   5  14
ATOM     14  C   UNL     1      32.979 -20.952 -19.221  0.00  0.00    +0.051 C 
ATOM     15  C   UNL     1      34.333 -21.265 -19.103  0.00  0.00    +0.015 C 
ATOM     16  C   UNL     1      32.545 -20.101 -20.237  0.00  0.00    +0.015 C 
ATOM     17  C   UNL     1      35.255 -20.726 -20.000  0.00  0.00    +0.001 C 
ATOM     18  C   UNL     1      33.467 -19.562 -21.135  0.00  0.00    +0.001 C 
ATOM     19  C   UNL     1      34.822 -19.874 -21.017  0.00  0.00    +0.000 C 
ENDBRANCH   5  14
BRANCH  10  21
ATOM     20  N   UNL     1      29.572 -24.875 -12.624  0.00  0.00    -0.195 NA
ATOM     21  C   UNL     1      29.847 -24.301 -13.595  0.00  0.00    +0.087 C 
ENDBRANCH  10  21
BRANCH   1  22
ATOM     22  C   UNL     1      35.291 -24.054 -13.904  0.00  0.00    +0.099 C 
BRANCH  22  23
ATOM     23  C   UNL     1      36.807 -24.092 -13.723  0.00  0.00    +0.020 C 
ATOM     24  C   UNL     1      37.261 -25.481 -13.254  0.00  0.00    +0.002 C 
ATOM     25  C   UNL     1      37.519 -23.694 -15.022  0.00  0.00    +0.002 C 
ATOM     26  C   UNL     1      38.780 -25.561 -13.115  0.00  0.00    +0.000 C 
ATOM     27  C   UNL     1      39.038 -23.777 -14.881  0.00  0.00    +0.000 C 
ATOM     28  C   UNL     1      39.485 -25.157 -14.406  0.00  0.00    +0.000 C 
ENDBRANCH  22  23
ENDBRANCH   1  22
TORSDOF 4
ENDMDL
MODEL 7
REMARK VINA RESULT:     -10.2      1.590      7.080
REMARK  Name = 24779675
REMARK  4 active torsions:
REMARK  status: ('A' for Active; 'I' for Inactive)
REMARK    1  A    between atoms: N_1  and  C_22
REMARK    2  A    between atoms: N_5  and  C_14
REMARK    3  A    between atoms: C_10  and  C_21
REMARK    4  A    between atoms: C_22  and  C_23
REMARK                            x       y       z     vdW  Elec       q    Type
REMARK                         _______ _______ _______ _____ _____    ______ ____
ROOT
ATOM      1  N   UNL     1      35.229 -23.075 -15.437  0.00  0.00    -0.259 N 
ATOM      2  N   UNL     1      34.892 -21.910 -17.389  0.00  0.00    -0.314 NA
ATOM      3  N   UNL     1      33.036 -22.858 -16.221  0.00  0.00    -0.295 NA
ATOM      4  N   UNL     1      32.680 -21.700 -18.164  0.00  0.00    -0.123 N 
ATOM      5  N   UNL     1      30.822 -22.625 -17.036  0.00  0.00    -0.274 N 
ATOM      6  N   UNL     1      31.912 -21.189 -19.142  0.00  0.00    -0.170 NA
ATOM      7  C   UNL     1      34.394 -22.593 -16.381  0.00  0.00    +0.203 C 
ATOM      8  C   UNL     1      34.013 -21.447 -18.308  0.00  0.00    +0.219 C 
ATOM      9  C   UNL     1      32.175 -22.424 -17.095  0.00  0.00    +0.279 C 
ATOM     10  C   UNL     1      34.125 -20.714 -19.467  0.00  0.00    +0.203 C 
ATOM     11  C   UNL     1      32.802 -20.586 -19.936  0.00  0.00    +0.116 C 
ATOM     12  H   UNL     1      34.844 -23.584 -14.689  0.00  0.00    +0.160 HD
ATOM     13  H   UNL     1      30.288 -22.238 -17.767  0.00  0.00    +0.156 HD
ENDROOT
BRANCH   5  14
ATOM     14  C   UNL     1      30.120 -23.320 -16.049  0.00  0.00    +0.051 C 
ATOM     15  C   UNL     1      28.736 -23.460 -16.147  0.00  0.00    +0.015 C 
ATOM     16  C   UNL     1      30.803 -23.874 -14.967  0.00  0.00    +0.015 C 
ATOM     17  C   UNL     1      28.034 -24.154 -15.161  0.00  0.00    +0.001 C 
ATOM     18  C   UNL     1      30.101 -24.568 -13.981  0.00  0.00    +0.001 C 
ATOM     19  C   UNL     1      28.717 -24.707 -14.078  0.00  0.00    +0.000 C 
ENDBRANCH   5  14
BRANCH  10  21
ATOM     20  N   UNL     1      36.301 -19.799 -20.512  0.00  0.00    -0.195 NA
ATOM     21  C   UNL     1      35.322 -20.211 -20.043  0.00  0.00    +0.087 C 
ENDBRANCH  10  21
BRANCH   1  22
ATOM     22  C   UNL     1      36.655 -22.880 -15.472  0.00  0.00    +0.099 C 
BRANCH  22  23
ATOM     23  C   UNL     1      37.323 -23.790 -14.443  0.00  0.00    +0.020 C 
ATOM     24  C   UNL     1      37.134 -23.236 -13.025  0.00  0.00    +0.002 C 
ATOM     25  C   UNL     1      36.777 -25.220 -14.549  0.00  0.00    +0.002 C 
ATOM     26  C   UNL     1      37.748 -24.156 -11.973  0.00  0.00    +0.000 C 
ATOM     27  C   UNL     1      37.392 -26.137 -13.494  0.00  0.00    +0.000 C 
ATOM     28  C   UNL     1      37.209 -25.579 -12.085  0.00  0.00    +0.000 C 
ENDBRANCH  22  23
ENDBRANCH   1  22
TORSDOF 4
ENDMDL
