MODEL 1
REMARK VINA RESULT:     -11.2      0.000      0.000
REMARK  Name = 448137
REMARK  6 active torsions:
REMARK  status: ('A' for Active; 'I' for Inactive)
REMARK    1  A    between atoms: C_1  and  O_15
REMARK    2  A    between atoms: C_4  and  N_9
REMARK    3  A    between atoms: O_15  and  C_16
REMARK    4  A    between atoms: C_16  and  C_17
REMARK    5  A    between atoms: C_17  and  C_18
REMARK    6  A    between atoms: C_18  and  C_21
REMARK                            x       y       z     vdW  Elec       q    Type
REMARK                         _______ _______ _______ _____ _____    ______ ____
ROOT
ATOM      1  C   UNL     1      33.832 -14.394 -22.623  0.00  0.00    +0.131 C 
ATOM      2  C   UNL     1      34.099 -15.493 -23.440  0.00  0.00    +0.013 C 
ATOM      3  C   UNL     1      33.958 -14.507 -21.238  0.00  0.00    +0.013 C 
ATOM      4  C   UNL     1      34.615 -16.820 -21.488  0.00  0.00    +0.093 C 
ATOM      5  C   UNL     1      34.490 -16.706 -22.873  0.00  0.00    +0.017 C 
ATOM      6  C   UNL     1      34.349 -15.721 -20.671  0.00  0.00    +0.017 C 
ATOM      7  C   UNL     1      33.969 -15.390 -24.924  0.00  0.00    +0.034 C 
ATOM      8  C   UNL     1      33.678 -13.343 -20.347  0.00  0.00    +0.034 C 
ENDROOT
BRANCH   4   9
ATOM      9  N   UNL     1      35.002 -18.022 -20.925  0.00  0.00    -0.093 N 
ATOM     10  N   UNL     1      34.136 -19.028 -20.717  0.00  0.00    -0.106 NA
ATOM     11  N   UNL     1      36.270 -18.260 -20.550  0.00  0.00    -0.014 NA
ATOM     12  N   UNL     1      36.253 -19.494 -20.063  0.00  0.00    -0.090 NA
ATOM     13  C   UNL     1      34.964 -19.925 -20.177  0.00  0.00    +0.052 C 
ATOM     14  C   UNL     1      34.524 -21.254 -19.746  0.00  0.00    +0.118 C 
ENDBRANCH   4   9
BRANCH   1  15
ATOM     15  O   UNL     1      33.451 -13.207 -23.177  0.00  0.00    -0.476 OA
BRANCH  15  16
ATOM     16  C   UNL     1      32.094 -12.813 -22.992  0.00  0.00    +0.206 C 
BRANCH  16  17
ATOM     17  C   UNL     1      32.052 -11.321 -22.693  0.00  0.00    +0.055 C 
BRANCH  17  18
ATOM     18  C   UNL     1      30.962 -10.983 -21.675  0.00  0.00    +0.071 C 
BRANCH  18  21
ATOM     19  O   UNL     1      31.405  -9.869 -19.591  0.00  0.00    -0.358 OA
ATOM     20  N   UNL     1      31.700  -8.624 -19.049  0.00  0.00    -0.082 NA
ATOM     21  C   UNL     1      31.285  -9.719 -20.918  0.00  0.00    +0.154 C 
ATOM     22  C   UNL     1      31.480  -8.450 -21.310  0.00  0.00    +0.054 C 
ATOM     23  C   UNL     1      31.739  -7.793 -20.095  0.00  0.00    +0.101 C 
ATOM     24  C   UNL     1      32.032  -6.365 -19.886  0.00  0.00    +0.056 C 
ENDBRANCH  18  21
ENDBRANCH  17  18
ENDBRANCH  16  17
ENDBRANCH  15  16
ENDBRANCH   1  15
TORSDOF 6
ENDMDL
MODEL 2
REMARK VINA RESULT:     -11.2      0.022      1.754
REMARK  Name = 448137
REMARK  6 active torsions:
REMARK  status: ('A' for Active; 'I' for Inactive)
REMARK    1  A    between atoms: C_1  and  O_15
REMARK    2  A    between atoms: C_4  and  N_9
REMARK    3  A    between atoms: O_15  and  C_16
REMARK    4  A    between atoms: C_16  and  C_17
REMARK    5  A    between atoms: C_17  and  C_18
REMARK    6  A    between atoms: C_18  and  C_21
REMARK                            x       y       z     vdW  Elec       q    Type
REMARK                         _______ _______ _______ _____ _____    ______ ____
ROOT
ATOM      1  C   UNL     1      33.838 -14.402 -22.630  0.00  0.00    +0.131 C 
ATOM      2  C   UNL     1      33.971 -14.510 -21.245  0.00  0.00    +0.013 C 
ATOM      3  C   UNL     1      34.099 -15.504 -23.444  0.00  0.00    +0.013 C 
ATOM      4  C   UNL     1      34.627 -16.822 -21.489  0.00  0.00    +0.093 C 
ATOM      5  C   UNL     1      34.366 -15.720 -20.675  0.00  0.00    +0.017 C 
ATOM      6  C   UNL     1      34.494 -16.714 -22.873  0.00  0.00    +0.017 C 
ATOM      7  C   UNL     1      33.697 -13.341 -20.358  0.00  0.00    +0.034 C 
ATOM      8  C   UNL     1      33.962 -15.408 -24.928  0.00  0.00    +0.034 C 
ENDROOT
BRANCH   4   9
ATOM      9  N   UNL     1      35.019 -18.022 -20.924  0.00  0.00    -0.093 N 
ATOM     10  N   UNL     1      34.159 -19.034 -20.721  0.00  0.00    -0.106 NA
ATOM     11  N   UNL     1      36.287 -18.251 -20.543  0.00  0.00    -0.014 NA
ATOM     12  N   UNL     1      36.276 -19.486 -20.057  0.00  0.00    -0.090 NA
ATOM     13  C   UNL     1      34.991 -19.926 -20.177  0.00  0.00    +0.052 C 
ATOM     14  C   UNL     1      34.558 -21.258 -19.749  0.00  0.00    +0.118 C 
ENDBRANCH   4   9
BRANCH   1  15
ATOM     15  O   UNL     1      33.452 -13.219 -23.188  0.00  0.00    -0.476 OA
BRANCH  15  16
ATOM     16  C   UNL     1      32.093 -12.830 -23.003  0.00  0.00    +0.206 C 
BRANCH  16  17
ATOM     17  C   UNL     1      32.044 -11.337 -22.708  0.00  0.00    +0.055 C 
BRANCH  17  18
ATOM     18  C   UNL     1      30.964 -11.003 -21.678  0.00  0.00    +0.071 C 
BRANCH  18  21
ATOM     19  O   UNL     1      31.396  -9.879 -19.598  0.00  0.00    -0.358 OA
ATOM     20  N   UNL     1      31.695  -8.632 -19.061  0.00  0.00    -0.082 NA
ATOM     21  C   UNL     1      31.290  -9.737 -20.926  0.00  0.00    +0.154 C 
ATOM     22  C   UNL     1      31.498  -8.472 -21.324  0.00  0.00    +0.054 C 
ATOM     23  C   UNL     1      31.751  -7.809 -20.111  0.00  0.00    +0.101 C 
ATOM     24  C   UNL     1      32.053  -6.382 -19.909  0.00  0.00    +0.056 C 
ENDBRANCH  18  21
ENDBRANCH  17  18
ENDBRANCH  16  17
ENDBRANCH  15  16
ENDBRANCH   1  15
TORSDOF 6
ENDMDL
MODEL 3
REMARK VINA RESULT:     -11.0      7.086     12.271
REMARK  Name = 448137
REMARK  6 active torsions:
REMARK  status: ('A' for Active; 'I' for Inactive)
REMARK    1  A    between atoms: C_1  and  O_15
REMARK    2  A    between atoms: C_4  and  N_9
REMARK    3  A    between atoms: O_15  and  C_16
REMARK    4  A    between atoms: C_16  and  C_17
REMARK    5  A    between atoms: C_17  and  C_18
REMARK    6  A    between atoms: C_18  and  C_21
REMARK                            x       y       z     vdW  Elec       q    Type
REMARK                         _______ _______ _______ _____ _____    ______ ____
ROOT
ATOM      1  C   UNL     1      34.790 -22.175 -17.201  0.00  0.00    +0.131 C 
ATOM      2  C   UNL     1      35.989 -21.525 -17.497  0.00  0.00    +0.013 C 
ATOM      3  C   UNL     1      33.677 -21.993 -18.023  0.00  0.00    +0.013 C 
ATOM      4  C   UNL     1      34.964 -20.512 -19.435  0.00  0.00    +0.093 C 
ATOM      5  C   UNL     1      36.076 -20.694 -18.614  0.00  0.00    +0.017 C 
ATOM      6  C   UNL     1      33.764 -21.161 -19.140  0.00  0.00    +0.017 C 
ATOM      7  C   UNL     1      37.190 -21.708 -16.628  0.00  0.00    +0.034 C 
ATOM      8  C   UNL     1      32.385 -22.679 -17.724  0.00  0.00    +0.034 C 
ENDROOT
BRANCH   4   9
ATOM      9  N   UNL     1      35.049 -19.687 -20.542  0.00  0.00    -0.093 N 
ATOM     10  N   UNL     1      34.081 -19.634 -21.473  0.00  0.00    -0.106 NA
ATOM     11  N   UNL     1      36.105 -18.886 -20.756  0.00  0.00    -0.014 NA
ATOM     12  N   UNL     1      35.831 -18.261 -21.894  0.00  0.00    -0.090 NA
ATOM     13  C   UNL     1      34.616 -18.730 -22.297  0.00  0.00    +0.052 C 
ATOM     14  C   UNL     1      33.952 -18.282 -23.524  0.00  0.00    +0.118 C 
ENDBRANCH   4   9
BRANCH   1  15
ATOM     15  O   UNL     1      34.705 -22.988 -16.110  0.00  0.00    -0.476 OA
BRANCH  15  16
ATOM     16  C   UNL     1      34.410 -22.367 -14.861  0.00  0.00    +0.206 C 
BRANCH  16  17
ATOM     17  C   UNL     1      34.948 -23.242 -13.738  0.00  0.00    +0.055 C 
BRANCH  17  18
ATOM     18  C   UNL     1      35.054 -24.706 -14.168  0.00  0.00    +0.071 C 
BRANCH  18  21
ATOM     19  O   UNL     1      36.653 -26.497 -14.292  0.00  0.00    -0.358 OA
ATOM     20  N   UNL     1      38.019 -26.754 -14.310  0.00  0.00    -0.082 NA
ATOM     21  C   UNL     1      36.489 -25.170 -14.201  0.00  0.00    +0.154 C 
ATOM     22  C   UNL     1      37.658 -24.511 -14.155  0.00  0.00    +0.054 C 
ATOM     23  C   UNL     1      38.598 -25.553 -14.227  0.00  0.00    +0.101 C 
ATOM     24  C   UNL     1      40.066 -25.447 -14.221  0.00  0.00    +0.056 C 
ENDBRANCH  18  21
ENDBRANCH  17  18
ENDBRANCH  16  17
ENDBRANCH  15  16
ENDBRANCH   1  15
TORSDOF 6
ENDMDL
MODEL 4
REMARK VINA RESULT:     -11.0      7.095     12.237
REMARK  Name = 448137
REMARK  6 active torsions:
REMARK  status: ('A' for Active; 'I' for Inactive)
REMARK    1  A    between atoms: C_1  and  O_15
REMARK    2  A    between atoms: C_4  and  N_9
REMARK    3  A    between atoms: O_15  and  C_16
REMARK    4  A    between atoms: C_16  and  C_17
REMARK    5  A    between atoms: C_17  and  C_18
REMARK    6  A    between atoms: C_18  and  C_21
REMARK                            x       y       z     vdW  Elec       q    Type
REMARK                         _______ _______ _______ _____ _____    ______ ____
ROOT
ATOM      1  C   UNL     1      34.785 -22.170 -17.185  0.00  0.00    +0.131 C 
ATOM      2  C   UNL     1      33.672 -21.990 -18.006  0.00  0.00    +0.013 C 
ATOM      3  C   UNL     1      35.984 -21.522 -17.483  0.00  0.00    +0.013 C 
ATOM      4  C   UNL     1      34.955 -20.513 -19.423  0.00  0.00    +0.093 C 
ATOM      5  C   UNL     1      33.757 -21.162 -19.125  0.00  0.00    +0.017 C 
ATOM      6  C   UNL     1      36.069 -20.694 -18.602  0.00  0.00    +0.017 C 
ATOM      7  C   UNL     1      32.380 -22.676 -17.703  0.00  0.00    +0.034 C 
ATOM      8  C   UNL     1      37.186 -21.702 -16.616  0.00  0.00    +0.034 C 
ENDROOT
BRANCH   4   9
ATOM      9  N   UNL     1      35.040 -19.693 -20.533  0.00  0.00    -0.093 N 
ATOM     10  N   UNL     1      34.075 -19.645 -21.466  0.00  0.00    -0.106 NA
ATOM     11  N   UNL     1      36.096 -18.890 -20.747  0.00  0.00    -0.014 NA
ATOM     12  N   UNL     1      35.824 -18.270 -21.889  0.00  0.00    -0.090 NA
ATOM     13  C   UNL     1      34.610 -18.743 -22.292  0.00  0.00    +0.052 C 
ATOM     14  C   UNL     1      33.948 -18.302 -23.522  0.00  0.00    +0.118 C 
ENDBRANCH   4   9
BRANCH   1  15
ATOM     15  O   UNL     1      34.702 -22.979 -16.090  0.00  0.00    -0.476 OA
BRANCH  15  16
ATOM     16  C   UNL     1      34.384 -22.356 -14.848  0.00  0.00    +0.206 C 
BRANCH  16  17
ATOM     17  C   UNL     1      35.021 -23.155 -13.720  0.00  0.00    +0.055 C 
BRANCH  17  18
ATOM     18  C   UNL     1      35.094 -24.645 -14.058  0.00  0.00    +0.071 C 
BRANCH  18  21
ATOM     19  O   UNL     1      36.668 -26.450 -14.260  0.00  0.00    -0.358 OA
ATOM     20  N   UNL     1      38.030 -26.723 -14.322  0.00  0.00    -0.082 NA
ATOM     21  C   UNL     1      36.522 -25.123 -14.141  0.00  0.00    +0.154 C 
ATOM     22  C   UNL     1      37.699 -24.478 -14.118  0.00  0.00    +0.054 C 
ATOM     23  C   UNL     1      38.625 -25.530 -14.236  0.00  0.00    +0.101 C 
ATOM     24  C   UNL     1      40.094 -25.439 -14.270  0.00  0.00    +0.056 C 
ENDBRANCH  18  21
ENDBRANCH  17  18
ENDBRANCH  16  17
ENDBRANCH  15  16
ENDBRANCH   1  15
TORSDOF 6
ENDMDL
MODEL 5
REMARK VINA RESULT:     -11.0      2.417      8.882
REMARK  Name = 448137
REMARK  6 active torsions:
REMARK  status: ('A' for Active; 'I' for Inactive)
REMARK    1  A    between atoms: C_1  and  O_15
REMARK    2  A    between atoms: C_4  and  N_9
REMARK    3  A    between atoms: O_15  and  C_16
REMARK    4  A    between atoms: C_16  and  C_17
REMARK    5  A    between atoms: C_17  and  C_18
REMARK    6  A    between atoms: C_18  and  C_21
REMARK                            x       y       z     vdW  Elec       q    Type
REMARK                         _______ _______ _______ _____ _____    ______ ____
ROOT
ATOM      1  C   UNL     1      33.766 -14.791 -22.883  0.00  0.00    +0.131 C 
ATOM      2  C   UNL     1      33.596 -14.344 -21.572  0.00  0.00    +0.013 C 
ATOM      3  C   UNL     1      33.260 -14.042 -23.946  0.00  0.00    +0.013 C 
ATOM      4  C   UNL     1      32.413 -12.402 -22.385  0.00  0.00    +0.093 C 
ATOM      5  C   UNL     1      32.920 -13.151 -21.323  0.00  0.00    +0.017 C 
ATOM      6  C   UNL     1      32.583 -12.848 -23.697  0.00  0.00    +0.017 C 
ATOM      7  C   UNL     1      34.132 -15.133 -20.422  0.00  0.00    +0.034 C 
ATOM      8  C   UNL     1      33.431 -14.502 -25.356  0.00  0.00    +0.034 C 
ENDROOT
BRANCH   4   9
ATOM      9  N   UNL     1      31.741 -11.219 -22.140  0.00  0.00    -0.093 N 
ATOM     10  N   UNL     1      31.893 -10.133 -22.917  0.00  0.00    -0.106 NA
ATOM     11  N   UNL     1      30.893 -11.081 -21.107  0.00  0.00    -0.014 NA
ATOM     12  N   UNL     1      30.451  -9.832 -21.196  0.00  0.00    -0.090 NA
ATOM     13  C   UNL     1      31.067  -9.293 -22.287  0.00  0.00    +0.052 C 
ATOM     14  C   UNL     1      30.845  -7.915 -22.732  0.00  0.00    +0.118 C 
ENDBRANCH   4   9
BRANCH   1  15
ATOM     15  O   UNL     1      34.429 -15.958 -23.127  0.00  0.00    -0.476 OA
BRANCH  15  16
ATOM     16  C   UNL     1      33.671 -17.027 -23.689  0.00  0.00    +0.206 C 
BRANCH  16  17
ATOM     17  C   UNL     1      34.214 -18.346 -23.158  0.00  0.00    +0.055 C 
BRANCH  17  18
ATOM     18  C   UNL     1      35.149 -18.130 -21.968  0.00  0.00    +0.071 C 
BRANCH  18  21
ATOM     19  O   UNL     1      36.046 -19.451 -20.170  0.00  0.00    -0.358 OA
ATOM     20  N   UNL     1      35.709 -20.447 -19.261  0.00  0.00    -0.082 NA
ATOM     21  C   UNL     1      34.962 -19.196 -20.917  0.00  0.00    +0.154 C 
ATOM     22  C   UNL     1      33.912 -19.958 -20.573  0.00  0.00    +0.054 C 
ATOM     23  C   UNL     1      34.430 -20.733 -19.521  0.00  0.00    +0.101 C 
ATOM     24  C   UNL     1      33.735 -21.764 -18.733  0.00  0.00    +0.056 C 
ENDBRANCH  18  21
ENDBRANCH  17  18
ENDBRANCH  16  17
ENDBRANCH  15  16
ENDBRANCH   1  15
TORSDOF 6
ENDMDL
MODEL 6
REMARK VINA RESULT:     -11.0      2.412      8.710
REMARK  Name = 448137
REMARK  6 active torsions:
REMARK  status: ('A' for Active; 'I' for Inactive)
REMARK    1  A    between atoms: C_1  and  O_15
REMARK    2  A    between atoms: C_4  and  N_9
REMARK    3  A    between atoms: O_15  and  C_16
REMARK    4  A    between atoms: C_16  and  C_17
REMARK    5  A    between atoms: C_17  and  C_18
REMARK    6  A    between atoms: C_18  and  C_21
REMARK                            x       y       z     vdW  Elec       q    Type
REMARK                         _______ _______ _______ _____ _____    ______ ____
ROOT
ATOM      1  C   UNL     1      33.752 -14.821 -22.979  0.00  0.00    +0.131 C 
ATOM      2  C   UNL     1      33.234 -14.044 -24.016  0.00  0.00    +0.013 C 
ATOM      3  C   UNL     1      33.603 -14.406 -21.656  0.00  0.00    +0.013 C 
ATOM      4  C   UNL     1      32.421 -12.437 -22.407  0.00  0.00    +0.093 C 
ATOM      5  C   UNL     1      32.569 -12.852 -23.730  0.00  0.00    +0.017 C 
ATOM      6  C   UNL     1      32.938 -13.213 -21.370  0.00  0.00    +0.017 C 
ATOM      7  C   UNL     1      33.384 -14.473 -25.439  0.00  0.00    +0.034 C 
ATOM      8  C   UNL     1      34.149 -15.224 -20.532  0.00  0.00    +0.034 C 
ENDROOT
BRANCH   4   9
ATOM      9  N   UNL     1      31.762 -11.254 -22.123  0.00  0.00    -0.093 N 
ATOM     10  N   UNL     1      31.909 -10.153 -22.878  0.00  0.00    -0.106 NA
ATOM     11  N   UNL     1      30.934 -11.134 -21.072  0.00  0.00    -0.014 NA
ATOM     12  N   UNL     1      30.500  -9.880 -21.125  0.00  0.00    -0.090 NA
ATOM     13  C   UNL     1      31.101  -9.321 -22.214  0.00  0.00    +0.052 C 
ATOM     14  C   UNL     1      30.882  -7.932 -22.624  0.00  0.00    +0.118 C 
ENDBRANCH   4   9
BRANCH   1  15
ATOM     15  O   UNL     1      34.401 -15.988 -23.259  0.00  0.00    -0.476 OA
BRANCH  15  16
ATOM     16  C   UNL     1      33.613 -17.061 -23.767  0.00  0.00    +0.206 C 
BRANCH  16  17
ATOM     17  C   UNL     1      34.157 -18.373 -23.219  0.00  0.00    +0.055 C 
BRANCH  17  18
ATOM     18  C   UNL     1      35.114 -18.139 -22.049  0.00  0.00    +0.071 C 
BRANCH  18  21
ATOM     19  O   UNL     1      36.035 -19.423 -20.238  0.00  0.00    -0.358 OA
ATOM     20  N   UNL     1      35.712 -20.403 -19.307  0.00  0.00    -0.082 NA
ATOM     21  C   UNL     1      34.942 -19.185 -20.977  0.00  0.00    +0.154 C 
ATOM     22  C   UNL     1      33.898 -19.943 -20.606  0.00  0.00    +0.054 C 
ATOM     23  C   UNL     1      34.431 -20.697 -19.546  0.00  0.00    +0.101 C 
ATOM     24  C   UNL     1      33.748 -21.715 -18.730  0.00  0.00    +0.056 C 
ENDBRANCH  18  21
ENDBRANCH  17  18
ENDBRANCH  16  17
ENDBRANCH  15  16
ENDBRANCH   1  15
TORSDOF 6
ENDMDL
MODEL 7
REMARK VINA RESULT:     -10.9      2.084      9.325
REMARK  Name = 448137
REMARK  6 active torsions:
REMARK  status: ('A' for Active; 'I' for Inactive)
REMARK    1  A    between atoms: C_1  and  O_15
REMARK    2  A    between atoms: C_4  and  N_9
REMARK    3  A    between atoms: O_15  and  C_16
REMARK    4  A    between atoms: C_16  and  C_17
REMARK    5  A    between atoms: C_17  and  C_18
REMARK    6  A    between atoms: C_18  and  C_21
REMARK                            x       y       z     vdW  Elec       q    Type
REMARK                         _______ _______ _______ _____ _____    ______ ____
ROOT
ATOM      1  C   UNL     1      32.515 -13.042 -22.624  0.00  0.00    +0.131 C 
ATOM      2  C   UNL     1      32.104 -12.633 -21.355  0.00  0.00    +0.013 C 
ATOM      3  C   UNL     1      32.589 -12.116 -23.665  0.00  0.00    +0.013 C 
ATOM      4  C   UNL     1      31.840 -10.373 -22.167  0.00  0.00    +0.093 C 
ATOM      5  C   UNL     1      31.767 -11.299 -21.127  0.00  0.00    +0.017 C 
ATOM      6  C   UNL     1      32.251 -10.782 -23.436  0.00  0.00    +0.017 C 
ATOM      7  C   UNL     1      32.019 -13.610 -20.229  0.00  0.00    +0.034 C 
ATOM      8  C   UNL     1      33.027 -12.534 -25.030  0.00  0.00    +0.034 C 
ENDROOT
BRANCH   4   9
ATOM      9  N   UNL     1      31.505  -9.051 -21.942  0.00  0.00    -0.093 N 
ATOM     10  N   UNL     1      31.114  -8.232 -22.933  0.00  0.00    -0.106 NA
ATOM     11  N   UNL     1      31.548  -8.502 -20.716  0.00  0.00    -0.014 NA
ATOM     12  N   UNL     1      31.165  -7.244 -20.895  0.00  0.00    -0.090 NA
ATOM     13  C   UNL     1      30.914  -7.114 -22.229  0.00  0.00    +0.052 C 
ATOM     14  C   UNL     1      30.463  -5.861 -22.840  0.00  0.00    +0.118 C 
ENDBRANCH   4   9
BRANCH   1  15
ATOM     15  O   UNL     1      32.846 -14.346 -22.847  0.00  0.00    -0.476 OA
BRANCH  15  16
ATOM     16  C   UNL     1      34.236 -14.661 -22.897  0.00  0.00    +0.206 C 
BRANCH  16  17
ATOM     17  C   UNL     1      34.529 -15.752 -21.877  0.00  0.00    +0.055 C 
BRANCH  17  18
ATOM     18  C   UNL     1      34.596 -17.132 -22.533  0.00  0.00    +0.071 C 
BRANCH  18  21
ATOM     19  O   UNL     1      36.137 -17.897 -20.854  0.00  0.00    -0.358 OA
ATOM     20  N   UNL     1      36.398 -18.965 -20.004  0.00  0.00    -0.082 NA
ATOM     21  C   UNL     1      35.030 -18.191 -21.551  0.00  0.00    +0.154 C 
ATOM     22  C   UNL     1      34.525 -19.391 -21.227  0.00  0.00    +0.054 C 
ATOM     23  C   UNL     1      35.422 -19.845 -20.245  0.00  0.00    +0.101 C 
ATOM     24  C   UNL     1      35.385 -21.118 -19.507  0.00  0.00    +0.056 C 
ENDBRANCH  18  21
ENDBRANCH  17  18
ENDBRANCH  16  17
ENDBRANCH  15  16
ENDBRANCH   1  15
TORSDOF 6
ENDMDL
MODEL 8
REMARK VINA RESULT:     -10.8      5.491      9.372
REMARK  Name = 448137
REMARK  6 active torsions:
REMARK  status: ('A' for Active; 'I' for Inactive)
REMARK    1  A    between atoms: C_1  and  O_15
REMARK    2  A    between atoms: C_4  and  N_9
REMARK    3  A    between atoms: O_15  and  C_16
REMARK    4  A    between atoms: C_16  and  C_17
REMARK    5  A    between atoms: C_17  and  C_18
REMARK    6  A    between atoms: C_18  and  C_21
REMARK                            x       y       z     vdW  Elec       q    Type
REMARK                         _______ _______ _______ _____ _____    ______ ____
ROOT
ATOM      1  C   UNL     1      33.999 -22.211 -17.446  0.00  0.00    +0.131 C 
ATOM      2  C   UNL     1      35.335 -21.843 -17.276  0.00  0.00    +0.013 C 
ATOM      3  C   UNL     1      33.278 -22.733 -16.372  0.00  0.00    +0.013 C 
ATOM      4  C   UNL     1      35.228 -22.519 -14.960  0.00  0.00    +0.093 C 
ATOM      5  C   UNL     1      35.949 -21.998 -16.034  0.00  0.00    +0.017 C 
ATOM      6  C   UNL     1      33.893 -22.888 -15.129  0.00  0.00    +0.017 C 
ATOM      7  C   UNL     1      36.123 -21.283 -18.415  0.00  0.00    +0.034 C 
ATOM      8  C   UNL     1      31.848 -23.132 -16.533  0.00  0.00    +0.034 C 
ENDROOT
BRANCH   4   9
ATOM      9  N   UNL     1      35.836 -22.674 -13.728  0.00  0.00    -0.093 N 
ATOM     10  N   UNL     1      35.154 -23.053 -12.634  0.00  0.00    -0.106 NA
ATOM     11  N   UNL     1      37.150 -22.456 -13.548  0.00  0.00    -0.014 NA
ATOM     12  N   UNL     1      37.360 -22.701 -12.260  0.00  0.00    -0.090 NA
ATOM     13  C   UNL     1      36.149 -23.055 -11.743  0.00  0.00    +0.052 C 
ATOM     14  C   UNL     1      35.953 -23.407 -10.334  0.00  0.00    +0.118 C 
ENDBRANCH   4   9
BRANCH   1  15
ATOM     15  O   UNL     1      33.399 -22.059 -18.661  0.00  0.00    -0.476 OA
BRANCH  15  16
ATOM     16  C   UNL     1      32.537 -20.934 -18.820  0.00  0.00    +0.206 C 
BRANCH  16  17
ATOM     17  C   UNL     1      32.757 -20.339 -20.204  0.00  0.00    +0.055 C 
BRANCH  17  18
ATOM     18  C   UNL     1      34.216 -19.931 -20.415  0.00  0.00    +0.071 C 
BRANCH  18  21
ATOM     19  O   UNL     1      34.824 -17.630 -20.749  0.00  0.00    -0.358 OA
ATOM     20  N   UNL     1      34.861 -16.629 -21.713  0.00  0.00    -0.082 NA
ATOM     21  C   UNL     1      34.329 -18.734 -21.325  0.00  0.00    +0.154 C 
ATOM     22  C   UNL     1      34.027 -18.545 -22.619  0.00  0.00    +0.054 C 
ATOM     23  C   UNL     1      34.381 -17.199 -22.821  0.00  0.00    +0.101 C 
ATOM     24  C   UNL     1      34.276 -16.415 -24.062  0.00  0.00    +0.056 C 
ENDBRANCH  18  21
ENDBRANCH  17  18
ENDBRANCH  16  17
ENDBRANCH  15  16
ENDBRANCH   1  15
TORSDOF 6
ENDMDL
MODEL 9
REMARK VINA RESULT:     -10.6      7.112     11.287
REMARK  Name = 448137
REMARK  6 active torsions:
REMARK  status: ('A' for Active; 'I' for Inactive)
REMARK    1  A    between atoms: C_1  and  O_15
REMARK    2  A    between atoms: C_4  and  N_9
REMARK    3  A    between atoms: O_15  and  C_16
REMARK    4  A    between atoms: C_16  and  C_17
REMARK    5  A    between atoms: C_17  and  C_18
REMARK    6  A    between atoms: C_18  and  C_21
REMARK                            x       y       z     vdW  Elec       q    Type
REMARK                         _______ _______ _______ _____ _____    ______ ____
ROOT
ATOM      1  C   UNL     1      34.916 -22.336 -17.003  0.00  0.00    +0.131 C 
ATOM      2  C   UNL     1      33.834 -22.160 -17.867  0.00  0.00    +0.013 C 
ATOM      3  C   UNL     1      36.105 -21.642 -17.225  0.00  0.00    +0.013 C 
ATOM      4  C   UNL     1      35.131 -20.597 -19.174  0.00  0.00    +0.093 C 
ATOM      5  C   UNL     1      33.942 -21.292 -18.952  0.00  0.00    +0.017 C 
ATOM      6  C   UNL     1      36.213 -20.773 -18.311  0.00  0.00    +0.017 C 
ATOM      7  C   UNL     1      32.553 -22.896 -17.646  0.00  0.00    +0.034 C 
ATOM      8  C   UNL     1      37.273 -21.816 -16.311  0.00  0.00    +0.034 C 
ENDROOT
BRANCH   4   9
ATOM      9  N   UNL     1      35.240 -19.736 -20.251  0.00  0.00    -0.093 N 
ATOM     10  N   UNL     1      34.309 -19.677 -21.218  0.00  0.00    -0.106 NA
ATOM     11  N   UNL     1      36.284 -18.903 -20.396  0.00  0.00    -0.014 NA
ATOM     12  N   UNL     1      36.040 -18.249 -21.525  0.00  0.00    -0.090 NA
ATOM     13  C   UNL     1      34.854 -18.734 -21.991  0.00  0.00    +0.052 C 
ATOM     14  C   UNL     1      34.229 -18.265 -23.231  0.00  0.00    +0.118 C 
ENDBRANCH   4   9
BRANCH   1  15
ATOM     15  O   UNL     1      34.810 -23.186 -15.941  0.00  0.00    -0.476 OA
BRANCH  15  16
ATOM     16  C   UNL     1      34.253 -22.654 -14.741  0.00  0.00    +0.206 C 
BRANCH  16  17
ATOM     17  C   UNL     1      33.572 -23.780 -13.975  0.00  0.00    +0.055 C 
BRANCH  17  18
ATOM     18  C   UNL     1      32.296 -23.297 -13.283  0.00  0.00    +0.071 C 
BRANCH  18  21
ATOM     19  O   UNL     1      30.776 -25.032 -13.960  0.00  0.00    -0.358 OA
ATOM     20  N   UNL     1      29.623 -25.258 -14.702  0.00  0.00    -0.082 NA
ATOM     21  C   UNL     1      31.062 -23.724 -14.037  0.00  0.00    +0.154 C 
ATOM     22  C   UNL     1      30.176 -23.050 -14.786  0.00  0.00    +0.054 C 
ATOM     23  C   UNL     1      29.283 -24.059 -15.185  0.00  0.00    +0.101 C 
ATOM     24  C   UNL     1      28.087 -23.923 -16.032  0.00  0.00    +0.056 C 
ENDBRANCH  18  21
ENDBRANCH  17  18
ENDBRANCH  16  17
ENDBRANCH  15  16
ENDBRANCH   1  15
TORSDOF 6
ENDMDL
