MODEL 1
REMARK VINA RESULT:     -11.3      0.000      0.000
REMARK  Name = 71447
REMARK  7 active torsions:
REMARK  status: ('A' for Active; 'I' for Inactive)
REMARK    1  A    between atoms: C_5  and  C_27
REMARK    2  A    between atoms: C_7  and  N_12
REMARK    3  A    between atoms: C_13  and  C_15
REMARK    4  A    between atoms: C_15  and  C_16
REMARK    5  A    between atoms: C_15  and  N_22
REMARK    6  A    between atoms: C_27  and  O_28
REMARK    7  A    between atoms: O_28  and  C_31
REMARK                            x       y       z     vdW  Elec       q    Type
REMARK                         _______ _______ _______ _____ _____    ______ ____
ROOT
ATOM      1  S   UNL     1      34.003 -14.126 -23.248  0.00  0.00    -0.118 S 
ATOM      2  O   UNL     1      31.667 -14.607 -19.543  0.00  0.00    -0.273 OA
ATOM      3  N   UNL     1      32.946 -13.293 -21.030  0.00  0.00    -0.260 N 
ATOM      4  C   UNL     1      34.242 -13.828 -21.458  0.00  0.00    +0.151 C 
ATOM      5  C   UNL     1      32.045 -12.752 -22.027  0.00  0.00    +0.185 C 
ATOM      6  C   UNL     1      32.812 -12.698 -23.365  0.00  0.00    +0.068 C 
ATOM      7  C   UNL     1      33.989 -15.017 -20.520  0.00  0.00    +0.178 C 
ATOM      8  C   UNL     1      32.655 -14.323 -20.181  0.00  0.00    +0.247 C 
ATOM      9  C   UNL     1      31.877 -12.926 -24.554  0.00  0.00    +0.013 C 
ATOM     10  C   UNL     1      33.631 -11.417 -23.579  0.00  0.00    +0.013 C 
ENDROOT
BRANCH   7  12
ATOM     11  O   UNL     1      35.847 -17.226 -20.394  0.00  0.00    -0.277 OA
ATOM     12  N   UNL     1      33.833 -16.344 -21.131  0.00  0.00    -0.298 N 
ATOM     13  C   UNL     1      34.791 -17.353 -21.014  0.00  0.00    +0.206 C 
ATOM     14  H   UNL     1      33.015 -16.530 -21.648  0.00  0.00    +0.150 HD
BRANCH  13  15
ATOM     15  C   UNL     1      34.408 -18.629 -21.755  0.00  0.00    +0.036 C 
BRANCH  15  16
ATOM     16  C   UNL     1      33.986 -19.711 -20.785  0.00  0.00    -0.034 C 
ATOM     17  C   UNL     1      32.639 -19.898 -20.527  0.00  0.00    -0.006 C 
ATOM     18  C   UNL     1      34.955 -20.488 -20.177  0.00  0.00    -0.006 C 
ATOM     19  C   UNL     1      32.250 -20.896 -19.631  0.00  0.00    -0.000 C 
ATOM     20  C   UNL     1      34.566 -21.486 -19.282  0.00  0.00    -0.000 C 
ATOM     21  C   UNL     1      33.213 -21.689 -19.009  0.00  0.00    -0.000 C 
ENDBRANCH  15  16
BRANCH  15  22
ATOM     22  N   UNL     1      33.347 -18.291 -22.710  0.00  0.00    +0.390 N 
ATOM     23  H   UNL     1      33.644 -18.545 -23.651  0.00  0.00    -0.088 HD
ATOM     24  H   UNL     1      33.163 -17.288 -22.670  0.00  0.00    -0.088 HD
ATOM     25  H   UNL     1      32.499 -18.803 -22.470  0.00  0.00    -0.088 HD
ENDBRANCH  15  22
ENDBRANCH  13  15
ENDBRANCH   7  12
BRANCH   5  27
ATOM     26  O   UNL     1      31.205 -11.236 -20.359  0.00  0.00    -0.248 OA
ATOM     27  C   UNL     1      31.559 -11.434 -21.514  0.00  0.00    +0.339 C 
BRANCH  27  28
ATOM     28  O   UNL     1      31.575 -10.518 -22.524  0.00  0.00    -0.409 OA
BRANCH  28  31
ATOM     29  O   UNL     1      30.887  -9.047 -20.778  0.00  0.00    -0.407 OA
ATOM     30  O   UNL     1      31.715  -7.590 -19.184  0.00  0.00    -0.245 OA
ATOM     31  C   UNL     1      31.002  -9.245 -22.210  0.00  0.00    +0.370 C 
ATOM     32  C   UNL     1      31.917  -8.155 -22.609  0.00  0.00    +0.068 C 
ATOM     33  C   UNL     1      32.273  -7.417 -21.500  0.00  0.00    +0.079 C 
ATOM     34  C   UNL     1      31.623  -7.984 -20.329  0.00  0.00    +0.344 C 
ATOM     35  C   UNL     1      32.402  -7.817 -23.860  0.00  0.00    +0.003 C 
ATOM     36  C   UNL     1      33.120  -6.326 -21.568  0.00  0.00    +0.006 C 
ATOM     37  C   UNL     1      33.261  -6.718 -23.963  0.00  0.00    -0.000 C 
ATOM     38  C   UNL     1      33.618  -5.978 -22.824  0.00  0.00    +0.000 C 
ENDBRANCH  28  31
ENDBRANCH  27  28
ENDBRANCH   5  27
TORSDOF 7
ENDMDL
MODEL 2
REMARK VINA RESULT:     -10.4      3.024     10.169
REMARK  Name = 71447
REMARK  7 active torsions:
REMARK  status: ('A' for Active; 'I' for Inactive)
REMARK    1  A    between atoms: C_5  and  C_27
REMARK    2  A    between atoms: C_7  and  N_12
REMARK    3  A    between atoms: C_13  and  C_15
REMARK    4  A    between atoms: C_15  and  C_16
REMARK    5  A    between atoms: C_15  and  N_22
REMARK    6  A    between atoms: C_27  and  O_28
REMARK    7  A    between atoms: O_28  and  C_31
REMARK                            x       y       z     vdW  Elec       q    Type
REMARK                         _______ _______ _______ _____ _____    ______ ____
ROOT
ATOM      1  S   UNL     1      32.036  -9.449 -23.261  0.00  0.00    -0.118 S 
ATOM      2  O   UNL     1      31.781 -10.285 -18.942  0.00  0.00    -0.273 OA
ATOM      3  N   UNL     1      31.346 -10.853 -21.192  0.00  0.00    -0.260 N 
ATOM      4  C   UNL     1      30.727  -9.829 -22.039  0.00  0.00    +0.151 C 
ATOM      5  C   UNL     1      32.496 -11.580 -21.692  0.00  0.00    +0.185 C 
ATOM      6  C   UNL     1      32.676 -11.196 -23.177  0.00  0.00    +0.068 C 
ATOM      7  C   UNL     1      30.662  -8.932 -20.795  0.00  0.00    +0.178 C 
ATOM      8  C   UNL     1      31.323 -10.107 -20.048  0.00  0.00    +0.247 C 
ATOM      9  C   UNL     1      34.151 -11.205 -23.581  0.00  0.00    +0.013 C 
ATOM     10  C   UNL     1      31.857 -12.046 -24.158  0.00  0.00    +0.013 C 
ENDROOT
BRANCH   7  12
ATOM     11  O   UNL     1      30.122  -6.504 -22.265  0.00  0.00    -0.277 OA
ATOM     12  N   UNL     1      31.464  -7.701 -20.802  0.00  0.00    -0.298 N 
ATOM     13  C   UNL     1      31.120  -6.573 -21.548  0.00  0.00    +0.206 C 
ATOM     14  H   UNL     1      32.282  -7.671 -20.254  0.00  0.00    +0.150 HD
BRANCH  13  15
ATOM     15  C   UNL     1      32.123  -5.433 -21.404  0.00  0.00    +0.036 C 
BRANCH  15  16
ATOM     16  C   UNL     1      32.581  -4.941 -22.760  0.00  0.00    -0.034 C 
ATOM     17  C   UNL     1      33.686  -5.527 -23.353  0.00  0.00    -0.006 C 
ATOM     18  C   UNL     1      31.885  -3.917 -23.377  0.00  0.00    -0.006 C 
ATOM     19  C   UNL     1      34.108  -5.073 -24.604  0.00  0.00    -0.000 C 
ATOM     20  C   UNL     1      32.306  -3.463 -24.628  0.00  0.00    -0.000 C 
ATOM     21  C   UNL     1      33.418  -4.041 -25.240  0.00  0.00    -0.000 C 
ENDBRANCH  15  16
BRANCH  15  22
ATOM     22  N   UNL     1      31.488  -4.376 -20.611  0.00  0.00    +0.390 N 
ATOM     23  H   UNL     1      31.524  -3.497 -21.127  0.00  0.00    -0.088 HD
ATOM     24  H   UNL     1      31.983  -4.272 -19.726  0.00  0.00    -0.088 HD
ATOM     25  H   UNL     1      30.515  -4.624 -20.431  0.00  0.00    -0.088 HD
ENDBRANCH  15  22
ENDBRANCH  13  15
ENDBRANCH   7  12
BRANCH   5  27
ATOM     26  O   UNL     1      31.864 -13.480 -20.361  0.00  0.00    -0.248 OA
ATOM     27  C   UNL     1      32.249 -13.032 -21.432  0.00  0.00    +0.339 C 
BRANCH  27  28
ATOM     28  O   UNL     1      32.520 -13.749 -22.560  0.00  0.00    -0.409 OA
BRANCH  28  31
ATOM     29  O   UNL     1      34.306 -14.709 -21.306  0.00  0.00    -0.407 OA
ATOM     30  O   UNL     1      34.935 -16.649 -20.212  0.00  0.00    -0.245 OA
ATOM     31  C   UNL     1      33.827 -14.329 -22.620  0.00  0.00    +0.370 C 
ATOM     32  C   UNL     1      33.783 -15.625 -23.330  0.00  0.00    +0.068 C 
ATOM     33  C   UNL     1      34.204 -16.632 -22.486  0.00  0.00    +0.079 C 
ATOM     34  C   UNL     1      34.534 -16.055 -21.193  0.00  0.00    +0.344 C 
ATOM     35  C   UNL     1      33.410 -15.912 -24.631  0.00  0.00    +0.003 C 
ATOM     36  C   UNL     1      34.272 -17.956 -22.878  0.00  0.00    +0.006 C 
ATOM     37  C   UNL     1      33.469 -17.242 -25.059  0.00  0.00    -0.000 C 
ATOM     38  C   UNL     1      33.897 -18.258 -24.188  0.00  0.00    +0.000 C 
ENDBRANCH  28  31
ENDBRANCH  27  28
ENDBRANCH   5  27
TORSDOF 7
ENDMDL
MODEL 3
REMARK VINA RESULT:     -10.4      3.483      5.898
REMARK  Name = 71447
REMARK  7 active torsions:
REMARK  status: ('A' for Active; 'I' for Inactive)
REMARK    1  A    between atoms: C_5  and  C_27
REMARK    2  A    between atoms: C_7  and  N_12
REMARK    3  A    between atoms: C_13  and  C_15
REMARK    4  A    between atoms: C_15  and  C_16
REMARK    5  A    between atoms: C_15  and  N_22
REMARK    6  A    between atoms: C_27  and  O_28
REMARK    7  A    between atoms: O_28  and  C_31
REMARK                            x       y       z     vdW  Elec       q    Type
REMARK                         _______ _______ _______ _____ _____    ______ ____
ROOT
ATOM      1  S   UNL     1      31.274  -9.322 -21.547  0.00  0.00    -0.118 S 
ATOM      2  O   UNL     1      35.108  -8.972 -23.690  0.00  0.00    -0.273 OA
ATOM      3  N   UNL     1      32.864  -8.328 -23.340  0.00  0.00    -0.260 N 
ATOM      4  C   UNL     1      31.858  -9.393 -23.280  0.00  0.00    +0.151 C 
ATOM      5  C   UNL     1      32.856  -7.295 -22.323  0.00  0.00    +0.185 C 
ATOM      6  C   UNL     1      31.577  -7.485 -21.480  0.00  0.00    +0.068 C 
ATOM      7  C   UNL     1      32.986 -10.387 -23.589  0.00  0.00    +0.178 C 
ATOM      8  C   UNL     1      33.915  -9.157 -23.611  0.00  0.00    +0.247 C 
ATOM      9  C   UNL     1      31.802  -7.072 -20.024  0.00  0.00    +0.013 C 
ATOM     10  C   UNL     1      30.334  -6.781 -22.040  0.00  0.00    +0.013 C 
ENDROOT
BRANCH   7  12
ATOM     11  O   UNL     1      32.017 -13.101 -23.377  0.00  0.00    -0.277 OA
ATOM     12  N   UNL     1      33.325 -11.373 -22.554  0.00  0.00    -0.298 N 
ATOM     13  C   UNL     1      32.803 -12.668 -22.536  0.00  0.00    +0.206 C 
ATOM     14  H   UNL     1      33.950 -11.108 -21.840  0.00  0.00    +0.150 HD
BRANCH  13  15
ATOM     15  C   UNL     1      33.291 -13.492 -21.349  0.00  0.00    +0.036 C 
BRANCH  15  16
ATOM     16  C   UNL     1      33.881 -14.807 -21.809  0.00  0.00    -0.034 C 
ATOM     17  C   UNL     1      34.032 -15.041 -23.165  0.00  0.00    -0.006 C 
ATOM     18  C   UNL     1      34.254 -15.747 -20.865  0.00  0.00    -0.006 C 
ATOM     19  C   UNL     1      34.576 -16.255 -23.590  0.00  0.00    -0.000 C 
ATOM     20  C   UNL     1      34.798 -16.960 -21.290  0.00  0.00    -0.000 C 
ATOM     21  C   UNL     1      34.958 -17.213 -22.652  0.00  0.00    -0.000 C 
ENDBRANCH  15  16
BRANCH  15  22
ATOM     22  N   UNL     1      34.256 -12.677 -20.605  0.00  0.00    +0.390 N 
ATOM     23  H   UNL     1      34.178 -12.881 -19.609  0.00  0.00    -0.088 HD
ATOM     24  H   UNL     1      34.061 -11.688 -20.766  0.00  0.00    -0.088 HD
ATOM     25  H   UNL     1      35.201 -12.893 -20.924  0.00  0.00    -0.088 HD
ENDBRANCH  15  22
ENDBRANCH  13  15
ENDBRANCH   7  12
BRANCH   5  27
ATOM     26  O   UNL     1      32.991  -4.898 -22.458  0.00  0.00    -0.248 OA
ATOM     27  C   UNL     1      32.969  -5.981 -23.028  0.00  0.00    +0.339 C 
BRANCH  27  28
ATOM     28  O   UNL     1      33.038  -6.190 -24.373  0.00  0.00    -0.409 OA
BRANCH  28  31
ATOM     29  O   UNL     1      31.326  -4.534 -24.482  0.00  0.00    -0.407 OA
ATOM     30  O   UNL     1      30.978  -2.292 -24.935  0.00  0.00    -0.245 OA
ATOM     31  C   UNL     1      31.940  -5.675 -25.133  0.00  0.00    +0.370 C 
ATOM     32  C   UNL     1      32.420  -5.095 -26.405  0.00  0.00    +0.068 C 
ATOM     33  C   UNL     1      32.098  -3.754 -26.456  0.00  0.00    +0.079 C 
ATOM     34  C   UNL     1      31.404  -3.391 -25.231  0.00  0.00    +0.344 C 
ATOM     35  C   UNL     1      33.088  -5.695 -27.459  0.00  0.00    +0.003 C 
ATOM     36  C   UNL     1      32.418  -2.949 -27.534  0.00  0.00    +0.006 C 
ATOM     37  C   UNL     1      33.425  -4.908 -28.564  0.00  0.00    -0.000 C 
ATOM     38  C   UNL     1      33.093  -3.543 -28.601  0.00  0.00    +0.000 C 
ENDBRANCH  28  31
ENDBRANCH  27  28
ENDBRANCH   5  27
TORSDOF 7
ENDMDL
MODEL 4
REMARK VINA RESULT:     -10.3      5.694     12.770
REMARK  Name = 71447
REMARK  7 active torsions:
REMARK  status: ('A' for Active; 'I' for Inactive)
REMARK    1  A    between atoms: C_5  and  C_27
REMARK    2  A    between atoms: C_7  and  N_12
REMARK    3  A    between atoms: C_13  and  C_15
REMARK    4  A    between atoms: C_15  and  C_16
REMARK    5  A    between atoms: C_15  and  N_22
REMARK    6  A    between atoms: C_27  and  O_28
REMARK    7  A    between atoms: O_28  and  C_31
REMARK                            x       y       z     vdW  Elec       q    Type
REMARK                         _______ _______ _______ _____ _____    ______ ____
ROOT
ATOM      1  S   UNL     1      36.471 -20.572 -18.551  0.00  0.00    -0.118 S 
ATOM      2  O   UNL     1      32.084 -20.673 -18.953  0.00  0.00    -0.273 OA
ATOM      3  N   UNL     1      34.153 -21.736 -18.551  0.00  0.00    -0.260 N 
ATOM      4  C   UNL     1      35.229 -21.506 -19.519  0.00  0.00    +0.151 C 
ATOM      5  C   UNL     1      34.441 -21.616 -17.136  0.00  0.00    +0.185 C 
ATOM      6  C   UNL     1      35.969 -21.450 -16.987  0.00  0.00    +0.068 C 
ATOM      7  C   UNL     1      34.228 -20.681 -20.338  0.00  0.00    +0.178 C 
ATOM      8  C   UNL     1      33.213 -21.012 -19.227  0.00  0.00    +0.247 C 
ATOM      9  C   UNL     1      36.321 -20.568 -15.788  0.00  0.00    +0.013 C 
ATOM     10  C   UNL     1      36.749 -22.770 -16.915  0.00  0.00    +0.013 C 
ENDROOT
BRANCH   7  12
ATOM     11  O   UNL     1      34.957 -19.293 -22.766  0.00  0.00    -0.277 OA
ATOM     12  N   UNL     1      34.497 -19.245 -20.494  0.00  0.00    -0.298 N 
ATOM     13  C   UNL     1      34.844 -18.663 -21.714  0.00  0.00    +0.206 C 
ATOM     14  H   UNL     1      34.430 -18.666 -19.699  0.00  0.00    +0.150 HD
BRANCH  13  15
ATOM     15  C   UNL     1      35.094 -17.162 -21.611  0.00  0.00    +0.036 C 
BRANCH  15  16
ATOM     16  C   UNL     1      34.430 -16.424 -22.753  0.00  0.00    -0.034 C 
ATOM     17  C   UNL     1      34.226 -15.059 -22.646  0.00  0.00    -0.006 C 
ATOM     18  C   UNL     1      34.042 -17.129 -23.878  0.00  0.00    -0.006 C 
ATOM     19  C   UNL     1      33.613 -14.378 -23.700  0.00  0.00    -0.000 C 
ATOM     20  C   UNL     1      33.430 -16.449 -24.932  0.00  0.00    -0.000 C 
ATOM     21  C   UNL     1      33.215 -15.073 -24.842  0.00  0.00    -0.000 C 
ENDBRANCH  15  16
BRANCH  15  22
ATOM     22  N   UNL     1      34.608 -16.717 -20.301  0.00  0.00    +0.390 N 
ATOM     23  H   UNL     1      33.616 -16.940 -20.213  0.00  0.00    -0.088 HD
ATOM     24  H   UNL     1      34.739 -15.709 -20.215  0.00  0.00    -0.088 HD
ATOM     25  H   UNL     1      35.130 -17.193 -19.565  0.00  0.00    -0.088 HD
ENDBRANCH  15  22
ENDBRANCH  13  15
ENDBRANCH   7  12
BRANCH   5  27
ATOM     26  O   UNL     1      33.260 -23.708 -17.048  0.00  0.00    -0.248 OA
ATOM     27  C   UNL     1      33.860 -22.818 -16.462  0.00  0.00    +0.339 C 
BRANCH  27  28
ATOM     28  O   UNL     1      34.105 -22.752 -15.122  0.00  0.00    -0.409 OA
BRANCH  28  31
ATOM     29  O   UNL     1      34.779 -25.030 -15.323  0.00  0.00    -0.407 OA
ATOM     30  O   UNL     1      36.656 -26.382 -15.380  0.00  0.00    -0.245 OA
ATOM     31  C   UNL     1      34.219 -24.013 -14.455  0.00  0.00    +0.370 C 
ATOM     32  C   UNL     1      35.220 -23.933 -13.371  0.00  0.00    +0.068 C 
ATOM     33  C   UNL     1      36.241 -24.829 -13.614  0.00  0.00    +0.079 C 
ATOM     34  C   UNL     1      35.967 -25.527 -14.859  0.00  0.00    +0.344 C 
ATOM     35  C   UNL     1      35.240 -23.140 -12.237  0.00  0.00    +0.003 C 
ATOM     36  C   UNL     1      37.321 -24.980 -12.763  0.00  0.00    +0.006 C 
ATOM     37  C   UNL     1      36.318 -23.270 -11.356  0.00  0.00    -0.000 C 
ATOM     38  C   UNL     1      37.353 -24.184 -11.618  0.00  0.00    +0.000 C 
ENDBRANCH  28  31
ENDBRANCH  27  28
ENDBRANCH   5  27
TORSDOF 7
ENDMDL
MODEL 5
REMARK VINA RESULT:     -10.2      5.600     11.909
REMARK  Name = 71447
REMARK  7 active torsions:
REMARK  status: ('A' for Active; 'I' for Inactive)
REMARK    1  A    between atoms: C_5  and  C_27
REMARK    2  A    between atoms: C_7  and  N_12
REMARK    3  A    between atoms: C_13  and  C_15
REMARK    4  A    between atoms: C_15  and  C_16
REMARK    5  A    between atoms: C_15  and  N_22
REMARK    6  A    between atoms: C_27  and  O_28
REMARK    7  A    between atoms: O_28  and  C_31
REMARK                            x       y       z     vdW  Elec       q    Type
REMARK                         _______ _______ _______ _____ _____    ______ ____
ROOT
ATOM      1  S   UNL     1      36.388 -20.578 -18.486  0.00  0.00    -0.118 S 
ATOM      2  O   UNL     1      32.045 -20.716 -19.218  0.00  0.00    -0.273 OA
ATOM      3  N   UNL     1      34.091 -21.766 -18.686  0.00  0.00    -0.260 N 
ATOM      4  C   UNL     1      35.234 -21.502 -19.565  0.00  0.00    +0.151 C 
ATOM      5  C   UNL     1      34.271 -21.677 -17.251  0.00  0.00    +0.185 C 
ATOM      6  C   UNL     1      35.782 -21.498 -16.984  0.00  0.00    +0.068 C 
ATOM      7  C   UNL     1      34.286 -20.668 -20.438  0.00  0.00    +0.178 C 
ATOM      8  C   UNL     1      33.195 -21.036 -19.413  0.00  0.00    +0.247 C 
ATOM      9  C   UNL     1      36.032 -20.641 -15.742  0.00  0.00    +0.013 C 
ATOM     10  C   UNL     1      36.571 -22.811 -16.885  0.00  0.00    +0.013 C 
ENDROOT
BRANCH   7  12
ATOM     11  O   UNL     1      34.880 -19.165 -22.834  0.00  0.00    -0.277 OA
ATOM     12  N   UNL     1      34.548 -19.226 -20.540  0.00  0.00    -0.298 N 
ATOM     13  C   UNL     1      34.827 -18.586 -21.749  0.00  0.00    +0.206 C 
ATOM     14  H   UNL     1      34.526 -18.686 -19.716  0.00  0.00    +0.150 HD
BRANCH  13  15
ATOM     15  C   UNL     1      35.084 -17.092 -21.588  0.00  0.00    +0.036 C 
BRANCH  15  16
ATOM     16  C   UNL     1      34.430 -16.308 -22.705  0.00  0.00    -0.034 C 
ATOM     17  C   UNL     1      34.210 -14.951 -22.539  0.00  0.00    -0.006 C 
ATOM     18  C   UNL     1      34.064 -16.964 -23.867  0.00  0.00    -0.006 C 
ATOM     19  C   UNL     1      33.606 -14.228 -23.569  0.00  0.00    -0.000 C 
ATOM     20  C   UNL     1      33.461 -16.241 -24.897  0.00  0.00    -0.000 C 
ATOM     21  C   UNL     1      33.231 -14.873 -24.747  0.00  0.00    -0.000 C 
ENDBRANCH  15  16
BRANCH  15  22
ATOM     22  N   UNL     1      34.595 -16.693 -20.265  0.00  0.00    +0.390 N 
ATOM     23  H   UNL     1      33.667 -16.280 -20.357  0.00  0.00    -0.088 HD
ATOM     24  H   UNL     1      35.234 -16.010 -19.858  0.00  0.00    -0.088 HD
ATOM     25  H   UNL     1      34.544 -17.513 -19.661  0.00  0.00    -0.088 HD
ENDBRANCH  15  22
ENDBRANCH  13  15
ENDBRANCH   7  12
BRANCH   5  27
ATOM     26  O   UNL     1      34.252 -23.677 -15.916  0.00  0.00    -0.248 OA
ATOM     27  C   UNL     1      33.656 -22.900 -16.650  0.00  0.00    +0.339 C 
BRANCH  27  28
ATOM     28  O   UNL     1      32.357 -23.001 -17.052  0.00  0.00    -0.409 OA
BRANCH  28  31
ATOM     29  O   UNL     1      30.258 -21.872 -16.975  0.00  0.00    -0.407 OA
ATOM     30  O   UNL     1      27.976 -22.251 -17.028  0.00  0.00    -0.245 OA
ATOM     31  C   UNL     1      31.403 -22.337 -16.217  0.00  0.00    +0.370 C 
ATOM     32  C   UNL     1      30.791 -23.294 -15.272  0.00  0.00    +0.068 C 
ATOM     33  C   UNL     1      29.429 -23.352 -15.484  0.00  0.00    +0.079 C 
ATOM     34  C   UNL     1      29.084 -22.450 -16.572  0.00  0.00    +0.344 C 
ATOM     35  C   UNL     1      31.377 -24.061 -14.280  0.00  0.00    +0.003 C 
ATOM     36  C   UNL     1      28.590 -24.162 -14.742  0.00  0.00    +0.006 C 
ATOM     37  C   UNL     1      30.556 -24.892 -13.512  0.00  0.00    -0.000 C 
ATOM     38  C   UNL     1      29.171 -24.942 -13.742  0.00  0.00    +0.000 C 
ENDBRANCH  28  31
ENDBRANCH  27  28
ENDBRANCH   5  27
TORSDOF 7
ENDMDL
MODEL 6
REMARK VINA RESULT:     -10.1      3.628      6.234
REMARK  Name = 71447
REMARK  7 active torsions:
REMARK  status: ('A' for Active; 'I' for Inactive)
REMARK    1  A    between atoms: C_5  and  C_27
REMARK    2  A    between atoms: C_7  and  N_12
REMARK    3  A    between atoms: C_13  and  C_15
REMARK    4  A    between atoms: C_15  and  C_16
REMARK    5  A    between atoms: C_15  and  N_22
REMARK    6  A    between atoms: C_27  and  O_28
REMARK    7  A    between atoms: O_28  and  C_31
REMARK                            x       y       z     vdW  Elec       q    Type
REMARK                         _______ _______ _______ _____ _____    ______ ____
ROOT
ATOM      1  S   UNL     1      31.155  -9.116 -21.515  0.00  0.00    -0.118 S 
ATOM      2  O   UNL     1      35.010  -8.849 -23.634  0.00  0.00    -0.273 OA
ATOM      3  N   UNL     1      32.789  -8.134 -23.276  0.00  0.00    -0.260 N 
ATOM      4  C   UNL     1      31.745  -9.163 -23.247  0.00  0.00    +0.151 C 
ATOM      5  C   UNL     1      32.813  -7.128 -22.233  0.00  0.00    +0.185 C 
ATOM      6  C   UNL     1      31.524  -7.293 -21.400  0.00  0.00    +0.068 C 
ATOM      7  C   UNL     1      32.838 -10.189 -23.577  0.00  0.00    +0.178 C 
ATOM      8  C   UNL     1      33.810  -8.993 -23.565  0.00  0.00    +0.247 C 
ATOM      9  C   UNL     1      31.757  -6.926 -19.933  0.00  0.00    +0.013 C 
ATOM     10  C   UNL     1      30.310  -6.531 -21.946  0.00  0.00    +0.013 C 
ENDROOT
BRANCH   7  12
ATOM     11  O   UNL     1      32.282 -13.020 -23.742  0.00  0.00    -0.277 OA
ATOM     12  N   UNL     1      33.137 -11.213 -22.567  0.00  0.00    -0.298 N 
ATOM     13  C   UNL     1      32.829 -12.564 -22.738  0.00  0.00    +0.206 C 
ATOM     14  H   UNL     1      33.575 -10.933 -21.730  0.00  0.00    +0.150 HD
BRANCH  13  15
ATOM     15  C   UNL     1      33.219 -13.422 -21.539  0.00  0.00    +0.036 C 
BRANCH  15  16
ATOM     16  C   UNL     1      33.807 -14.742 -21.987  0.00  0.00    -0.034 C 
ATOM     17  C   UNL     1      33.905 -15.012 -23.341  0.00  0.00    -0.006 C 
ATOM     18  C   UNL     1      34.233 -15.650 -21.034  0.00  0.00    -0.006 C 
ATOM     19  C   UNL     1      34.447 -16.230 -23.755  0.00  0.00    -0.000 C 
ATOM     20  C   UNL     1      34.776 -16.867 -21.448  0.00  0.00    -0.000 C 
ATOM     21  C   UNL     1      34.882 -17.157 -22.809  0.00  0.00    -0.000 C 
ENDBRANCH  15  16
BRANCH  15  22
ATOM     22  N   UNL     1      34.152 -12.644 -20.718  0.00  0.00    +0.390 N 
ATOM     23  H   UNL     1      33.682 -12.337 -19.867  0.00  0.00    -0.088 HD
ATOM     24  H   UNL     1      34.470 -11.831 -21.244  0.00  0.00    -0.088 HD
ATOM     25  H   UNL     1      34.954 -13.225 -20.472  0.00  0.00    -0.088 HD
ENDBRANCH  15  22
ENDBRANCH  13  15
ENDBRANCH   7  12
BRANCH   5  27
ATOM     26  O   UNL     1      32.899  -4.727 -22.323  0.00  0.00    -0.248 OA
ATOM     27  C   UNL     1      32.976  -5.801 -22.903  0.00  0.00    +0.339 C 
BRANCH  27  28
ATOM     28  O   UNL     1      33.216  -5.989 -24.232  0.00  0.00    -0.409 OA
BRANCH  28  31
ATOM     29  O   UNL     1      34.877  -5.524 -25.879  0.00  0.00    -0.407 OA
ATOM     30  O   UNL     1      35.181  -5.330 -28.164  0.00  0.00    -0.245 OA
ATOM     31  C   UNL     1      34.001  -4.972 -24.865  0.00  0.00    +0.370 C 
ATOM     32  C   UNL     1      33.135  -4.068 -25.650  0.00  0.00    +0.068 C 
ATOM     33  C   UNL     1      33.502  -4.111 -26.979  0.00  0.00    +0.079 C 
ATOM     34  C   UNL     1      34.609  -5.042 -27.131  0.00  0.00    +0.344 C 
ATOM     35  C   UNL     1      32.100  -3.248 -25.237  0.00  0.00    +0.003 C 
ATOM     36  C   UNL     1      32.870  -3.362 -27.955  0.00  0.00    +0.006 C 
ATOM     37  C   UNL     1      31.440  -2.477 -26.199  0.00  0.00    -0.000 C 
ATOM     38  C   UNL     1      31.822  -2.534 -27.549  0.00  0.00    +0.000 C 
ENDBRANCH  28  31
ENDBRANCH  27  28
ENDBRANCH   5  27
TORSDOF 7
ENDMDL
MODEL 7
REMARK VINA RESULT:      -9.9      4.695     11.586
REMARK  Name = 71447
REMARK  7 active torsions:
REMARK  status: ('A' for Active; 'I' for Inactive)
REMARK    1  A    between atoms: C_5  and  C_27
REMARK    2  A    between atoms: C_7  and  N_12
REMARK    3  A    between atoms: C_13  and  C_15
REMARK    4  A    between atoms: C_15  and  C_16
REMARK    5  A    between atoms: C_15  and  N_22
REMARK    6  A    between atoms: C_27  and  O_28
REMARK    7  A    between atoms: O_28  and  C_31
REMARK                            x       y       z     vdW  Elec       q    Type
REMARK                         _______ _______ _______ _____ _____    ______ ____
ROOT
ATOM      1  S   UNL     1      36.077 -19.690 -20.039  0.00  0.00    -0.118 S 
ATOM      2  O   UNL     1      31.686 -19.759 -19.667  0.00  0.00    -0.273 OA
ATOM      3  N   UNL     1      33.765 -20.857 -19.882  0.00  0.00    -0.260 N 
ATOM      4  C   UNL     1      34.660 -20.405 -20.951  0.00  0.00    +0.151 C 
ATOM      5  C   UNL     1      34.302 -21.048 -18.549  0.00  0.00    +0.185 C 
ATOM      6  C   UNL     1      35.835 -20.899 -18.642  0.00  0.00    +0.068 C 
ATOM      7  C   UNL     1      33.551 -19.432 -21.378  0.00  0.00    +0.178 C 
ATOM      8  C   UNL     1      32.740 -20.014 -20.204  0.00  0.00    +0.247 C 
ATOM      9  C   UNL     1      36.416 -20.298 -17.360  0.00  0.00    +0.013 C 
ATOM     10  C   UNL     1      36.581 -22.190 -19.001  0.00  0.00    +0.013 C 
ENDROOT
BRANCH   7  12
ATOM     11  O   UNL     1      34.946 -17.758 -23.276  0.00  0.00    -0.277 OA
ATOM     12  N   UNL     1      33.826 -17.994 -21.260  0.00  0.00    -0.298 N 
ATOM     13  C   UNL     1      34.511 -17.267 -22.235  0.00  0.00    +0.206 C 
ATOM     14  H   UNL     1      33.513 -17.521 -20.454  0.00  0.00    +0.150 HD
BRANCH  13  15
ATOM     15  C   UNL     1      34.689 -15.797 -21.869  0.00  0.00    +0.036 C 
BRANCH  15  16
ATOM     16  C   UNL     1      34.015 -14.902 -22.887  0.00  0.00    -0.034 C 
ATOM     17  C   UNL     1      33.660 -13.614 -22.523  0.00  0.00    -0.006 C 
ATOM     18  C   UNL     1      33.768 -15.390 -24.157  0.00  0.00    -0.006 C 
ATOM     19  C   UNL     1      33.038 -12.789 -23.461  0.00  0.00    -0.000 C 
ATOM     20  C   UNL     1      33.147 -14.565 -25.096  0.00  0.00    -0.000 C 
ATOM     21  C   UNL     1      32.782 -13.264 -24.747  0.00  0.00    -0.000 C 
ENDBRANCH  15  16
BRANCH  15  22
ATOM     22  N   UNL     1      34.156 -15.605 -20.517  0.00  0.00    +0.390 N 
ATOM     23  H   UNL     1      34.928 -15.530 -19.855  0.00  0.00    -0.088 HD
ATOM     24  H   UNL     1      33.570 -16.402 -20.267  0.00  0.00    -0.088 HD
ATOM     25  H   UNL     1      33.599 -14.751 -20.489  0.00  0.00    -0.088 HD
ENDBRANCH  15  22
ENDBRANCH  13  15
ENDBRANCH   7  12
BRANCH   5  27
ATOM     26  O   UNL     1      33.405 -23.266 -18.797  0.00  0.00    -0.248 OA
ATOM     27  C   UNL     1      33.817 -22.377 -18.064  0.00  0.00    +0.339 C 
BRANCH  27  28
ATOM     28  O   UNL     1      33.908 -22.426 -16.704  0.00  0.00    -0.409 OA
BRANCH  28  31
ATOM     29  O   UNL     1      33.819 -23.878 -14.814  0.00  0.00    -0.407 OA
ATOM     30  O   UNL     1      33.208 -23.938 -12.584  0.00  0.00    -0.245 OA
ATOM     31  C   UNL     1      33.214 -23.511 -16.080  0.00  0.00    +0.370 C 
ATOM     32  C   UNL     1      31.857 -23.089 -15.674  0.00  0.00    +0.068 C 
ATOM     33  C   UNL     1      31.720 -23.214 -14.307  0.00  0.00    +0.079 C 
ATOM     34  C   UNL     1      32.969 -23.712 -13.753  0.00  0.00    +0.344 C 
ATOM     35  C   UNL     1      30.801 -22.633 -16.444  0.00  0.00    +0.003 C 
ATOM     36  C   UNL     1      30.552 -22.895 -13.640  0.00  0.00    +0.006 C 
ATOM     37  C   UNL     1      29.605 -22.303 -15.800  0.00  0.00    -0.000 C 
ATOM     38  C   UNL     1      29.481 -22.433 -14.406  0.00  0.00    +0.000 C 
ENDBRANCH  28  31
ENDBRANCH  27  28
ENDBRANCH   5  27
TORSDOF 7
ENDMDL
MODEL 8
REMARK VINA RESULT:      -9.8      1.318      1.869
REMARK  Name = 71447
REMARK  7 active torsions:
REMARK  status: ('A' for Active; 'I' for Inactive)
REMARK    1  A    between atoms: C_5  and  C_27
REMARK    2  A    between atoms: C_7  and  N_12
REMARK    3  A    between atoms: C_13  and  C_15
REMARK    4  A    between atoms: C_15  and  C_16
REMARK    5  A    between atoms: C_15  and  N_22
REMARK    6  A    between atoms: C_27  and  O_28
REMARK    7  A    between atoms: O_28  and  C_31
REMARK                            x       y       z     vdW  Elec       q    Type
REMARK                         _______ _______ _______ _____ _____    ______ ____
ROOT
ATOM      1  S   UNL     1      34.051 -14.501 -23.670  0.00  0.00    -0.118 S 
ATOM      2  O   UNL     1      31.818 -14.527 -19.871  0.00  0.00    -0.273 OA
ATOM      3  N   UNL     1      33.082 -13.412 -21.523  0.00  0.00    -0.260 N 
ATOM      4  C   UNL     1      34.352 -14.023 -21.929  0.00  0.00    +0.151 C 
ATOM      5  C   UNL     1      32.164 -12.955 -22.546  0.00  0.00    +0.185 C 
ATOM      6  C   UNL     1      32.891 -13.062 -23.904  0.00  0.00    +0.068 C 
ATOM      7  C   UNL     1      34.099 -15.099 -20.863  0.00  0.00    +0.178 C 
ATOM      8  C   UNL     1      32.793 -14.338 -20.563  0.00  0.00    +0.247 C 
ATOM      9  C   UNL     1      31.915 -13.389 -25.036  0.00  0.00    +0.013 C 
ATOM     10  C   UNL     1      33.732 -11.833 -24.274  0.00  0.00    +0.013 C 
ENDROOT
BRANCH   7  12
ATOM     11  O   UNL     1      35.888 -17.342 -20.516  0.00  0.00    -0.277 OA
ATOM     12  N   UNL     1      33.894 -16.479 -21.326  0.00  0.00    -0.298 N 
ATOM     13  C   UNL     1      34.821 -17.500 -21.109  0.00  0.00    +0.206 C 
ATOM     14  H   UNL     1      33.064 -16.692 -21.812  0.00  0.00    +0.150 HD
BRANCH  13  15
ATOM     15  C   UNL     1      34.388 -18.835 -21.704  0.00  0.00    +0.036 C 
BRANCH  15  16
ATOM     16  C   UNL     1      34.015 -19.817 -20.614  0.00  0.00    -0.034 C 
ATOM     17  C   UNL     1      32.682 -19.975 -20.276  0.00  0.00    -0.006 C 
ATOM     18  C   UNL     1      35.014 -20.534 -19.980  0.00  0.00    -0.006 C 
ATOM     19  C   UNL     1      32.338 -20.880 -19.270  0.00  0.00    -0.000 C 
ATOM     20  C   UNL     1      34.671 -21.439 -18.975  0.00  0.00    -0.000 C 
ATOM     21  C   UNL     1      33.332 -21.611 -18.620  0.00  0.00    -0.000 C 
ENDBRANCH  15  16
BRANCH  15  22
ATOM     22  N   UNL     1      33.277 -18.575 -22.625  0.00  0.00    +0.390 N 
ATOM     23  H   UNL     1      32.421 -18.979 -22.247  0.00  0.00    -0.088 HD
ATOM     24  H   UNL     1      33.482 -18.997 -23.531  0.00  0.00    -0.088 HD
ATOM     25  H   UNL     1      33.158 -17.569 -22.738  0.00  0.00    -0.088 HD
ENDBRANCH  15  22
ENDBRANCH  13  15
ENDBRANCH   7  12
BRANCH   5  27
ATOM     26  O   UNL     1      31.052 -11.324 -21.173  0.00  0.00    -0.248 OA
ATOM     27  C   UNL     1      31.725 -11.578 -22.163  0.00  0.00    +0.339 C 
BRANCH  27  28
ATOM     28  O   UNL     1      32.187 -10.680 -23.080  0.00  0.00    -0.409 OA
BRANCH  28  31
ATOM     29  O   UNL     1      33.917  -9.039 -23.043  0.00  0.00    -0.407 OA
ATOM     30  O   UNL     1      34.836  -7.325 -24.296  0.00  0.00    -0.245 OA
ATOM     31  C   UNL     1      32.608  -9.420 -22.548  0.00  0.00    +0.370 C 
ATOM     32  C   UNL     1      31.747  -8.332 -23.057  0.00  0.00    +0.068 C 
ATOM     33  C   UNL     1      32.509  -7.428 -23.767  0.00  0.00    +0.079 C 
ATOM     34  C   UNL     1      33.893  -7.876 -23.765  0.00  0.00    +0.344 C 
ATOM     35  C   UNL     1      30.385  -8.133 -22.906  0.00  0.00    +0.003 C 
ATOM     36  C   UNL     1      31.973  -6.299 -24.359  0.00  0.00    +0.006 C 
ATOM     37  C   UNL     1      29.812  -7.000 -23.492  0.00  0.00    -0.000 C 
ATOM     38  C   UNL     1      30.601  -6.089 -24.215  0.00  0.00    +0.000 C 
ENDBRANCH  28  31
ENDBRANCH  27  28
ENDBRANCH   5  27
TORSDOF 7
ENDMDL
MODEL 9
REMARK VINA RESULT:      -9.8      4.590      7.928
REMARK  Name = 71447
REMARK  7 active torsions:
REMARK  status: ('A' for Active; 'I' for Inactive)
REMARK    1  A    between atoms: C_5  and  C_27
REMARK    2  A    between atoms: C_7  and  N_12
REMARK    3  A    between atoms: C_13  and  C_15
REMARK    4  A    between atoms: C_15  and  C_16
REMARK    5  A    between atoms: C_15  and  N_22
REMARK    6  A    between atoms: C_27  and  O_28
REMARK    7  A    between atoms: O_28  and  C_31
REMARK                            x       y       z     vdW  Elec       q    Type
REMARK                         _______ _______ _______ _____ _____    ______ ____
ROOT
ATOM      1  S   UNL     1      33.931 -21.565 -19.824  0.00  0.00    -0.118 S 
ATOM      2  O   UNL     1      36.935 -19.166 -17.670  0.00  0.00    -0.273 OA
ATOM      3  N   UNL     1      35.971 -19.969 -19.670  0.00  0.00    -0.260 N 
ATOM      4  C   UNL     1      35.755 -21.415 -19.781  0.00  0.00    +0.151 C 
ATOM      5  C   UNL     1      34.897 -19.067 -20.034  0.00  0.00    +0.185 C 
ATOM      6  C   UNL     1      33.777 -19.915 -20.676  0.00  0.00    +0.068 C 
ATOM      7  C   UNL     1      36.428 -21.556 -18.409  0.00  0.00    +0.178 C 
ATOM      8  C   UNL     1      36.573 -20.022 -18.446  0.00  0.00    +0.247 C 
ATOM      9  C   UNL     1      32.395 -19.330 -20.380  0.00  0.00    +0.013 C 
ATOM     10  C   UNL     1      33.938 -20.146 -22.184  0.00  0.00    +0.013 C 
ENDROOT
BRANCH   7  12
ATOM     11  O   UNL     1      37.349 -22.456 -15.822  0.00  0.00    -0.277 OA
ATOM     12  N   UNL     1      35.606 -22.051 -17.296  0.00  0.00    -0.298 N 
ATOM     13  C   UNL     1      36.145 -22.466 -16.077  0.00  0.00    +0.206 C 
ATOM     14  H   UNL     1      34.629 -22.093 -17.417  0.00  0.00    +0.150 HD
BRANCH  13  15
ATOM     15  C   UNL     1      35.088 -22.957 -15.093  0.00  0.00    +0.036 C 
BRANCH  15  16
ATOM     16  C   UNL     1      35.715 -23.804 -14.006  0.00  0.00    -0.034 C 
ATOM     17  C   UNL     1      35.865 -23.270 -12.738  0.00  0.00    -0.006 C 
ATOM     18  C   UNL     1      36.123 -25.092 -14.304  0.00  0.00    -0.006 C 
ATOM     19  C   UNL     1      36.443 -24.051 -11.735  0.00  0.00    -0.000 C 
ATOM     20  C   UNL     1      36.700 -25.873 -13.302  0.00  0.00    -0.000 C 
ATOM     21  C   UNL     1      36.861 -25.352 -12.018  0.00  0.00    -0.000 C 
ENDBRANCH  15  16
BRANCH  15  22
ATOM     22  N   UNL     1      34.396 -21.782 -14.556  0.00  0.00    +0.390 N 
ATOM     23  H   UNL     1      34.619 -20.967 -15.127  0.00  0.00    -0.088 HD
ATOM     24  H   UNL     1      34.699 -21.619 -13.596  0.00  0.00    -0.088 HD
ATOM     25  H   UNL     1      33.389 -21.943 -14.573  0.00  0.00    -0.088 HD
ENDBRANCH  15  22
ENDBRANCH  13  15
ENDBRANCH   7  12
BRANCH   5  27
ATOM     26  O   UNL     1      36.665 -17.966 -21.234  0.00  0.00    -0.248 OA
ATOM     27  C   UNL     1      35.485 -18.012 -20.915  0.00  0.00    +0.339 C 
BRANCH  27  28
ATOM     28  O   UNL     1      34.510 -17.136 -21.289  0.00  0.00    -0.409 OA
BRANCH  28  31
ATOM     29  O   UNL     1      34.669 -16.459 -23.570  0.00  0.00    -0.407 OA
ATOM     30  O   UNL     1      33.400 -15.665 -25.334  0.00  0.00    -0.245 OA
ATOM     31  C   UNL     1      34.924 -16.102 -22.189  0.00  0.00    +0.370 C 
ATOM     32  C   UNL     1      34.085 -14.898 -22.012  0.00  0.00    +0.068 C 
ATOM     33  C   UNL     1      33.428 -14.612 -23.190  0.00  0.00    +0.079 C 
ATOM     34  C   UNL     1      33.793 -15.606 -24.186  0.00  0.00    +0.344 C 
ATOM     35  C   UNL     1      33.910 -14.093 -20.899  0.00  0.00    +0.003 C 
ATOM     36  C   UNL     1      32.572 -13.534 -23.326  0.00  0.00    +0.006 C 
ATOM     37  C   UNL     1      33.051 -12.995 -21.004  0.00  0.00    -0.000 C 
ATOM     38  C   UNL     1      32.386 -12.717 -22.210  0.00  0.00    +0.000 C 
ENDBRANCH  28  31
ENDBRANCH  27  28
ENDBRANCH   5  27
TORSDOF 7
ENDMDL
