MODEL 1
REMARK VINA RESULT:      -8.0      0.000      0.000
REMARK  Name = 5330286
REMARK  3 active torsions:
REMARK  status: ('A' for Active; 'I' for Inactive)
REMARK    1  A    between atoms: N_2  and  C_29
REMARK    2  A    between atoms: C_10  and  C_35
REMARK    3  A    between atoms: C_15  and  N_21
REMARK                            x       y       z     vdW  Elec       q    Type
REMARK                         _______ _______ _______ _____ _____    ______ ____
ROOT
ATOM      1  O   UNL     1      38.469 -23.002 -14.749  0.00  0.00    -0.267 OA
ATOM      2  N   UNL     1      36.449 -22.619 -15.807  0.00  0.00    -0.272 N 
ATOM      3  N   UNL     1      34.342 -22.281 -16.888  0.00  0.00    -0.319 NA
ATOM      4  N   UNL     1      32.349 -23.344 -16.096  0.00  0.00    -0.170 NA
ATOM      5  N   UNL     1      32.290 -21.946 -17.973  0.00  0.00    -0.232 N 
ATOM      6  N   UNL     1      33.950 -20.688 -19.131  0.00  0.00    -0.227 NA
ATOM      7  C   UNL     1      35.051 -22.867 -15.888  0.00  0.00    +0.211 A 
ATOM      8  C   UNL     1      37.253 -23.192 -14.831  0.00  0.00    +0.265 A 
ATOM      9  C   UNL     1      34.464 -23.702 -14.946  0.00  0.00    +0.064 A 
ATOM     10  C   UNL     1      36.589 -24.091 -13.825  0.00  0.00    +0.087 A 
ATOM     11  C   UNL     1      35.260 -24.321 -13.862  0.00  0.00    -0.009 A 
ATOM     12  C   UNL     1      33.095 -23.901 -15.118  0.00  0.00    +0.115 C 
ATOM     13  C   UNL     1      34.489 -25.160 -12.869  0.00  0.00    +0.031 C 
ATOM     14  C   UNL     1      33.028 -22.553 -16.935  0.00  0.00    +0.151 C 
ATOM     15  C   UNL     1      33.319 -19.384 -21.066  0.00  0.00    +0.067 C 
ATOM     16  C   UNL     1      32.656 -21.076 -19.018  0.00  0.00    +0.141 C 
ATOM     17  C   UNL     1      31.999 -19.800 -20.924  0.00  0.00    +0.019 C 
ATOM     18  C   UNL     1      34.248 -19.853 -20.151  0.00  0.00    +0.115 C 
ATOM     19  C   UNL     1      31.655 -20.658 -19.887  0.00  0.00    +0.036 C 
ATOM     20  H   UNL     1      31.333 -22.176 -17.966  0.00  0.00    +0.166 HD
ENDROOT
BRANCH  15  21
ATOM     21  N   UNL     1      33.696 -18.521 -22.101  0.00  0.00    -0.311 N 
ATOM     22  N   UNL     1      34.695 -16.873 -24.207  0.00  0.00    +0.386 N 
ATOM     23  C   UNL     1      33.603 -18.972 -23.494  0.00  0.00    +0.067 C 
ATOM     24  C   UNL     1      34.736 -17.522 -21.823  0.00  0.00    +0.067 C 
ATOM     25  C   UNL     1      33.569 -17.775 -24.444  0.00  0.00    -0.060 C 
ATOM     26  C   UNL     1      34.661 -16.376 -22.833  0.00  0.00    -0.060 C 
ATOM     27  H   UNL     1      34.638 -16.084 -24.851  0.00  0.00    -0.084 HD
ATOM     28  H   UNL     1      35.567 -17.381 -24.357  0.00  0.00    -0.084 HD
ENDBRANCH  15  21
BRANCH   2  29
ATOM     29  C   UNL     1      37.022 -21.750 -16.794  0.00  0.00    +0.091 C 
ATOM     30  C   UNL     1      37.072 -20.297 -16.347  0.00  0.00    +0.023 C 
ATOM     31  C   UNL     1      36.204 -21.695 -18.081  0.00  0.00    +0.023 C 
ATOM     32  C   UNL     1      37.296 -19.549 -17.651  0.00  0.00    +0.002 C 
ATOM     33  C   UNL     1      36.492 -20.323 -18.692  0.00  0.00    +0.002 C 
ENDBRANCH   2  29
BRANCH  10  35
ATOM     34  O   UNL     1      37.930 -25.827 -12.989  0.00  0.00    -0.291 OA
ATOM     35  C   UNL     1      37.440 -24.719 -12.793  0.00  0.00    +0.178 C 
ATOM     36  C   UNL     1      37.678 -23.951 -11.525  0.00  0.00    +0.077 C 
ENDBRANCH  10  35
TORSDOF 3
ENDMDL
MODEL 2
REMARK VINA RESULT:      -7.6      7.213     11.638
REMARK  Name = 5330286
REMARK  3 active torsions:
REMARK  status: ('A' for Active; 'I' for Inactive)
REMARK    1  A    between atoms: N_2  and  C_29
REMARK    2  A    between atoms: C_10  and  C_35
REMARK    3  A    between atoms: C_15  and  N_21
REMARK                            x       y       z     vdW  Elec       q    Type
REMARK                         _______ _______ _______ _____ _____    ______ ____
ROOT
ATOM      1  O   UNL     1      34.569 -16.009 -25.123  0.00  0.00    -0.267 OA
ATOM      2  N   UNL     1      33.778 -14.552 -23.512  0.00  0.00    -0.272 N 
ATOM      3  N   UNL     1      32.932 -13.092 -21.816  0.00  0.00    -0.319 NA
ATOM      4  N   UNL     1      32.709 -13.816 -19.546  0.00  0.00    -0.170 NA
ATOM      5  N   UNL     1      32.088 -11.646 -20.174  0.00  0.00    -0.232 N 
ATOM      6  N   UNL     1      32.113 -10.472 -22.247  0.00  0.00    -0.227 NA
ATOM      7  C   UNL     1      33.426 -14.311 -22.156  0.00  0.00    +0.211 A 
ATOM      8  C   UNL     1      34.270 -15.774 -23.951  0.00  0.00    +0.265 A 
ATOM      9  C   UNL     1      33.596 -15.332 -21.229  0.00  0.00    +0.064 A 
ATOM     10  C   UNL     1      34.443 -16.859 -22.925  0.00  0.00    +0.087 A 
ATOM     11  C   UNL     1      34.144 -16.649 -21.626  0.00  0.00    -0.009 A 
ATOM     12  C   UNL     1      33.207 -15.010 -19.930  0.00  0.00    +0.115 C 
ATOM     13  C   UNL     1      34.334 -17.652 -20.511  0.00  0.00    +0.031 C 
ATOM     14  C   UNL     1      32.601 -12.912 -20.527  0.00  0.00    +0.151 C 
ATOM     15  C   UNL     1      31.333  -8.185 -22.326  0.00  0.00    +0.067 C 
ATOM     16  C   UNL     1      31.837 -10.479 -20.919  0.00  0.00    +0.141 C 
ATOM     17  C   UNL     1      31.061  -8.223 -20.963  0.00  0.00    +0.019 C 
ATOM     18  C   UNL     1      31.853  -9.326 -22.915  0.00  0.00    +0.115 C 
ATOM     19  C   UNL     1      31.315  -9.384 -20.241  0.00  0.00    +0.036 C 
ATOM     20  H   UNL     1      31.860 -11.564 -19.219  0.00  0.00    +0.166 HD
ENDROOT
BRANCH  15  21
ATOM     21  N   UNL     1      31.087  -7.031 -23.079  0.00  0.00    -0.311 N 
ATOM     22  N   UNL     1      30.361  -4.781 -24.679  0.00  0.00    +0.386 N 
ATOM     23  C   UNL     1      30.310  -5.933 -22.493  0.00  0.00    +0.067 C 
ATOM     24  C   UNL     1      31.002  -7.163 -24.539  0.00  0.00    +0.067 C 
ATOM     25  C   UNL     1      30.579  -4.627 -23.241  0.00  0.00    -0.060 C 
ATOM     26  C   UNL     1      31.247  -5.814 -25.214  0.00  0.00    -0.060 C 
ATOM     27  H   UNL     1      30.555  -3.896 -25.147  0.00  0.00    -0.084 HD
ATOM     28  H   UNL     1      29.392  -5.055 -24.843  0.00  0.00    -0.084 HD
ENDBRANCH  15  21
BRANCH   2  29
ATOM     29  C   UNL     1      33.592 -13.474 -24.441  0.00  0.00    +0.091 C 
ATOM     30  C   UNL     1      32.280 -12.731 -24.232  0.00  0.00    +0.023 C 
ATOM     31  C   UNL     1      33.503 -13.948 -25.889  0.00  0.00    +0.023 C 
ATOM     32  C   UNL     1      32.115 -11.965 -25.534  0.00  0.00    +0.002 C 
ATOM     33  C   UNL     1      32.659 -12.898 -26.613  0.00  0.00    +0.002 C 
ENDBRANCH   2  29
BRANCH  10  35
ATOM     34  O   UNL     1      36.090 -18.523 -23.099  0.00  0.00    -0.291 OA
ATOM     35  C   UNL     1      34.950 -18.169 -23.384  0.00  0.00    +0.178 C 
ATOM     36  C   UNL     1      34.022 -19.031 -24.191  0.00  0.00    +0.077 C 
ENDBRANCH  10  35
TORSDOF 3
ENDMDL
MODEL 3
REMARK VINA RESULT:      -7.1      7.226     11.570
REMARK  Name = 5330286
REMARK  3 active torsions:
REMARK  status: ('A' for Active; 'I' for Inactive)
REMARK    1  A    between atoms: N_2  and  C_29
REMARK    2  A    between atoms: C_10  and  C_35
REMARK    3  A    between atoms: C_15  and  N_21
REMARK                            x       y       z     vdW  Elec       q    Type
REMARK                         _______ _______ _______ _____ _____    ______ ____
ROOT
ATOM      1  O   UNL     1      34.470 -16.300 -20.048  0.00  0.00    -0.267 OA
ATOM      2  N   UNL     1      33.752 -14.753 -21.609  0.00  0.00    -0.272 N 
ATOM      3  N   UNL     1      33.048 -13.176 -23.265  0.00  0.00    -0.319 NA
ATOM      4  N   UNL     1      32.965 -13.759 -25.585  0.00  0.00    -0.170 NA
ATOM      5  N   UNL     1      32.368 -11.609 -24.872  0.00  0.00    -0.232 N 
ATOM      6  N   UNL     1      32.283 -10.558 -22.735  0.00  0.00    -0.227 NA
ATOM      7  C   UNL     1      33.479 -14.430 -22.966  0.00  0.00    +0.211 A 
ATOM      8  C   UNL     1      34.214 -16.002 -21.217  0.00  0.00    +0.265 A 
ATOM      9  C   UNL     1      33.667 -15.406 -23.937  0.00  0.00    +0.064 A 
ATOM     10  C   UNL     1      34.407 -17.038 -22.289  0.00  0.00    +0.087 A 
ATOM     11  C   UNL     1      34.129 -16.767 -23.582  0.00  0.00    -0.009 A 
ATOM     12  C   UNL     1      33.392 -14.992 -25.239  0.00  0.00    +0.115 C 
ATOM     13  C   UNL     1      34.235 -17.751 -24.724  0.00  0.00    +0.031 C 
ATOM     14  C   UNL     1      32.815 -12.912 -24.561  0.00  0.00    +0.151 C 
ATOM     15  C   UNL     1      31.577  -8.252 -22.573  0.00  0.00    +0.067 C 
ATOM     16  C   UNL     1      32.104 -10.478 -24.077  0.00  0.00    +0.141 C 
ATOM     17  C   UNL     1      31.402  -8.201 -23.952  0.00  0.00    +0.019 C 
ATOM     18  C   UNL     1      32.016  -9.444 -22.019  0.00  0.00    +0.115 C 
ATOM     19  C   UNL     1      31.667  -9.327 -24.723  0.00  0.00    +0.036 C 
ATOM     20  H   UNL     1      32.212 -11.464 -25.833  0.00  0.00    +0.166 HD
ENDROOT
BRANCH  15  21
ATOM     21  N   UNL     1      31.319  -7.134 -21.772  0.00  0.00    -0.311 N 
ATOM     22  N   UNL     1      31.017  -4.760 -20.216  0.00  0.00    +0.386 N 
ATOM     23  C   UNL     1      30.709  -5.939 -22.366  0.00  0.00    +0.067 C 
ATOM     24  C   UNL     1      32.193  -6.896 -20.616  0.00  0.00    +0.067 C 
ATOM     25  C   UNL     1      30.068  -5.071 -21.283  0.00  0.00    -0.060 C 
ATOM     26  C   UNL     1      31.498  -5.994 -19.596  0.00  0.00    -0.060 C 
ATOM     27  H   UNL     1      30.555  -4.187 -19.509  0.00  0.00    -0.084 HD
ATOM     28  H   UNL     1      31.809  -4.254 -20.610  0.00  0.00    -0.084 HD
ENDBRANCH  15  21
BRANCH   2  29
ATOM     29  C   UNL     1      33.545 -13.722 -20.633  0.00  0.00    +0.091 C 
ATOM     30  C   UNL     1      32.073 -13.482 -20.328  0.00  0.00    +0.023 C 
ATOM     31  C   UNL     1      34.036 -12.355 -21.101  0.00  0.00    +0.023 C 
ATOM     32  C   UNL     1      32.088 -12.127 -19.639  0.00  0.00    +0.002 C 
ATOM     33  C   UNL     1      33.178 -11.333 -20.355  0.00  0.00    +0.002 C 
ENDBRANCH   2  29
BRANCH  10  35
ATOM     34  O   UNL     1      34.135 -19.293 -21.701  0.00  0.00    -0.291 OA
ATOM     35  C   UNL     1      34.915 -18.365 -21.884  0.00  0.00    +0.178 C 
ATOM     36  C   UNL     1      36.400 -18.521 -21.721  0.00  0.00    +0.077 C 
ENDBRANCH  10  35
TORSDOF 3
ENDMDL
MODEL 4
REMARK VINA RESULT:      -6.7      6.524     12.283
REMARK  Name = 5330286
REMARK  3 active torsions:
REMARK  status: ('A' for Active; 'I' for Inactive)
REMARK    1  A    between atoms: N_2  and  C_29
REMARK    2  A    between atoms: C_10  and  C_35
REMARK    3  A    between atoms: C_15  and  N_21
REMARK                            x       y       z     vdW  Elec       q    Type
REMARK                         _______ _______ _______ _____ _____    ______ ____
ROOT
ATOM      1  O   UNL     1      31.610  -9.637 -19.785  0.00  0.00    -0.267 OA
ATOM      2  N   UNL     1      32.300 -11.270 -21.268  0.00  0.00    -0.272 N 
ATOM      3  N   UNL     1      32.974 -12.938 -22.845  0.00  0.00    -0.319 NA
ATOM      4  N   UNL     1      33.039 -12.480 -25.194  0.00  0.00    -0.170 NA
ATOM      5  N   UNL     1      33.626 -14.594 -24.373  0.00  0.00    -0.232 N 
ATOM      6  N   UNL     1      33.724 -15.531 -22.185  0.00  0.00    -0.227 NA
ATOM      7  C   UNL     1      32.557 -11.667 -22.610  0.00  0.00    +0.211 A 
ATOM      8  C   UNL     1      31.851  -9.999 -20.939  0.00  0.00    +0.265 A 
ATOM      9  C   UNL     1      32.367 -10.742 -23.629  0.00  0.00    +0.064 A 
ATOM     10  C   UNL     1      31.656  -9.019 -22.063  0.00  0.00    +0.087 A 
ATOM     11  C   UNL     1      31.919  -9.360 -23.342  0.00  0.00    -0.009 A 
ATOM     12  C   UNL     1      32.626 -11.227 -24.910  0.00  0.00    +0.115 C 
ATOM     13  C   UNL     1      31.810  -8.437 -24.534  0.00  0.00    +0.031 C 
ATOM     14  C   UNL     1      33.193 -13.274 -24.127  0.00  0.00    +0.151 C 
ATOM     15  C   UNL     1      34.413 -17.831 -21.907  0.00  0.00    +0.067 C 
ATOM     16  C   UNL     1      33.889 -15.684 -23.522  0.00  0.00    +0.141 C 
ATOM     17  C   UNL     1      34.574 -17.957 -23.283  0.00  0.00    +0.019 C 
ATOM     18  C   UNL     1      33.989 -16.609 -21.413  0.00  0.00    +0.115 C 
ATOM     19  C   UNL     1      34.310 -16.871 -24.110  0.00  0.00    +0.036 C 
ATOM     20  H   UNL     1      33.772 -14.792 -25.327  0.00  0.00    +0.166 HD
ENDROOT
BRANCH  15  21
ATOM     21  N   UNL     1      34.670 -18.908 -21.050  0.00  0.00    -0.311 N 
ATOM     22  N   UNL     1      35.189 -21.253 -19.508  0.00  0.00    +0.386 N 
ATOM     23  C   UNL     1      36.049 -19.370 -20.856  0.00  0.00    +0.067 C 
ATOM     24  C   UNL     1      33.628 -19.931 -20.893  0.00  0.00    +0.067 C 
ATOM     25  C   UNL     1      36.169 -20.170 -19.559  0.00  0.00    -0.060 C 
ATOM     26  C   UNL     1      33.834 -20.710 -19.594  0.00  0.00    -0.060 C 
ATOM     27  H   UNL     1      35.292 -21.761 -18.629  0.00  0.00    -0.084 HD
ATOM     28  H   UNL     1      35.346 -21.884 -20.294  0.00  0.00    -0.084 HD
ENDBRANCH  15  21
BRANCH   2  29
ATOM     29  C   UNL     1      32.508 -12.250 -20.241  0.00  0.00    +0.091 C 
ATOM     30  C   UNL     1      33.733 -13.119 -20.491  0.00  0.00    +0.023 C 
ATOM     31  C   UNL     1      31.370 -13.263 -20.148  0.00  0.00    +0.023 C 
ATOM     32  C   UNL     1      33.508 -14.296 -19.557  0.00  0.00    +0.002 C 
ATOM     33  C   UNL     1      32.000 -14.536 -19.582  0.00  0.00    +0.002 C 
ENDBRANCH   2  29
BRANCH  10  35
ATOM     34  O   UNL     1      30.077  -7.285 -22.148  0.00  0.00    -0.291 OA
ATOM     35  C   UNL     1      31.163  -7.669 -21.724  0.00  0.00    +0.178 C 
ATOM     36  C   UNL     1      32.029  -6.810 -20.848  0.00  0.00    +0.077 C 
ENDBRANCH  10  35
TORSDOF 3
ENDMDL
MODEL 5
REMARK VINA RESULT:      -6.5      0.932      1.288
REMARK  Name = 5330286
REMARK  3 active torsions:
REMARK  status: ('A' for Active; 'I' for Inactive)
REMARK    1  A    between atoms: N_2  and  C_29
REMARK    2  A    between atoms: C_10  and  C_35
REMARK    3  A    between atoms: C_15  and  N_21
REMARK                            x       y       z     vdW  Elec       q    Type
REMARK                         _______ _______ _______ _____ _____    ______ ____
ROOT
ATOM      1  O   UNL     1      37.881 -23.233 -13.699  0.00  0.00    -0.267 OA
ATOM      2  N   UNL     1      35.974 -22.794 -14.930  0.00  0.00    -0.272 N 
ATOM      3  N   UNL     1      33.978 -22.393 -16.187  0.00  0.00    -0.319 NA
ATOM      4  N   UNL     1      31.853 -23.208 -15.445  0.00  0.00    -0.170 NA
ATOM      5  N   UNL     1      32.037 -22.000 -17.444  0.00  0.00    -0.232 N 
ATOM      6  N   UNL     1      33.872 -21.001 -18.589  0.00  0.00    -0.227 NA
ATOM      7  C   UNL     1      34.568 -22.934 -15.089  0.00  0.00    +0.211 A 
ATOM      8  C   UNL     1      36.661 -23.331 -13.850  0.00  0.00    +0.265 A 
ATOM      9  C   UNL     1      33.851 -23.622 -14.118  0.00  0.00    +0.064 A 
ATOM     10  C   UNL     1      35.858 -24.070 -12.816  0.00  0.00    +0.087 A 
ATOM     11  C   UNL     1      34.519 -24.194 -12.927  0.00  0.00    -0.009 A 
ATOM     12  C   UNL     1      32.483 -23.725 -14.369  0.00  0.00    +0.115 C 
ATOM     13  C   UNL     1      33.615 -24.866 -11.918  0.00  0.00    +0.031 C 
ATOM     14  C   UNL     1      32.651 -22.561 -16.303  0.00  0.00    +0.151 C 
ATOM     15  C   UNL     1      33.482 -19.848 -20.677  0.00  0.00    +0.067 C 
ATOM     16  C   UNL     1      32.544 -21.270 -18.535  0.00  0.00    +0.141 C 
ATOM     17  C   UNL     1      32.125 -20.138 -20.594  0.00  0.00    +0.019 C 
ATOM     18  C   UNL     1      34.306 -20.298 -19.659  0.00  0.00    +0.115 C 
ATOM     19  C   UNL     1      31.640 -20.860 -19.509  0.00  0.00    +0.036 C 
ATOM     20  H   UNL     1      31.065 -22.150 -17.484  0.00  0.00    +0.166 HD
ENDROOT
BRANCH  15  21
ATOM     21  N   UNL     1      33.999 -19.124 -21.758  0.00  0.00    -0.311 N 
ATOM     22  N   UNL     1      34.851 -17.493 -23.941  0.00  0.00    +0.386 N 
ATOM     23  C   UNL     1      34.820 -17.933 -21.510  0.00  0.00    +0.067 C 
ATOM     24  C   UNL     1      33.240 -19.122 -23.016  0.00  0.00    +0.067 C 
ATOM     25  C   UNL     1      35.671 -17.604 -22.736  0.00  0.00    -0.060 C 
ATOM     26  C   UNL     1      34.148 -18.751 -24.189  0.00  0.00    -0.060 C 
ATOM     27  H   UNL     1      35.449 -17.279 -24.739  0.00  0.00    -0.084 HD
ATOM     28  H   UNL     1      34.166 -16.748 -23.811  0.00  0.00    -0.084 HD
ENDBRANCH  15  21
BRANCH   2  29
ATOM     29  C   UNL     1      36.683 -22.075 -15.950  0.00  0.00    +0.091 C 
ATOM     30  C   UNL     1      36.814 -20.590 -15.646  0.00  0.00    +0.023 C 
ATOM     31  C   UNL     1      35.967 -22.098 -17.298  0.00  0.00    +0.023 C 
ATOM     32  C   UNL     1      37.189 -20.001 -16.996  0.00  0.00    +0.002 C 
ATOM     33  C   UNL     1      36.404 -20.821 -18.016  0.00  0.00    +0.002 C 
ENDBRANCH   2  29
BRANCH  10  35
ATOM     34  O   UNL     1      37.049 -25.792 -11.756  0.00  0.00    -0.291 OA
ATOM     35  C   UNL     1      36.582 -24.661 -11.672  0.00  0.00    +0.178 C 
ATOM     36  C   UNL     1      36.724 -23.826 -10.432  0.00  0.00    +0.077 C 
ENDBRANCH  10  35
TORSDOF 3
ENDMDL
MODEL 6
REMARK VINA RESULT:      -6.0      9.948     15.792
REMARK  Name = 5330286
REMARK  3 active torsions:
REMARK  status: ('A' for Active; 'I' for Inactive)
REMARK    1  A    between atoms: N_2  and  C_29
REMARK    2  A    between atoms: C_10  and  C_35
REMARK    3  A    between atoms: C_15  and  N_21
REMARK                            x       y       z     vdW  Elec       q    Type
REMARK                         _______ _______ _______ _____ _____    ______ ____
ROOT
ATOM      1  O   UNL     1      31.239  -5.223 -20.186  0.00  0.00    -0.267 OA
ATOM      2  N   UNL     1      31.517  -6.843 -21.812  0.00  0.00    -0.272 N 
ATOM      3  N   UNL     1      31.757  -8.496 -23.525  0.00  0.00    -0.319 NA
ATOM      4  N   UNL     1      31.272  -7.996 -25.816  0.00  0.00    -0.170 NA
ATOM      5  N   UNL     1      31.987 -10.136 -25.186  0.00  0.00    -0.232 N 
ATOM      6  N   UNL     1      32.580 -11.115 -23.096  0.00  0.00    -0.227 NA
ATOM      7  C   UNL     1      31.438  -7.220 -23.181  0.00  0.00    +0.211 A 
ATOM      8  C   UNL     1      31.190  -5.569 -21.369  0.00  0.00    +0.265 A 
ATOM      9  C   UNL     1      31.034  -6.274 -24.114  0.00  0.00    +0.064 A 
ATOM     10  C   UNL     1      30.757  -4.566 -22.402  0.00  0.00    +0.087 A 
ATOM     11  C   UNL     1      30.700  -4.889 -23.711  0.00  0.00    -0.009 A 
ATOM     12  C   UNL     1      30.969  -6.740 -25.425  0.00  0.00    +0.115 C 
ATOM     13  C   UNL     1      30.332  -3.942 -24.831  0.00  0.00    +0.031 C 
ATOM     14  C   UNL     1      31.656  -8.812 -24.827  0.00  0.00    +0.151 C 
ATOM     15  C   UNL     1      33.261 -13.433 -23.020  0.00  0.00    +0.067 C 
ATOM     16  C   UNL     1      32.419 -11.246 -24.436  0.00  0.00    +0.141 C 
ATOM     17  C   UNL     1      33.087 -13.537 -24.396  0.00  0.00    +0.019 C 
ATOM     18  C   UNL     1      32.996 -12.211 -22.423  0.00  0.00    +0.115 C 
ATOM     19  C   UNL     1      32.660 -12.431 -25.122  0.00  0.00    +0.036 C 
ATOM     20  H   UNL     1      31.897 -10.319 -26.149  0.00  0.00    +0.166 HD
ENDROOT
BRANCH  15  21
ATOM     21  N   UNL     1      33.688 -14.529 -22.262  0.00  0.00    -0.311 N 
ATOM     22  N   UNL     1      34.799 -16.673 -20.738  0.00  0.00    +0.386 N 
ATOM     23  C   UNL     1      33.860 -14.388 -20.812  0.00  0.00    +0.067 C 
ATOM     24  C   UNL     1      34.553 -15.523 -22.912  0.00  0.00    +0.067 C 
ATOM     25  C   UNL     1      33.832 -15.758 -20.133  0.00  0.00    -0.060 C 
ATOM     26  C   UNL     1      34.500 -16.853 -22.158  0.00  0.00    -0.060 C 
ATOM     27  H   UNL     1      34.749 -17.576 -20.268  0.00  0.00    -0.084 HD
ATOM     28  H   UNL     1      35.735 -16.281 -20.641  0.00  0.00    -0.084 HD
ENDBRANCH  15  21
BRANCH   2  29
ATOM     29  C   UNL     1      31.940  -7.845 -20.877  0.00  0.00    +0.091 C 
ATOM     30  C   UNL     1      30.992  -9.033 -20.811  0.00  0.00    +0.023 C 
ATOM     31  C   UNL     1      31.972  -7.338 -19.438  0.00  0.00    +0.023 C 
ATOM     32  C   UNL     1      31.392  -9.714 -19.512  0.00  0.00    +0.002 C 
ATOM     33  C   UNL     1      31.749  -8.573 -18.563  0.00  0.00    +0.002 C 
ENDBRANCH   2  29
BRANCH  10  35
ATOM     34  O   UNL     1      29.307  -3.018 -21.396  0.00  0.00    -0.291 OA
ATOM     35  C   UNL     1      30.390  -3.212 -21.938  0.00  0.00    +0.178 C 
ATOM     36  C   UNL     1      31.388  -2.110 -22.149  0.00  0.00    +0.077 C 
ENDBRANCH  10  35
TORSDOF 3
ENDMDL
MODEL 7
REMARK VINA RESULT:      -5.9      2.767      8.677
REMARK  Name = 5330286
REMARK  3 active torsions:
REMARK  status: ('A' for Active; 'I' for Inactive)
REMARK    1  A    between atoms: N_2  and  C_29
REMARK    2  A    between atoms: C_10  and  C_35
REMARK    3  A    between atoms: C_15  and  N_21
REMARK                            x       y       z     vdW  Elec       q    Type
REMARK                         _______ _______ _______ _____ _____    ______ ____
ROOT
ATOM      1  O   UNL     1      37.022 -18.908 -20.992  0.00  0.00    -0.267 OA
ATOM      2  N   UNL     1      35.535 -20.116 -19.699  0.00  0.00    -0.272 N 
ATOM      3  N   UNL     1      33.952 -21.326 -18.374  0.00  0.00    -0.319 NA
ATOM      4  N   UNL     1      31.637 -21.422 -18.976  0.00  0.00    -0.170 NA
ATOM      5  N   UNL     1      32.415 -22.507 -17.052  0.00  0.00    -0.232 N 
ATOM      6  N   UNL     1      34.565 -22.709 -16.043  0.00  0.00    -0.227 NA
ATOM      7  C   UNL     1      34.204 -20.562 -19.470  0.00  0.00    +0.211 A 
ATOM      8  C   UNL     1      35.878 -19.317 -20.780  0.00  0.00    +0.265 A 
ATOM      9  C   UNL     1      33.211 -20.197 -20.370  0.00  0.00    +0.064 A 
ATOM     10  C   UNL     1      34.782 -18.938 -21.738  0.00  0.00    +0.087 A 
ATOM     11  C   UNL     1      33.517 -19.370 -21.560  0.00  0.00    -0.009 A 
ATOM     12  C   UNL     1      31.937 -20.664 -20.052  0.00  0.00    +0.115 C 
ATOM     13  C   UNL     1      32.358 -19.094 -22.491  0.00  0.00    +0.031 C 
ATOM     14  C   UNL     1      32.679 -21.714 -18.190  0.00  0.00    +0.151 C 
ATOM     15  C   UNL     1      34.803 -23.980 -14.001  0.00  0.00    +0.067 C 
ATOM     16  C   UNL     1      33.240 -22.999 -16.023  0.00  0.00    +0.141 C 
ATOM     17  C   UNL     1      33.442 -24.261 -14.008  0.00  0.00    +0.019 C 
ATOM     18  C   UNL     1      35.311 -23.205 -15.032  0.00  0.00    +0.115 C 
ATOM     19  C   UNL     1      32.641 -23.768 -15.032  0.00  0.00    +0.036 C 
ATOM     20  H   UNL     1      31.470 -22.765 -16.960  0.00  0.00    +0.166 HD
ENDROOT
BRANCH  15  21
ATOM     21  N   UNL     1      35.634 -24.462 -12.983  0.00  0.00    -0.311 N 
ATOM     22  N   UNL     1      37.147 -25.619 -10.856  0.00  0.00    +0.386 N 
ATOM     23  C   UNL     1      36.516 -25.606 -13.245  0.00  0.00    +0.067 C 
ATOM     24  C   UNL     1      35.185 -24.310 -11.593  0.00  0.00    +0.067 C 
ATOM     25  C   UNL     1      37.655 -25.649 -12.227  0.00  0.00    -0.060 C 
ATOM     26  C   UNL     1      36.372 -24.399 -10.634  0.00  0.00    -0.060 C 
ATOM     27  H   UNL     1      37.931 -25.642 -10.204  0.00  0.00    -0.084 HD
ATOM     28  H   UNL     1      36.546 -26.428 -10.705  0.00  0.00    -0.084 HD
ENDBRANCH  15  21
BRANCH   2  29
ATOM     29  C   UNL     1      36.534 -20.515 -18.750  0.00  0.00    +0.091 C 
ATOM     30  C   UNL     1      36.113 -21.714 -17.913  0.00  0.00    +0.023 C 
ATOM     31  C   UNL     1      36.823 -19.440 -17.706  0.00  0.00    +0.023 C 
ATOM     32  C   UNL     1      37.092 -21.677 -16.752  0.00  0.00    +0.002 C 
ATOM     33  C   UNL     1      37.307 -20.192 -16.466  0.00  0.00    +0.002 C 
ENDBRANCH   2  29
BRANCH  10  35
ATOM     34  O   UNL     1      35.467 -18.571 -23.953  0.00  0.00    -0.291 OA
ATOM     35  C   UNL     1      35.134 -18.072 -22.882  0.00  0.00    +0.178 C 
ATOM     36  C   UNL     1      35.058 -16.586 -22.681  0.00  0.00    +0.077 C 
ENDBRANCH  10  35
TORSDOF 3
ENDMDL
MODEL 8
REMARK VINA RESULT:      -5.6      3.924      6.304
REMARK  Name = 5330286
REMARK  3 active torsions:
REMARK  status: ('A' for Active; 'I' for Inactive)
REMARK    1  A    between atoms: N_2  and  C_29
REMARK    2  A    between atoms: C_10  and  C_35
REMARK    3  A    between atoms: C_15  and  N_21
REMARK                            x       y       z     vdW  Elec       q    Type
REMARK                         _______ _______ _______ _____ _____    ______ ____
ROOT
ATOM      1  O   UNL     1      37.555 -22.412 -16.504  0.00  0.00    -0.267 OA
ATOM      2  N   UNL     1      35.715 -23.047 -15.257  0.00  0.00    -0.272 N 
ATOM      3  N   UNL     1      33.840 -23.755 -13.951  0.00  0.00    -0.319 NA
ATOM      4  N   UNL     1      34.129 -25.010 -11.933  0.00  0.00    -0.170 NA
ATOM      5  N   UNL     1      31.986 -24.451 -12.694  0.00  0.00    -0.232 N 
ATOM      6  N   UNL     1      31.183 -23.251 -14.590  0.00  0.00    -0.227 NA
ATOM      7  C   UNL     1      35.188 -23.711 -14.115  0.00  0.00    +0.211 A 
ATOM      8  C   UNL     1      37.077 -22.971 -15.514  0.00  0.00    +0.265 A 
ATOM      9  C   UNL     1      36.070 -24.293 -13.214  0.00  0.00    +0.064 A 
ATOM     10  C   UNL     1      38.007 -23.610 -14.520  0.00  0.00    +0.087 A 
ATOM     11  C   UNL     1      37.535 -24.222 -13.414  0.00  0.00    -0.009 A 
ATOM     12  C   UNL     1      35.461 -24.936 -12.137  0.00  0.00    +0.115 C 
ATOM     13  C   UNL     1      38.384 -24.844 -12.329  0.00  0.00    +0.031 C 
ATOM     14  C   UNL     1      33.386 -24.404 -12.865  0.00  0.00    +0.151 C 
ATOM     15  C   UNL     1      28.802 -22.967 -14.895  0.00  0.00    +0.067 C 
ATOM     16  C   UNL     1      30.916 -23.940 -13.453  0.00  0.00    +0.141 C 
ATOM     17  C   UNL     1      28.560 -23.677 -13.724  0.00  0.00    +0.019 C 
ATOM     18  C   UNL     1      30.120 -22.784 -15.281  0.00  0.00    +0.115 C 
ATOM     19  C   UNL     1      29.628 -24.174 -12.986  0.00  0.00    +0.036 C 
ATOM     20  H   UNL     1      31.703 -24.936 -11.886  0.00  0.00    +0.166 HD
ENDROOT
BRANCH  15  21
ATOM     21  N   UNL     1      27.747 -22.455 -15.659  0.00  0.00    -0.311 N 
ATOM     22  N   UNL     1      25.724 -21.190 -17.226  0.00  0.00    +0.386 N 
ATOM     23  C   UNL     1      27.843 -22.456 -17.123  0.00  0.00    +0.067 C 
ATOM     24  C   UNL     1      26.926 -21.387 -15.076  0.00  0.00    +0.067 C 
ATOM     25  C   UNL     1      26.454 -22.342 -17.751  0.00  0.00    -0.060 C 
ATOM     26  C   UNL     1      25.569 -21.311 -15.777  0.00  0.00    -0.060 C 
ATOM     27  H   UNL     1      24.802 -21.147 -17.660  0.00  0.00    -0.084 HD
ATOM     28  H   UNL     1      26.246 -20.339 -17.436  0.00  0.00    -0.084 HD
ENDBRANCH  15  21
BRANCH   2  29
ATOM     29  C   UNL     1      34.775 -22.455 -16.166  0.00  0.00    +0.091 C 
ATOM     30  C   UNL     1      33.933 -23.486 -16.903  0.00  0.00    +0.023 C 
ATOM     31  C   UNL     1      35.449 -21.679 -17.293  0.00  0.00    +0.023 C 
ATOM     32  C   UNL     1      33.356 -22.687 -18.059  0.00  0.00    +0.002 C 
ATOM     33  C   UNL     1      34.468 -21.723 -18.465  0.00  0.00    +0.002 C 
ENDBRANCH   2  29
BRANCH  10  35
ATOM     34  O   UNL     1      40.031 -22.466 -14.844  0.00  0.00    -0.291 OA
ATOM     35  C   UNL     1      39.457 -23.550 -14.794  0.00  0.00    +0.178 C 
ATOM     36  C   UNL     1      40.182 -24.849 -14.995  0.00  0.00    +0.077 C 
ENDBRANCH  10  35
TORSDOF 3
ENDMDL
MODEL 9
REMARK VINA RESULT:      -5.0      1.874      3.696
REMARK  Name = 5330286
REMARK  3 active torsions:
REMARK  status: ('A' for Active; 'I' for Inactive)
REMARK    1  A    between atoms: N_2  and  C_29
REMARK    2  A    between atoms: C_10  and  C_35
REMARK    3  A    between atoms: C_15  and  N_21
REMARK                            x       y       z     vdW  Elec       q    Type
REMARK                         _______ _______ _______ _____ _____    ______ ____
ROOT
ATOM      1  O   UNL     1      32.896 -24.231 -15.635  0.00  0.00    -0.267 OA
ATOM      2  N   UNL     1      34.199 -22.660 -16.721  0.00  0.00    -0.272 N 
ATOM      3  N   UNL     1      35.567 -21.013 -17.789  0.00  0.00    -0.319 NA
ATOM      4  N   UNL     1      37.661 -20.331 -16.850  0.00  0.00    -0.170 NA
ATOM      5  N   UNL     1      36.885 -19.387 -18.848  0.00  0.00    -0.232 N 
ATOM      6  N   UNL     1      34.921 -19.713 -20.159  0.00  0.00    -0.227 NA
ATOM      7  C   UNL     1      35.388 -21.879 -16.758  0.00  0.00    +0.211 A 
ATOM      8  C   UNL     1      33.925 -23.553 -15.695  0.00  0.00    +0.265 A 
ATOM      9  C   UNL     1      36.317 -22.027 -15.736  0.00  0.00    +0.064 A 
ATOM     10  C   UNL     1      34.950 -23.692 -14.604  0.00  0.00    +0.087 A 
ATOM     11  C   UNL     1      36.099 -22.985 -14.628  0.00  0.00    -0.009 A 
ATOM     12  C   UNL     1      37.439 -21.208 -15.848  0.00  0.00    +0.115 C 
ATOM     13  C   UNL     1      37.215 -23.091 -13.614  0.00  0.00    +0.031 C 
ATOM     14  C   UNL     1      36.697 -20.287 -17.777  0.00  0.00    +0.151 C 
ATOM     15  C   UNL     1      34.621 -18.432 -22.186  0.00  0.00    +0.067 C 
ATOM     16  C   UNL     1      36.104 -19.074 -19.977  0.00  0.00    +0.141 C 
ATOM     17  C   UNL     1      35.838 -17.794 -21.973  0.00  0.00    +0.019 C 
ATOM     18  C   UNL     1      34.211 -19.375 -21.257  0.00  0.00    +0.115 C 
ATOM     19  C   UNL     1      36.597 -18.115 -20.854  0.00  0.00    +0.036 C 
ATOM     20  H   UNL     1      37.726 -18.878 -18.794  0.00  0.00    +0.166 HD
ENDROOT
BRANCH  15  21
ATOM     21  N   UNL     1      33.834 -18.129 -23.304  0.00  0.00    -0.311 N 
ATOM     22  N   UNL     1      32.032 -17.485 -25.422  0.00  0.00    +0.386 N 
ATOM     23  C   UNL     1      33.608 -16.728 -23.676  0.00  0.00    +0.067 C 
ATOM     24  C   UNL     1      32.763 -19.066 -23.669  0.00  0.00    +0.067 C 
ATOM     25  C   UNL     1      33.180 -16.625 -25.140  0.00  0.00    -0.060 C 
ATOM     26  C   UNL     1      32.365 -18.879 -25.134  0.00  0.00    -0.060 C 
ATOM     27  H   UNL     1      31.778 -17.397 -26.406  0.00  0.00    -0.084 HD
ATOM     28  H   UNL     1      31.249 -17.201 -24.834  0.00  0.00    -0.084 HD
ENDBRANCH  15  21
BRANCH   2  29
ATOM     29  C   UNL     1      33.263 -22.483 -17.793  0.00  0.00    +0.091 C 
ATOM     30  C   UNL     1      33.937 -22.210 -19.130  0.00  0.00    +0.023 C 
ATOM     31  C   UNL     1      32.360 -21.268 -17.598  0.00  0.00    +0.023 C 
ATOM     32  C   UNL     1      32.802 -21.653 -19.973  0.00  0.00    +0.002 C 
ATOM     33  C   UNL     1      31.963 -20.822 -19.006  0.00  0.00    +0.002 C 
ENDBRANCH   2  29
BRANCH  10  35
ATOM     34  O   UNL     1      35.119 -25.765 -13.516  0.00  0.00    -0.291 OA
ATOM     35  C   UNL     1      34.659 -24.628 -13.498  0.00  0.00    +0.178 C 
ATOM     36  C   UNL     1      33.801 -24.129 -12.371  0.00  0.00    +0.077 C 
ENDBRANCH  10  35
TORSDOF 3
ENDMDL
