MODEL 1
REMARK VINA RESULT:     -13.6      0.000      0.000
REMARK  Name = 446560
REMARK  8 active torsions:
REMARK  status: ('A' for Active; 'I' for Inactive)
REMARK    1  A    between atoms: C_1  and  C_19
REMARK    2  A    between atoms: C_2  and  C_9
REMARK    3  A    between atoms: N_8  and  CA_11
REMARK    4  A    between atoms: CA_11  and  CB_12
REMARK    5  A    between atoms: CA_11  and  C_16
REMARK    6  A    between atoms: C_16  and  O_17
REMARK    7  A    between atoms: C_19  and  C_20
REMARK    8  A    between atoms: C_20  and  C_26
REMARK                            x       y       z     vdW  Elec       q    Type
REMARK                         _______ _______ _______ _____ _____    ______ ____
ROOT
ATOM      1  C   UNL     1      34.439 -19.798 -20.562  0.00  0.00    -0.022 C 
ATOM      2  C   UNL     1      33.277 -21.538 -18.763  0.00  0.00    +0.053 C 
ATOM      3  C   UNL     1      33.053 -19.811 -20.400  0.00  0.00    -0.004 C 
ATOM      4  C   UNL     1      35.237 -20.665 -19.815  0.00  0.00    -0.004 C 
ATOM      5  C   UNL     1      32.466 -20.690 -19.490  0.00  0.00    +0.004 C 
ATOM      6  C   UNL     1      34.649 -21.544 -18.906  0.00  0.00    +0.004 C 
ENDROOT
BRANCH   2   9
ATOM      7  O   UNL     1      33.173 -23.568 -17.597  0.00  0.00    -0.270 OA
ATOM      8  N   UNL     1      31.513 -22.010 -17.154  0.00  0.00    -0.293 N 
ATOM      9  C   ACE A   0      32.653 -22.473 -17.793  0.00  0.00    +0.246 C 
ATOM     10  H   UNL     1      31.174 -21.115 -17.382  0.00  0.00    +0.150 HD
BRANCH   8  11
ATOM     11  CA  UNL     1      30.807 -22.794 -16.167  0.00  0.00    +0.171 C 
BRANCH  11  12
ATOM     12  CB  UNL     1      31.263 -22.397 -14.746  0.00  0.00    +0.029 C 
ATOM     13  CG1 UNL     1      32.646 -22.962 -14.403  0.00  0.00    +0.002 C 
ATOM     14  CG2 UNL     1      30.252 -22.775 -13.659  0.00  0.00    +0.002 C 
ENDBRANCH  11  12
BRANCH  11  16
ATOM     15  OXT UNL     1      28.700 -21.672 -16.616  0.00  0.00    -0.248 OA
ATOM     16  C   UNL     1      29.299 -22.716 -16.389  0.00  0.00    +0.332 C 
BRANCH  16  17
ATOM     17  O   UNL     1      28.649 -23.900 -16.265  0.00  0.00    -0.479 OA
ATOM     18  H   UNL     1      28.274 -24.143 -15.441  0.00  0.00    +0.295 HD
ENDBRANCH  16  17
ENDBRANCH  11  16
ENDBRANCH   8  11
ENDBRANCH   2   9
BRANCH   1  19
ATOM     19  C   UNL     1      35.066 -18.858 -21.535  0.00  0.00    +0.031 C 
BRANCH  19  20
ATOM     20  C   UNL     1      34.845 -17.367 -21.206  0.00  0.00    +0.033 C 
BRANCH  20  26
ATOM     21  O   UNL     1      34.111 -14.455 -20.164  0.00  0.00    -0.209 OA
ATOM     22  N   UNL     1      33.994 -15.960 -24.485  0.00  0.00    -0.300 N 
ATOM     23  N   UNL     1      33.367 -13.670 -24.069  0.00  0.00    -0.264 N 
ATOM     24  N   UNL     1      33.451 -12.948 -21.786  0.00  0.00    -0.302 NA
ATOM     25  N   UNL     1      32.792 -11.501 -23.526  0.00  0.00    -0.320 N 
ATOM     26  C   UNL     1      34.443 -16.546 -22.397  0.00  0.00    +0.007 C 
ATOM     27  C   UNL     1      34.045 -15.204 -22.381  0.00  0.00    +0.120 C 
ATOM     28  C   UNL     1      33.779 -14.885 -23.685  0.00  0.00    +0.115 C 
ATOM     29  C   UNL     1      34.410 -17.003 -23.687  0.00  0.00    +0.059 C 
ATOM     30  C   UNL     1      33.882 -14.200 -21.341  0.00  0.00    +0.209 C 
ATOM     31  C   UNL     1      33.216 -12.721 -23.063  0.00  0.00    +0.248 C 
ATOM     32  H   UNL     1      33.874 -15.990 -25.463  0.00  0.00    +0.153 HD
ATOM     33  H   UNL     1      33.180 -13.460 -25.012  0.00  0.00    +0.157 HD
ATOM     34  H   UNL     1      32.627 -11.368 -24.487  0.00  0.00    +0.146 HD
ATOM     35  H   UNL     1      32.655 -10.757 -22.896  0.00  0.00    +0.146 HD
ENDBRANCH  20  26
ENDBRANCH  19  20
ENDBRANCH   1  19
TORSDOF 8
ENDMDL
MODEL 2
REMARK VINA RESULT:     -13.5      1.538      2.238
REMARK  Name = 446560
REMARK  8 active torsions:
REMARK  status: ('A' for Active; 'I' for Inactive)
REMARK    1  A    between atoms: C_1  and  C_19
REMARK    2  A    between atoms: C_2  and  C_9
REMARK    3  A    between atoms: N_8  and  CA_11
REMARK    4  A    between atoms: CA_11  and  CB_12
REMARK    5  A    between atoms: CA_11  and  C_16
REMARK    6  A    between atoms: C_16  and  O_17
REMARK    7  A    between atoms: C_19  and  C_20
REMARK    8  A    between atoms: C_20  and  C_26
REMARK                            x       y       z     vdW  Elec       q    Type
REMARK                         _______ _______ _______ _____ _____    ______ ____
ROOT
ATOM      1  C   UNL     1      34.929 -19.474 -20.742  0.00  0.00    -0.022 C 
ATOM      2  C   UNL     1      34.102 -21.445 -18.997  0.00  0.00    +0.053 C 
ATOM      3  C   UNL     1      35.870 -20.197 -20.009  0.00  0.00    -0.004 C 
ATOM      4  C   UNL     1      33.569 -19.747 -20.592  0.00  0.00    -0.004 C 
ATOM      5  C   UNL     1      35.453 -21.194 -19.128  0.00  0.00    +0.004 C 
ATOM      6  C   UNL     1      33.151 -20.744 -19.710  0.00  0.00    +0.004 C 
ENDROOT
BRANCH   2   9
ATOM      7  O   UNL     1      33.051 -23.481 -18.501  0.00  0.00    -0.270 OA
ATOM      8  N   UNL     1      33.988 -22.316 -16.728  0.00  0.00    -0.293 N 
ATOM      9  C   ACE A   0      33.656 -22.507 -18.060  0.00  0.00    +0.246 C 
ATOM     10  H   UNL     1      34.475 -21.499 -16.474  0.00  0.00    +0.150 HD
BRANCH   8  11
ATOM     11  CA  UNL     1      33.646 -23.272 -15.700  0.00  0.00    +0.171 C 
BRANCH  11  12
ATOM     12  CB  UNL     1      34.823 -23.440 -14.715  0.00  0.00    +0.029 C 
ATOM     13  CG1 UNL     1      35.956 -22.446 -14.992  0.00  0.00    +0.002 C 
ATOM     14  CG2 UNL     1      35.373 -24.869 -14.669  0.00  0.00    +0.002 C 
ENDBRANCH  11  12
BRANCH  11  16
ATOM     15  OXT UNL     1      31.230 -23.046 -15.583  0.00  0.00    -0.248 OA
ATOM     16  C   UNL     1      32.319 -22.908 -15.039  0.00  0.00    +0.332 C 
BRANCH  16  17
ATOM     17  O   UNL     1      32.436 -22.361 -13.803  0.00  0.00    -0.479 OA
ATOM     18  H   UNL     1      32.367 -22.905 -13.043  0.00  0.00    +0.295 HD
ENDBRANCH  16  17
ENDBRANCH  11  16
ENDBRANCH   8  11
ENDBRANCH   2   9
BRANCH   1  19
ATOM     19  C   UNL     1      35.377 -18.409 -21.684  0.00  0.00    +0.031 C 
BRANCH  19  20
ATOM     20  C   UNL     1      34.907 -16.990 -21.302  0.00  0.00    +0.033 C 
BRANCH  20  26
ATOM     21  O   UNL     1      34.123 -14.100 -20.233  0.00  0.00    -0.209 OA
ATOM     22  N   UNL     1      33.784 -15.649 -24.527  0.00  0.00    -0.300 N 
ATOM     23  N   UNL     1      33.091 -13.383 -24.085  0.00  0.00    -0.264 N 
ATOM     24  N   UNL     1      33.296 -12.637 -21.818  0.00  0.00    -0.302 NA
ATOM     25  N   UNL     1      32.464 -11.234 -23.520  0.00  0.00    -0.320 N 
ATOM     26  C   UNL     1      34.394 -16.197 -22.470  0.00  0.00    +0.007 C 
ATOM     27  C   UNL     1      33.943 -14.873 -22.436  0.00  0.00    +0.120 C 
ATOM     28  C   UNL     1      33.578 -14.577 -23.722  0.00  0.00    +0.115 C 
ATOM     29  C   UNL     1      34.295 -16.667 -23.752  0.00  0.00    +0.059 C 
ATOM     30  C   UNL     1      33.807 -13.867 -21.394  0.00  0.00    +0.209 C 
ATOM     31  C   UNL     1      32.968 -12.432 -23.078  0.00  0.00    +0.248 C 
ATOM     32  H   UNL     1      33.601 -15.693 -25.494  0.00  0.00    +0.153 HD
ATOM     33  H   UNL     1      32.834 -13.189 -25.015  0.00  0.00    +0.157 HD
ATOM     34  H   UNL     1      32.231 -11.118 -24.468  0.00  0.00    +0.146 HD
ATOM     35  H   UNL     1      32.338 -10.491 -22.886  0.00  0.00    +0.146 HD
ENDBRANCH  20  26
ENDBRANCH  19  20
ENDBRANCH   1  19
TORSDOF 8
ENDMDL
MODEL 3
REMARK VINA RESULT:     -13.3      1.538      2.059
REMARK  Name = 446560
REMARK  8 active torsions:
REMARK  status: ('A' for Active; 'I' for Inactive)
REMARK    1  A    between atoms: C_1  and  C_19
REMARK    2  A    between atoms: C_2  and  C_9
REMARK    3  A    between atoms: N_8  and  CA_11
REMARK    4  A    between atoms: CA_11  and  CB_12
REMARK    5  A    between atoms: CA_11  and  C_16
REMARK    6  A    between atoms: C_16  and  O_17
REMARK    7  A    between atoms: C_19  and  C_20
REMARK    8  A    between atoms: C_20  and  C_26
REMARK                            x       y       z     vdW  Elec       q    Type
REMARK                         _______ _______ _______ _____ _____    ______ ____
ROOT
ATOM      1  C   UNL     1      34.924 -19.838 -20.251  0.00  0.00    -0.022 C 
ATOM      2  C   UNL     1      33.625 -21.735 -18.725  0.00  0.00    +0.053 C 
ATOM      3  C   UNL     1      33.534 -19.944 -20.304  0.00  0.00    -0.004 C 
ATOM      4  C   UNL     1      35.657 -20.692 -19.426  0.00  0.00    -0.004 C 
ATOM      5  C   UNL     1      32.877 -20.902 -19.533  0.00  0.00    +0.004 C 
ATOM      6  C   UNL     1      35.000 -21.651 -18.655  0.00  0.00    +0.004 C 
ENDROOT
BRANCH   2   9
ATOM      7  O   UNL     1      33.104 -23.945 -18.145  0.00  0.00    -0.270 OA
ATOM      8  N   UNL     1      32.124 -22.264 -16.884  0.00  0.00    -0.293 N 
ATOM      9  C   ACE A   0      32.926 -22.754 -17.902  0.00  0.00    +0.246 C 
ATOM     10  H   UNL     1      32.046 -21.289 -16.771  0.00  0.00    +0.150 HD
BRANCH   8  11
ATOM     11  CA  UNL     1      31.399 -23.131 -15.983  0.00  0.00    +0.171 C 
BRANCH  11  12
ATOM     12  CB  UNL     1      31.985 -23.028 -14.558  0.00  0.00    +0.029 C 
ATOM     13  CG1 UNL     1      33.497 -22.779 -14.570  0.00  0.00    +0.002 C 
ATOM     14  CG2 UNL     1      31.654 -24.239 -13.680  0.00  0.00    +0.002 C 
ENDBRANCH  11  12
BRANCH  11  16
ATOM     15  OXT UNL     1      29.061 -23.524 -15.459  0.00  0.00    -0.248 OA
ATOM     16  C   UNL     1      29.898 -22.870 -16.068  0.00  0.00    +0.332 C 
BRANCH  16  17
ATOM     17  O   UNL     1      29.545 -21.876 -16.921  0.00  0.00    -0.479 OA
ATOM     18  H   UNL     1      29.373 -21.016 -16.591  0.00  0.00    +0.295 HD
ENDBRANCH  16  17
ENDBRANCH  11  16
ENDBRANCH   8  11
ENDBRANCH   2   9
BRANCH   1  19
ATOM     19  C   UNL     1      35.626 -18.814 -21.076  0.00  0.00    +0.031 C 
BRANCH  19  20
ATOM     20  C   UNL     1      34.819 -18.328 -22.298  0.00  0.00    +0.033 C 
BRANCH  20  26
ATOM     21  O   UNL     1      33.782 -17.469 -25.178  0.00  0.00    -0.209 OA
ATOM     22  N   UNL     1      34.159 -14.816 -21.467  0.00  0.00    -0.300 N 
ATOM     23  N   UNL     1      33.325 -13.813 -23.494  0.00  0.00    -0.264 N 
ATOM     24  N   UNL     1      33.152 -15.257 -25.397  0.00  0.00    -0.302 NA
ATOM     25  N   UNL     1      32.540 -12.984 -25.501  0.00  0.00    -0.320 N 
ATOM     26  C   UNL     1      34.464 -16.870 -22.238  0.00  0.00    +0.007 C 
ATOM     27  C   UNL     1      33.966 -16.095 -23.291  0.00  0.00    +0.120 C 
ATOM     28  C   UNL     1      33.793 -14.840 -22.773  0.00  0.00    +0.115 C 
ATOM     29  C   UNL     1      34.580 -16.082 -21.124  0.00  0.00    +0.059 C 
ATOM     30  C   UNL     1      33.637 -16.357 -24.684  0.00  0.00    +0.209 C 
ATOM     31  C   UNL     1      33.014 -14.079 -24.823  0.00  0.00    +0.248 C 
ATOM     32  H   UNL     1      34.130 -14.033 -20.870  0.00  0.00    +0.153 HD
ATOM     33  H   UNL     1      33.207 -12.916 -23.104  0.00  0.00    +0.157 HD
ATOM     34  H   UNL     1      32.450 -12.119 -25.039  0.00  0.00    +0.146 HD
ATOM     35  H   UNL     1      32.289 -13.063 -26.450  0.00  0.00    +0.146 HD
ENDBRANCH  20  26
ENDBRANCH  19  20
ENDBRANCH   1  19
TORSDOF 8
ENDMDL
MODEL 4
REMARK VINA RESULT:     -13.0      2.919      3.762
REMARK  Name = 446560
REMARK  8 active torsions:
REMARK  status: ('A' for Active; 'I' for Inactive)
REMARK    1  A    between atoms: C_1  and  C_19
REMARK    2  A    between atoms: C_2  and  C_9
REMARK    3  A    between atoms: N_8  and  CA_11
REMARK    4  A    between atoms: CA_11  and  CB_12
REMARK    5  A    between atoms: CA_11  and  C_16
REMARK    6  A    between atoms: C_16  and  O_17
REMARK    7  A    between atoms: C_19  and  C_20
REMARK    8  A    between atoms: C_20  and  C_26
REMARK                            x       y       z     vdW  Elec       q    Type
REMARK                         _______ _______ _______ _____ _____    ______ ____
ROOT
ATOM      1  C   UNL     1      34.287 -20.283 -20.207  0.00  0.00    -0.022 C 
ATOM      2  C   UNL     1      35.202 -21.506 -17.909  0.00  0.00    +0.053 C 
ATOM      3  C   UNL     1      33.404 -20.999 -19.398  0.00  0.00    -0.004 C 
ATOM      4  C   UNL     1      35.634 -20.186 -19.854  0.00  0.00    -0.004 C 
ATOM      5  C   UNL     1      33.866 -21.616 -18.236  0.00  0.00    +0.004 C 
ATOM      6  C   UNL     1      36.096 -20.805 -18.692  0.00  0.00    +0.004 C 
ENDROOT
BRANCH   2   9
ATOM      7  O   UNL     1      36.851 -21.959 -16.304  0.00  0.00    -0.270 OA
ATOM      8  N   UNL     1      34.778 -22.954 -16.000  0.00  0.00    -0.293 N 
ATOM      9  C   ACE A   0      35.696 -22.162 -16.671  0.00  0.00    +0.246 C 
ATOM     10  H   UNL     1      33.874 -23.053 -16.376  0.00  0.00    +0.150 HD
BRANCH   8  11
ATOM     11  CA  UNL     1      35.100 -23.638 -14.768  0.00  0.00    +0.171 C 
BRANCH  11  12
ATOM     12  CB  UNL     1      33.817 -23.888 -13.947  0.00  0.00    +0.029 C 
ATOM     13  CG1 UNL     1      32.652 -23.006 -14.409  0.00  0.00    +0.002 C 
ATOM     14  CG2 UNL     1      34.027 -23.740 -12.437  0.00  0.00    +0.002 C 
ENDBRANCH  11  12
BRANCH  11  16
ATOM     15  OXT UNL     1      35.436 -25.985 -15.292  0.00  0.00    -0.248 OA
ATOM     16  C   UNL     1      35.927 -24.891 -15.043  0.00  0.00    +0.332 C 
BRANCH  16  17
ATOM     17  O   UNL     1      37.268 -24.716 -14.939  0.00  0.00    -0.479 OA
ATOM     18  H   UNL     1      37.613 -23.878 -14.702  0.00  0.00    +0.295 HD
ENDBRANCH  16  17
ENDBRANCH  11  16
ENDBRANCH   8  11
ENDBRANCH   2   9
BRANCH   1  19
ATOM     19  C   UNL     1      33.792 -19.624 -21.449  0.00  0.00    +0.031 C 
BRANCH  19  20
ATOM     20  C   UNL     1      34.849 -18.765 -22.173  0.00  0.00    +0.033 C 
BRANCH  20  26
ATOM     21  O   UNL     1      33.741 -17.942 -25.037  0.00  0.00    -0.209 OA
ATOM     22  N   UNL     1      34.344 -15.211 -21.413  0.00  0.00    -0.300 N 
ATOM     23  N   UNL     1      33.475 -14.230 -23.436  0.00  0.00    -0.264 N 
ATOM     24  N   UNL     1      33.183 -15.715 -25.293  0.00  0.00    -0.302 NA
ATOM     25  N   UNL     1      32.649 -13.424 -25.436  0.00  0.00    -0.320 N 
ATOM     26  C   UNL     1      34.548 -17.294 -22.139  0.00  0.00    +0.007 C 
ATOM     27  C   UNL     1      34.041 -16.529 -23.195  0.00  0.00    +0.120 C 
ATOM     28  C   UNL     1      33.931 -15.255 -22.705  0.00  0.00    +0.115 C 
ATOM     29  C   UNL     1      34.731 -16.483 -21.051  0.00  0.00    +0.059 C 
ATOM     30  C   UNL     1      33.654 -16.813 -24.568  0.00  0.00    +0.209 C 
ATOM     31  C   UNL     1      33.108 -14.518 -24.745  0.00  0.00    +0.248 C 
ATOM     32  H   UNL     1      34.364 -14.413 -20.836  0.00  0.00    +0.153 HD
ATOM     33  H   UNL     1      33.403 -13.320 -23.065  0.00  0.00    +0.157 HD
ATOM     34  H   UNL     1      32.607 -12.545 -24.994  0.00  0.00    +0.146 HD
ATOM     35  H   UNL     1      32.362 -13.518 -26.373  0.00  0.00    +0.146 HD
ENDBRANCH  20  26
ENDBRANCH  19  20
ENDBRANCH   1  19
TORSDOF 8
ENDMDL
MODEL 5
REMARK VINA RESULT:     -13.0      1.886      2.794
REMARK  Name = 446560
REMARK  8 active torsions:
REMARK  status: ('A' for Active; 'I' for Inactive)
REMARK    1  A    between atoms: C_1  and  C_19
REMARK    2  A    between atoms: C_2  and  C_9
REMARK    3  A    between atoms: N_8  and  CA_11
REMARK    4  A    between atoms: CA_11  and  CB_12
REMARK    5  A    between atoms: CA_11  and  C_16
REMARK    6  A    between atoms: C_16  and  O_17
REMARK    7  A    between atoms: C_19  and  C_20
REMARK    8  A    between atoms: C_20  and  C_26
REMARK                            x       y       z     vdW  Elec       q    Type
REMARK                         _______ _______ _______ _____ _____    ______ ____
ROOT
ATOM      1  C   UNL     1      35.231 -19.107 -20.983  0.00  0.00    -0.022 C 
ATOM      2  C   UNL     1      34.302 -21.132 -19.355  0.00  0.00    +0.053 C 
ATOM      3  C   UNL     1      36.126 -19.843 -20.204  0.00  0.00    -0.004 C 
ATOM      4  C   UNL     1      33.867 -19.395 -20.937  0.00  0.00    -0.004 C 
ATOM      5  C   UNL     1      35.656 -20.867 -19.382  0.00  0.00    +0.004 C 
ATOM      6  C   UNL     1      33.398 -20.419 -20.114  0.00  0.00    +0.004 C 
ENDROOT
BRANCH   2   9
ATOM      7  O   UNL     1      33.216 -23.177 -18.987  0.00  0.00    -0.270 OA
ATOM      8  N   UNL     1      34.064 -22.082 -17.127  0.00  0.00    -0.293 N 
ATOM      9  C   ACE A   0      33.802 -22.223 -18.481  0.00  0.00    +0.246 C 
ATOM     10  H   UNL     1      34.541 -21.278 -16.819  0.00  0.00    +0.150 HD
BRANCH   8  11
ATOM     11  CA  UNL     1      33.662 -23.071 -16.153  0.00  0.00    +0.171 C 
BRANCH  11  12
ATOM     12  CB  UNL     1      34.789 -23.288 -15.120  0.00  0.00    +0.029 C 
ATOM     13  CG1 UNL     1      36.096 -22.607 -15.536  0.00  0.00    +0.002 C 
ATOM     14  CG2 UNL     1      35.040 -24.765 -14.802  0.00  0.00    +0.002 C 
ENDBRANCH  11  12
BRANCH  11  16
ATOM     15  OXT UNL     1      31.261 -22.708 -16.179  0.00  0.00    -0.248 OA
ATOM     16  C   UNL     1      32.309 -22.716 -15.544  0.00  0.00    +0.332 C 
BRANCH  16  17
ATOM     17  O   UNL     1      32.355 -22.352 -14.239  0.00  0.00    -0.479 OA
ATOM     18  H   UNL     1      33.027 -21.771 -13.939  0.00  0.00    +0.295 HD
ENDBRANCH  16  17
ENDBRANCH  11  16
ENDBRANCH   8  11
ENDBRANCH   2   9
BRANCH   1  19
ATOM     19  C   UNL     1      35.735 -18.012 -21.861  0.00  0.00    +0.031 C 
BRANCH  19  20
ATOM     20  C   UNL     1      34.633 -17.292 -22.666  0.00  0.00    +0.033 C 
BRANCH  20  26
ATOM     21  O   UNL     1      33.750 -15.433 -25.089  0.00  0.00    -0.209 OA
ATOM     22  N   UNL     1      33.887 -14.318 -20.651  0.00  0.00    -0.300 N 
ATOM     23  N   UNL     1      33.156 -12.638 -22.216  0.00  0.00    -0.264 N 
ATOM     24  N   UNL     1      33.107 -13.287 -24.521  0.00  0.00    -0.302 NA
ATOM     25  N   UNL     1      32.476 -11.126 -23.824  0.00  0.00    -0.320 N 
ATOM     26  C   UNL     1      34.258 -15.953 -22.098  0.00  0.00    +0.007 C 
ATOM     27  C   UNL     1      33.811 -14.843 -22.824  0.00  0.00    +0.120 C 
ATOM     28  C   UNL     1      33.595 -13.861 -21.894  0.00  0.00    +0.115 C 
ATOM     29  C   UNL     1      34.302 -15.627 -20.769  0.00  0.00    +0.059 C 
ATOM     30  C   UNL     1      33.564 -14.576 -24.232  0.00  0.00    +0.209 C 
ATOM     31  C   UNL     1      32.923 -12.398 -23.566  0.00  0.00    +0.248 C 
ATOM     32  H   UNL     1      33.815 -13.807 -19.812  0.00  0.00    +0.153 HD
ATOM     33  H   UNL     1      33.006 -11.944 -21.533  0.00  0.00    +0.157 HD
ATOM     34  H   UNL     1      32.350 -10.489 -23.085  0.00  0.00    +0.146 HD
ATOM     35  H   UNL     1      32.279 -10.852 -24.749  0.00  0.00    +0.146 HD
ENDBRANCH  20  26
ENDBRANCH  19  20
ENDBRANCH   1  19
TORSDOF 8
ENDMDL
MODEL 6
REMARK VINA RESULT:     -12.8      2.066      2.830
REMARK  Name = 446560
REMARK  8 active torsions:
REMARK  status: ('A' for Active; 'I' for Inactive)
REMARK    1  A    between atoms: C_1  and  C_19
REMARK    2  A    between atoms: C_2  and  C_9
REMARK    3  A    between atoms: N_8  and  CA_11
REMARK    4  A    between atoms: CA_11  and  CB_12
REMARK    5  A    between atoms: CA_11  and  C_16
REMARK    6  A    between atoms: C_16  and  O_17
REMARK    7  A    between atoms: C_19  and  C_20
REMARK    8  A    between atoms: C_20  and  C_26
REMARK                            x       y       z     vdW  Elec       q    Type
REMARK                         _______ _______ _______ _____ _____    ______ ____
ROOT
ATOM      1  C   UNL     1      35.228 -19.842 -20.224  0.00  0.00    -0.022 C 
ATOM      2  C   UNL     1      34.157 -21.717 -18.506  0.00  0.00    +0.053 C 
ATOM      3  C   UNL     1      33.871 -20.156 -20.293  0.00  0.00    -0.004 C 
ATOM      4  C   UNL     1      36.045 -20.477 -19.288  0.00  0.00    -0.004 C 
ATOM      5  C   UNL     1      33.329 -21.103 -19.424  0.00  0.00    +0.004 C 
ATOM      6  C   UNL     1      35.502 -21.425 -18.420  0.00  0.00    +0.004 C 
ENDROOT
BRANCH   2   9
ATOM      7  O   UNL     1      32.789 -23.556 -18.016  0.00  0.00    -0.270 OA
ATOM      8  N   UNL     1      34.016 -22.656 -16.266  0.00  0.00    -0.293 N 
ATOM      9  C   ACE A   0      33.581 -22.724 -17.580  0.00  0.00    +0.246 C 
ATOM     10  H   UNL     1      34.654 -21.950 -16.015  0.00  0.00    +0.150 HD
BRANCH   8  11
ATOM     11  CA  UNL     1      33.565 -23.583 -15.253  0.00  0.00    +0.171 C 
BRANCH  11  12
ATOM     12  CB  UNL     1      34.717 -23.904 -14.276  0.00  0.00    +0.029 C 
ATOM     13  CG1 UNL     1      35.652 -22.707 -14.069  0.00  0.00    +0.002 C 
ATOM     14  CG2 UNL     1      35.524 -25.142 -14.679  0.00  0.00    +0.002 C 
ENDBRANCH  11  12
BRANCH  11  16
ATOM     15  OXT UNL     1      32.061 -23.203 -13.384  0.00  0.00    -0.248 OA
ATOM     16  C   UNL     1      32.292 -23.076 -14.581  0.00  0.00    +0.332 C 
BRANCH  16  17
ATOM     17  O   UNL     1      31.395 -22.512 -15.426  0.00  0.00    -0.479 OA
ATOM     18  H   UNL     1      31.581 -22.466 -16.343  0.00  0.00    +0.295 HD
ENDBRANCH  16  17
ENDBRANCH  11  16
ENDBRANCH   8  11
ENDBRANCH   2   9
BRANCH   1  19
ATOM     19  C   UNL     1      35.806 -18.829 -21.154  0.00  0.00    +0.031 C 
BRANCH  19  20
ATOM     20  C   UNL     1      34.850 -18.389 -22.281  0.00  0.00    +0.033 C 
BRANCH  20  26
ATOM     21  O   UNL     1      33.836 -17.521 -25.167  0.00  0.00    -0.209 OA
ATOM     22  N   UNL     1      34.144 -14.890 -21.435  0.00  0.00    -0.300 N 
ATOM     23  N   UNL     1      33.321 -13.882 -23.464  0.00  0.00    -0.264 N 
ATOM     24  N   UNL     1      33.185 -15.315 -25.378  0.00  0.00    -0.302 NA
ATOM     25  N   UNL     1      32.551 -13.047 -25.474  0.00  0.00    -0.320 N 
ATOM     26  C   UNL     1      34.478 -16.935 -22.215  0.00  0.00    +0.007 C 
ATOM     27  C   UNL     1      33.984 -16.159 -23.269  0.00  0.00    +0.120 C 
ATOM     28  C   UNL     1      33.792 -14.909 -22.745  0.00  0.00    +0.115 C 
ATOM     29  C   UNL     1      34.574 -16.154 -21.095  0.00  0.00    +0.059 C 
ATOM     30  C   UNL     1      33.674 -16.414 -24.667  0.00  0.00    +0.209 C 
ATOM     31  C   UNL     1      33.028 -14.142 -24.798  0.00  0.00    +0.248 C 
ATOM     32  H   UNL     1      34.099 -14.111 -20.832  0.00  0.00    +0.153 HD
ATOM     33  H   UNL     1      33.190 -12.989 -23.069  0.00  0.00    +0.157 HD
ATOM     34  H   UNL     1      32.447 -12.187 -25.007  0.00  0.00    +0.146 HD
ATOM     35  H   UNL     1      32.311 -13.123 -26.426  0.00  0.00    +0.146 HD
ENDBRANCH  20  26
ENDBRANCH  19  20
ENDBRANCH   1  19
TORSDOF 8
ENDMDL
MODEL 7
REMARK VINA RESULT:     -12.8      3.526      4.948
REMARK  Name = 446560
REMARK  8 active torsions:
REMARK  status: ('A' for Active; 'I' for Inactive)
REMARK    1  A    between atoms: C_1  and  C_19
REMARK    2  A    between atoms: C_2  and  C_9
REMARK    3  A    between atoms: N_8  and  CA_11
REMARK    4  A    between atoms: CA_11  and  CB_12
REMARK    5  A    between atoms: CA_11  and  C_16
REMARK    6  A    between atoms: C_16  and  O_17
REMARK    7  A    between atoms: C_19  and  C_20
REMARK    8  A    between atoms: C_20  and  C_26
REMARK                            x       y       z     vdW  Elec       q    Type
REMARK                         _______ _______ _______ _____ _____    ______ ____
ROOT
ATOM      1  C   UNL     1      34.789 -21.042 -19.123  0.00  0.00    -0.022 C 
ATOM      2  C   UNL     1      35.570 -22.091 -16.692  0.00  0.00    +0.053 C 
ATOM      3  C   UNL     1      33.897 -21.811 -18.375  0.00  0.00    -0.004 C 
ATOM      4  C   UNL     1      36.077 -20.805 -18.641  0.00  0.00    -0.004 C 
ATOM      5  C   UNL     1      34.290 -22.340 -17.147  0.00  0.00    +0.004 C 
ATOM      6  C   UNL     1      36.471 -21.336 -17.413  0.00  0.00    +0.004 C 
ENDROOT
BRANCH   2   9
ATOM      7  O   UNL     1      35.335 -22.388 -14.379  0.00  0.00    -0.270 OA
ATOM      8  N   UNL     1      37.106 -23.474 -15.409  0.00  0.00    -0.293 N 
ATOM      9  C   ACE A   0      35.990 -22.653 -15.384  0.00  0.00    +0.246 C 
ATOM     10  H   UNL     1      37.563 -23.625 -16.267  0.00  0.00    +0.150 HD
BRANCH   8  11
ATOM     11  CA  UNL     1      37.623 -24.115 -14.221  0.00  0.00    +0.171 C 
BRANCH  11  12
ATOM     12  CB  UNL     1      36.674 -25.247 -13.772  0.00  0.00    +0.029 C 
ATOM     13  CG1 UNL     1      37.131 -25.900 -12.463  0.00  0.00    +0.002 C 
ATOM     14  CG2 UNL     1      36.456 -26.315 -14.848  0.00  0.00    +0.002 C 
ENDBRANCH  11  12
BRANCH  11  16
ATOM     15  OXT UNL     1      39.963 -24.338 -13.612  0.00  0.00    -0.248 OA
ATOM     16  C   UNL     1      39.071 -24.550 -14.425  0.00  0.00    +0.332 C 
BRANCH  16  17
ATOM     17  O   UNL     1      39.317 -25.154 -15.614  0.00  0.00    -0.479 OA
ATOM     18  H   UNL     1      39.795 -24.699 -16.279  0.00  0.00    +0.295 HD
ENDBRANCH  16  17
ENDBRANCH  11  16
ENDBRANCH   8  11
ENDBRANCH   2   9
BRANCH   1  19
ATOM     19  C   UNL     1      34.367 -20.477 -20.436  0.00  0.00    +0.031 C 
BRANCH  19  20
ATOM     20  C   UNL     1      35.033 -19.131 -20.788  0.00  0.00    +0.033 C 
BRANCH  20  26
ATOM     21  O   UNL     1      34.634 -15.996 -20.447  0.00  0.00    -0.209 OA
ATOM     22  N   UNL     1      34.024 -18.466 -24.252  0.00  0.00    -0.300 N 
ATOM     23  N   UNL     1      33.626 -16.092 -24.370  0.00  0.00    -0.264 N 
ATOM     24  N   UNL     1      33.964 -14.859 -22.344  0.00  0.00    -0.302 NA
ATOM     25  N   UNL     1      33.281 -13.809 -24.340  0.00  0.00    -0.320 N 
ATOM     26  C   UNL     1      34.601 -18.581 -22.117  0.00  0.00    +0.007 C 
ATOM     27  C   UNL     1      34.318 -17.241 -22.404  0.00  0.00    +0.120 C 
ATOM     28  C   UNL     1      33.968 -17.216 -23.728  0.00  0.00    +0.115 C 
ATOM     29  C   UNL     1      34.420 -19.326 -23.251  0.00  0.00    +0.059 C 
ATOM     30  C   UNL     1      34.327 -16.007 -21.634  0.00  0.00    +0.209 C 
ATOM     31  C   UNL     1      33.641 -14.921 -23.621  0.00  0.00    +0.248 C 
ATOM     32  H   UNL     1      33.819 -18.716 -25.183  0.00  0.00    +0.153 HD
ATOM     33  H   UNL     1      33.377 -16.094 -25.323  0.00  0.00    +0.157 HD
ATOM     34  H   UNL     1      33.046 -13.893 -25.292  0.00  0.00    +0.146 HD
ATOM     35  H   UNL     1      33.260 -12.927 -23.904  0.00  0.00    +0.146 HD
ENDBRANCH  20  26
ENDBRANCH  19  20
ENDBRANCH   1  19
TORSDOF 8
ENDMDL
MODEL 8
REMARK VINA RESULT:     -12.5      2.651     10.028
REMARK  Name = 446560
REMARK  8 active torsions:
REMARK  status: ('A' for Active; 'I' for Inactive)
REMARK    1  A    between atoms: C_1  and  C_19
REMARK    2  A    between atoms: C_2  and  C_9
REMARK    3  A    between atoms: N_8  and  CA_11
REMARK    4  A    between atoms: CA_11  and  CB_12
REMARK    5  A    between atoms: CA_11  and  C_16
REMARK    6  A    between atoms: C_16  and  O_17
REMARK    7  A    between atoms: C_19  and  C_20
REMARK    8  A    between atoms: C_20  and  C_26
REMARK                            x       y       z     vdW  Elec       q    Type
REMARK                         _______ _______ _______ _____ _____    ______ ____
ROOT
ATOM      1  C   UNL     1      34.849 -16.968 -22.099  0.00  0.00    -0.022 C 
ATOM      2  C   UNL     1      33.663 -14.615 -22.918  0.00  0.00    +0.053 C 
ATOM      3  C   UNL     1      34.557 -16.766 -23.448  0.00  0.00    -0.004 C 
ATOM      4  C   UNL     1      34.539 -15.980 -21.163  0.00  0.00    -0.004 C 
ATOM      5  C   UNL     1      33.959 -15.577 -23.863  0.00  0.00    +0.004 C 
ATOM      6  C   UNL     1      33.939 -14.790 -21.578  0.00  0.00    +0.004 C 
ENDROOT
BRANCH   2   9
ATOM      7  O   UNL     1      32.684 -13.224 -24.532  0.00  0.00    -0.270 OA
ATOM      8  N   UNL     1      32.843 -12.389 -22.374  0.00  0.00    -0.293 N 
ATOM      9  C   ACE A   0      33.026 -13.347 -23.358  0.00  0.00    +0.246 C 
ATOM     10  H   UNL     1      33.153 -12.584 -21.460  0.00  0.00    +0.150 HD
BRANCH   8  11
ATOM     11  CA  UNL     1      32.216 -11.115 -22.642  0.00  0.00    +0.171 C 
BRANCH  11  12
ATOM     12  CB  UNL     1      31.488 -10.604 -21.379  0.00  0.00    +0.029 C 
ATOM     13  CG1 UNL     1      31.517 -11.629 -20.240  0.00  0.00    +0.002 C 
ATOM     14  CG2 UNL     1      30.049 -10.156 -21.651  0.00  0.00    +0.002 C 
ENDBRANCH  11  12
BRANCH  11  16
ATOM     15  OXT UNL     1      33.129  -8.913 -23.107  0.00  0.00    -0.248 OA
ATOM     16  C   UNL     1      33.219 -10.128 -23.232  0.00  0.00    +0.332 C 
BRANCH  16  17
ATOM     17  O   UNL     1      34.209 -10.699 -23.962  0.00  0.00    -0.479 OA
ATOM     18  H   UNL     1      34.041 -10.976 -24.842  0.00  0.00    +0.295 HD
ENDBRANCH  16  17
ENDBRANCH  11  16
ENDBRANCH   8  11
ENDBRANCH   2   9
BRANCH   1  19
ATOM     19  C   UNL     1      35.488 -18.240 -21.657  0.00  0.00    +0.031 C 
BRANCH  19  20
ATOM     20  C   UNL     1      34.499 -19.404 -21.445  0.00  0.00    +0.033 C 
BRANCH  20  26
ATOM     21  O   UNL     1      31.728 -20.453 -20.291  0.00  0.00    -0.209 OA
ATOM     22  N   UNL     1      35.908 -21.247 -18.603  0.00  0.00    -0.300 N 
ATOM     23  N   UNL     1      34.023 -22.216 -17.455  0.00  0.00    -0.264 N 
ATOM     24  N   UNL     1      31.865 -21.761 -18.391  0.00  0.00    -0.302 NA
ATOM     25  N   UNL     1      32.130 -23.081 -16.457  0.00  0.00    -0.320 N 
ATOM     26  C   UNL     1      34.796 -20.225 -20.223  0.00  0.00    +0.007 C 
ATOM     27  C   UNL     1      33.857 -20.872 -19.412  0.00  0.00    +0.120 C 
ATOM     28  C   UNL     1      34.585 -21.488 -18.430  0.00  0.00    +0.115 C 
ATOM     29  C   UNL     1      36.050 -20.458 -19.723  0.00  0.00    +0.059 C 
ATOM     30  C   UNL     1      32.408 -20.993 -19.426  0.00  0.00    +0.209 C 
ATOM     31  C   UNL     1      32.637 -22.323 -17.482  0.00  0.00    +0.248 C 
ATOM     32  H   UNL     1      36.639 -21.578 -18.031  0.00  0.00    +0.153 HD
ATOM     33  H   UNL     1      34.563 -22.651 -16.756  0.00  0.00    +0.157 HD
ATOM     34  H   UNL     1      32.736 -23.486 -15.796  0.00  0.00    +0.146 HD
ATOM     35  H   UNL     1      31.158 -23.222 -16.384  0.00  0.00    +0.146 HD
ENDBRANCH  20  26
ENDBRANCH  19  20
ENDBRANCH   1  19
TORSDOF 8
ENDMDL
MODEL 9
REMARK VINA RESULT:     -12.5      2.221      3.428
REMARK  Name = 446560
REMARK  8 active torsions:
REMARK  status: ('A' for Active; 'I' for Inactive)
REMARK    1  A    between atoms: C_1  and  C_19
REMARK    2  A    between atoms: C_2  and  C_9
REMARK    3  A    between atoms: N_8  and  CA_11
REMARK    4  A    between atoms: CA_11  and  CB_12
REMARK    5  A    between atoms: CA_11  and  C_16
REMARK    6  A    between atoms: C_16  and  O_17
REMARK    7  A    between atoms: C_19  and  C_20
REMARK    8  A    between atoms: C_20  and  C_26
REMARK                            x       y       z     vdW  Elec       q    Type
REMARK                         _______ _______ _______ _____ _____    ______ ____
ROOT
ATOM      1  C   UNL     1      34.512 -19.765 -20.762  0.00  0.00    -0.022 C 
ATOM      2  C   UNL     1      34.527 -21.364 -18.513  0.00  0.00    +0.053 C 
ATOM      3  C   UNL     1      33.308 -20.204 -20.210  0.00  0.00    -0.004 C 
ATOM      4  C   UNL     1      35.724 -20.136 -20.177  0.00  0.00    -0.004 C 
ATOM      5  C   UNL     1      33.315 -21.011 -19.073  0.00  0.00    +0.004 C 
ATOM      6  C   UNL     1      35.730 -20.944 -19.040  0.00  0.00    +0.004 C 
ENDROOT
BRANCH   2   9
ATOM      7  O   UNL     1      33.774 -23.186 -17.244  0.00  0.00    -0.270 OA
ATOM      8  N   UNL     1      35.444 -21.870 -16.317  0.00  0.00    -0.293 N 
ATOM      9  C   ACE A   0      34.535 -22.223 -17.302  0.00  0.00    +0.246 C 
ATOM     10  H   UNL     1      36.011 -21.078 -16.458  0.00  0.00    +0.150 HD
BRANCH   8  11
ATOM     11  CA  UNL     1      35.588 -22.622 -15.091  0.00  0.00    +0.171 C 
BRANCH  11  12
ATOM     12  CB  UNL     1      34.715 -23.895 -15.141  0.00  0.00    +0.029 C 
ATOM     13  CG1 UNL     1      33.610 -23.881 -14.080  0.00  0.00    +0.002 C 
ATOM     14  CG2 UNL     1      35.527 -25.189 -15.042  0.00  0.00    +0.002 C 
ENDBRANCH  11  12
BRANCH  11  16
ATOM     15  OXT UNL     1      37.505 -22.988 -13.646  0.00  0.00    -0.248 OA
ATOM     16  C   UNL     1      37.060 -22.880 -14.782  0.00  0.00    +0.332 C 
BRANCH  16  17
ATOM     17  O   UNL     1      37.865 -22.929 -15.872  0.00  0.00    -0.479 OA
ATOM     18  H   UNL     1      37.510 -22.767 -16.724  0.00  0.00    +0.295 HD
ENDBRANCH  16  17
ENDBRANCH  11  16
ENDBRANCH   8  11
ENDBRANCH   2   9
BRANCH   1  19
ATOM     19  C   UNL     1      34.503 -18.902 -21.978  0.00  0.00    +0.031 C 
BRANCH  19  20
ATOM     20  C   UNL     1      34.914 -17.439 -21.716  0.00  0.00    +0.033 C 
BRANCH  20  26
ATOM     21  O   UNL     1      34.176 -14.734 -20.217  0.00  0.00    -0.209 OA
ATOM     22  N   UNL     1      33.743 -15.629 -24.685  0.00  0.00    -0.300 N 
ATOM     23  N   UNL     1      33.079 -13.449 -23.900  0.00  0.00    -0.264 N 
ATOM     24  N   UNL     1      33.333 -13.047 -21.552  0.00  0.00    -0.302 NA
ATOM     25  N   UNL     1      32.482 -11.403 -23.011  0.00  0.00    -0.320 N 
ATOM     26  C   UNL     1      34.387 -16.478 -22.744  0.00  0.00    +0.007 C 
ATOM     27  C   UNL     1      33.948 -15.171 -22.506  0.00  0.00    +0.120 C 
ATOM     28  C   UNL     1      33.562 -14.686 -23.727  0.00  0.00    +0.115 C 
ATOM     29  C   UNL     1      34.259 -16.753 -24.079  0.00  0.00    +0.059 C 
ATOM     30  C   UNL     1      33.841 -14.329 -21.324  0.00  0.00    +0.209 C 
ATOM     31  C   UNL     1      32.983 -12.656 -22.761  0.00  0.00    +0.248 C 
ATOM     32  H   UNL     1      33.542 -15.528 -25.644  0.00  0.00    +0.153 HD
ATOM     33  H   UNL     1      32.806 -13.118 -24.786  0.00  0.00    +0.157 HD
ATOM     34  H   UNL     1      32.232 -11.146 -23.927  0.00  0.00    +0.146 HD
ATOM     35  H   UNL     1      32.374 -10.761 -22.272  0.00  0.00    +0.146 HD
ENDBRANCH  20  26
ENDBRANCH  19  20
ENDBRANCH   1  19
TORSDOF 8
ENDMDL
