MODEL 1
REMARK VINA RESULT:     -10.6      0.000      0.000
REMARK  Name = 57920094
REMARK  11 active torsions:
REMARK  status: ('A' for Active; 'I' for Inactive)
REMARK    1  A    between atoms: C_1  and  C_6
REMARK    2  A    between atoms: C_1  and  N_19
REMARK    3  A    between atoms: C_1  and  C_32
REMARK    4  A    between atoms: N_4  and  C_11
REMARK    5  A    between atoms: C_11  and  C_12
REMARK    6  A    between atoms: C_12  and  O_13
REMARK    7  A    between atoms: C_12  and  C_15
REMARK    8  A    between atoms: C_15  and  O_16
REMARK    9  A    between atoms: C_22  and  O_24
REMARK   10  A    between atoms: O_24  and  C_26
REMARK   11  A    between atoms: C_32  and  C_33
REMARK                            x       y       z     vdW  Elec       q    Type
REMARK                         _______ _______ _______ _____ _____    ______ ____
ROOT
ATOM      1  C   UNL     1      31.262 -23.300 -16.465  0.00  0.00    +0.153 C 
ENDROOT
BRANCH   1   6
ATOM      2  O   UNL     1      33.609 -23.381 -17.026  0.00  0.00    -0.273 OA
ATOM      3  N   UNL     1      32.214 -21.870 -18.156  0.00  0.00    -0.267 N 
ATOM      4  N   UNL     1      33.870 -19.880 -20.467  0.00  0.00    -0.206 N 
ATOM      5  N   UNL     1      32.723 -20.231 -19.859  0.00  0.00    -0.163 NA
ATOM      6  C   UNL     1      32.508 -22.882 -17.247  0.00  0.00    +0.245 C 
ATOM      7  C   UNL     1      33.109 -21.195 -19.018  0.00  0.00    +0.153 C 
ATOM      8  C   UNL     1      34.490 -21.457 -19.090  0.00  0.00    +0.054 C 
ATOM      9  C   UNL     1      34.957 -20.585 -20.043  0.00  0.00    +0.087 C 
ATOM     10  H   UNL     1      31.271 -21.590 -18.204  0.00  0.00    +0.156 HD
BRANCH   4  11
ATOM     11  C   UNL     1      33.860 -18.842 -21.470  0.00  0.00    +0.148 C 
BRANCH  11  12
ATOM     12  C   UNL     1      35.059 -17.898 -21.341  0.00  0.00    +0.161 C 
BRANCH  12  13
ATOM     13  O   UNL     1      35.966 -18.166 -22.413  0.00  0.00    -0.380 OA
ATOM     14  H   UNL     1      35.782 -19.044 -22.780  0.00  0.00    +0.211 HD
ENDBRANCH  12  13
BRANCH  12  15
ATOM     15  C   UNL     1      34.620 -16.439 -21.435  0.00  0.00    +0.168 C 
BRANCH  15  16
ATOM     16  O   UNL     1      34.994 -15.902 -22.701  0.00  0.00    -0.379 OA
ATOM     17  H   UNL     1      34.539 -15.057 -22.840  0.00  0.00    +0.211 HD
ENDBRANCH  15  16
ENDBRANCH  12  15
ENDBRANCH  11  12
ENDBRANCH   4  11
ENDBRANCH   1   6
BRANCH   1  19
ATOM     18  O   UNL     1      30.107 -25.327 -14.616  0.00  0.00    -0.270 OA
ATOM     19  N   UNL     1      31.691 -23.657 -15.137  0.00  0.00    -0.262 N 
ATOM     20  C   UNL     1      32.816 -23.047 -14.461  0.00  0.00    +0.159 C 
ATOM     21  C   UNL     1      31.072 -24.628 -14.355  0.00  0.00    +0.253 C 
ATOM     22  C   UNL     1      32.787 -23.782 -13.171  0.00  0.00    +0.147 C 
ATOM     23  C   UNL     1      31.809 -24.688 -13.077  0.00  0.00    +0.093 C 
BRANCH  22  24
ATOM     24  O   UNL     1      33.707 -23.513 -12.198  0.00  0.00    -0.455 OA
BRANCH  24  26
ATOM     25 CL   UNL     1      35.341 -23.826  -9.690  0.00  0.00    -0.079 Cl
ATOM     26  C   UNL     1      34.978 -23.996 -12.381  0.00  0.00    +0.155 C 
ATOM     27  C   UNL     1      35.841 -24.187 -11.301  0.00  0.00    +0.092 C 
ATOM     28  C   UNL     1      35.404 -24.295 -13.674  0.00  0.00    +0.038 C 
ATOM     29  C   UNL     1      37.129 -24.678 -11.515  0.00  0.00    +0.014 C 
ATOM     30  C   UNL     1      36.693 -24.785 -13.889  0.00  0.00    +0.003 C 
ATOM     31  C   UNL     1      37.555 -24.976 -12.809  0.00  0.00    +0.001 C 
ENDBRANCH  24  26
ENDBRANCH  22  24
ENDBRANCH   1  19
BRANCH   1  32
ATOM     32  C   UNL     1      30.235 -22.161 -16.457  0.00  0.00    +0.029 C 
BRANCH  32  33
ATOM     33  C   UNL     1      28.869 -22.526 -15.840  0.00  0.00    +0.002 C 
ATOM     34  C   UNL     1      27.711 -22.297 -16.812  0.00  0.00    +0.000 C 
ATOM     35  C   UNL     1      28.643 -21.706 -14.566  0.00  0.00    +0.000 C 
ENDBRANCH  32  33
ENDBRANCH   1  32
TORSDOF 11
ENDMDL
MODEL 2
REMARK VINA RESULT:     -10.5      3.590      7.996
REMARK  Name = 57920094
REMARK  11 active torsions:
REMARK  status: ('A' for Active; 'I' for Inactive)
REMARK    1  A    between atoms: C_1  and  C_6
REMARK    2  A    between atoms: C_1  and  N_19
REMARK    3  A    between atoms: C_1  and  C_32
REMARK    4  A    between atoms: N_4  and  C_11
REMARK    5  A    between atoms: C_11  and  C_12
REMARK    6  A    between atoms: C_12  and  O_13
REMARK    7  A    between atoms: C_12  and  C_15
REMARK    8  A    between atoms: C_15  and  O_16
REMARK    9  A    between atoms: C_22  and  O_24
REMARK   10  A    between atoms: O_24  and  C_26
REMARK   11  A    between atoms: C_32  and  C_33
REMARK                            x       y       z     vdW  Elec       q    Type
REMARK                         _______ _______ _______ _____ _____    ______ ____
ROOT
ATOM      1  C   UNL     1      35.562 -24.332 -13.887  0.00  0.00    +0.153 C 
ENDROOT
BRANCH   1   6
ATOM      2  O   UNL     1      34.096 -23.605 -12.111  0.00  0.00    -0.273 OA
ATOM      3  N   UNL     1      33.204 -23.983 -14.249  0.00  0.00    -0.267 N 
ATOM      4  N   UNL     1      29.775 -23.489 -14.453  0.00  0.00    -0.206 N 
ATOM      5  N   UNL     1      30.931 -23.819 -15.056  0.00  0.00    -0.163 NA
ATOM      6  C   UNL     1      34.216 -23.912 -13.295  0.00  0.00    +0.245 C 
ATOM      7  C   UNL     1      31.826 -23.721 -14.069  0.00  0.00    +0.153 C 
ATOM      8  C   UNL     1      31.246 -23.332 -12.846  0.00  0.00    +0.054 C 
ATOM      9  C   UNL     1      29.910 -23.188 -13.130  0.00  0.00    +0.087 C 
ATOM     10  H   UNL     1      33.481 -24.248 -15.156  0.00  0.00    +0.156 HD
BRANCH   4  11
ATOM     11  C   UNL     1      28.549 -23.478 -15.214  0.00  0.00    +0.148 C 
BRANCH  11  12
ATOM     12  C   UNL     1      28.349 -22.163 -15.973  0.00  0.00    +0.161 C 
BRANCH  12  13
ATOM     13  O   UNL     1      29.409 -22.018 -16.921  0.00  0.00    -0.380 OA
ATOM     14  H   UNL     1      29.777 -22.891 -17.130  0.00  0.00    +0.211 HD
ENDBRANCH  12  13
BRANCH  12  15
ATOM     15  C   UNL     1      27.023 -22.165 -16.731  0.00  0.00    +0.168 C 
BRANCH  15  16
ATOM     16  O   UNL     1      27.029 -23.198 -17.712  0.00  0.00    -0.379 OA
ATOM     17  H   UNL     1      26.370 -23.869 -17.479  0.00  0.00    +0.211 HD
ENDBRANCH  15  16
ENDBRANCH  12  15
ENDBRANCH  11  12
ENDBRANCH   4  11
ENDBRANCH   1   6
BRANCH   1  19
ATOM     18  O   UNL     1      37.170 -21.887 -13.341  0.00  0.00    -0.270 OA
ATOM     19  N   UNL     1      35.968 -23.298 -14.803  0.00  0.00    -0.262 N 
ATOM     20  C   UNL     1      35.634 -23.290 -16.211  0.00  0.00    +0.159 C 
ATOM     21  C   UNL     1      36.725 -22.189 -14.437  0.00  0.00    +0.253 C 
ATOM     22  C   UNL     1      36.293 -22.030 -16.638  0.00  0.00    +0.147 C 
ATOM     23  C   UNL     1      36.922 -21.378 -15.655  0.00  0.00    +0.093 C 
BRANCH  22  24
ATOM     24  O   UNL     1      36.228 -21.618 -17.938  0.00  0.00    -0.455 OA
BRANCH  24  26
ATOM     25 CL   UNL     1      36.161 -19.681 -20.241  0.00  0.00    -0.079 Cl
ATOM     26  C   UNL     1      34.984 -21.367 -18.460  0.00  0.00    +0.155 C 
ATOM     27  C   UNL     1      34.812 -20.487 -19.529  0.00  0.00    +0.092 C 
ATOM     28  C   UNL     1      33.880 -22.008 -17.900  0.00  0.00    +0.038 C 
ATOM     29  C   UNL     1      33.536 -20.248 -20.038  0.00  0.00    +0.014 C 
ATOM     30  C   UNL     1      32.602 -21.769 -18.408  0.00  0.00    +0.003 C 
ATOM     31  C   UNL     1      32.431 -20.889 -19.477  0.00  0.00    +0.001 C 
ENDBRANCH  24  26
ENDBRANCH  22  24
ENDBRANCH   1  19
BRANCH   1  32
ATOM     32  C   UNL     1      36.588 -24.552 -12.768  0.00  0.00    +0.029 C 
BRANCH  32  33
ATOM     33  C   UNL     1      37.657 -25.621 -13.072  0.00  0.00    +0.002 C 
ATOM     34  C   UNL     1      39.004 -25.007 -13.454  0.00  0.00    +0.000 C 
ATOM     35  C   UNL     1      37.168 -26.533 -14.202  0.00  0.00    +0.000 C 
ENDBRANCH  32  33
ENDBRANCH   1  32
TORSDOF 11
ENDMDL
MODEL 3
REMARK VINA RESULT:     -10.4      1.785      2.169
REMARK  Name = 57920094
REMARK  11 active torsions:
REMARK  status: ('A' for Active; 'I' for Inactive)
REMARK    1  A    between atoms: C_1  and  C_6
REMARK    2  A    between atoms: C_1  and  N_19
REMARK    3  A    between atoms: C_1  and  C_32
REMARK    4  A    between atoms: N_4  and  C_11
REMARK    5  A    between atoms: C_11  and  C_12
REMARK    6  A    between atoms: C_12  and  O_13
REMARK    7  A    between atoms: C_12  and  C_15
REMARK    8  A    between atoms: C_15  and  O_16
REMARK    9  A    between atoms: C_22  and  O_24
REMARK   10  A    between atoms: O_24  and  C_26
REMARK   11  A    between atoms: C_32  and  C_33
REMARK                            x       y       z     vdW  Elec       q    Type
REMARK                         _______ _______ _______ _____ _____    ______ ____
ROOT
ATOM      1  C   UNL     1      31.354 -23.587 -15.813  0.00  0.00    +0.153 C 
ENDROOT
BRANCH   1   6
ATOM      2  O   UNL     1      30.412 -21.818 -17.160  0.00  0.00    -0.273 OA
ATOM      3  N   UNL     1      32.662 -22.414 -17.463  0.00  0.00    -0.267 N 
ATOM      4  N   UNL     1      34.271 -20.623 -19.963  0.00  0.00    -0.206 N 
ATOM      5  N   UNL     1      34.319 -21.568 -19.008  0.00  0.00    -0.163 NA
ATOM      6  C   UNL     1      31.403 -22.487 -16.875  0.00  0.00    +0.245 C 
ATOM      7  C   UNL     1      33.079 -21.561 -18.511  0.00  0.00    +0.153 C 
ATOM      8  C   UNL     1      32.246 -20.617 -19.144  0.00  0.00    +0.054 C 
ATOM      9  C   UNL     1      33.053 -20.022 -20.083  0.00  0.00    +0.087 C 
ATOM     10  H   UNL     1      33.344 -23.030 -17.108  0.00  0.00    +0.156 HD
BRANCH   4  11
ATOM     11  C   UNL     1      35.451 -20.331 -20.741  0.00  0.00    +0.148 C 
BRANCH  11  12
ATOM     12  C   UNL     1      35.756 -18.831 -20.793  0.00  0.00    +0.161 C 
BRANCH  12  13
ATOM     13  O   UNL     1      36.795 -18.545 -19.854  0.00  0.00    -0.380 OA
ATOM     14  H   UNL     1      37.315 -19.347 -19.693  0.00  0.00    +0.211 HD
ENDBRANCH  12  13
BRANCH  12  15
ATOM     15  C   UNL     1      36.236 -18.418 -22.183  0.00  0.00    +0.168 C 
BRANCH  15  16
ATOM     16  O   UNL     1      37.608 -18.040 -22.128  0.00  0.00    -0.379 OA
ATOM     17  H   UNL     1      37.700 -17.236 -21.594  0.00  0.00    +0.211 HD
ENDBRANCH  15  16
ENDBRANCH  12  15
ENDBRANCH  11  12
ENDBRANCH   4  11
ENDBRANCH   1   6
BRANCH   1  19
ATOM     18  O   UNL     1      31.803 -24.587 -13.045  0.00  0.00    -0.270 OA
ATOM     19  N   UNL     1      32.509 -23.418 -14.970  0.00  0.00    -0.262 N 
ATOM     20  C   UNL     1      33.698 -22.693 -15.365  0.00  0.00    +0.159 C 
ATOM     21  C   UNL     1      32.613 -23.933 -13.681  0.00  0.00    +0.253 C 
ATOM     22  C   UNL     1      34.525 -22.842 -14.142  0.00  0.00    +0.147 C 
ATOM     23  C   UNL     1      33.940 -23.542 -13.164  0.00  0.00    +0.093 C 
BRANCH  22  24
ATOM     24  O   UNL     1      35.772 -22.291 -14.075  0.00  0.00    -0.455 OA
BRANCH  24  26
ATOM     25 CL   UNL     1      36.524 -22.563 -11.173  0.00  0.00    -0.079 Cl
ATOM     26  C   UNL     1      36.823 -23.135 -13.816  0.00  0.00    +0.155 C 
ATOM     27  C   UNL     1      37.274 -23.349 -12.513  0.00  0.00    +0.092 C 
ATOM     28  C   UNL     1      37.444 -23.781 -14.884  0.00  0.00    +0.038 C 
ATOM     29  C   UNL     1      38.345 -24.211 -12.278  0.00  0.00    +0.014 C 
ATOM     30  C   UNL     1      38.517 -24.642 -14.650  0.00  0.00    +0.003 C 
ATOM     31  C   UNL     1      38.967 -24.857 -13.347  0.00  0.00    +0.001 C 
ENDBRANCH  24  26
ENDBRANCH  22  24
ENDBRANCH   1  19
BRANCH   1  32
ATOM     32  C   UNL     1      30.042 -23.504 -15.023  0.00  0.00    +0.029 C 
BRANCH  32  33
ATOM     33  C   UNL     1      28.981 -24.550 -15.419  0.00  0.00    +0.002 C 
ATOM     34  C   UNL     1      27.819 -23.937 -16.201  0.00  0.00    +0.000 C 
ATOM     35  C   UNL     1      28.446 -25.243 -14.161  0.00  0.00    +0.000 C 
ENDBRANCH  32  33
ENDBRANCH   1  32
TORSDOF 11
ENDMDL
MODEL 4
REMARK VINA RESULT:     -10.1      9.835     16.524
REMARK  Name = 57920094
REMARK  11 active torsions:
REMARK  status: ('A' for Active; 'I' for Inactive)
REMARK    1  A    between atoms: C_1  and  C_6
REMARK    2  A    between atoms: C_1  and  N_19
REMARK    3  A    between atoms: C_1  and  C_32
REMARK    4  A    between atoms: N_4  and  C_11
REMARK    5  A    between atoms: C_11  and  C_12
REMARK    6  A    between atoms: C_12  and  O_13
REMARK    7  A    between atoms: C_12  and  C_15
REMARK    8  A    between atoms: C_15  and  O_16
REMARK    9  A    between atoms: C_22  and  O_24
REMARK   10  A    between atoms: O_24  and  C_26
REMARK   11  A    between atoms: C_32  and  C_33
REMARK                            x       y       z     vdW  Elec       q    Type
REMARK                         _______ _______ _______ _____ _____    ______ ____
ROOT
ATOM      1  C   UNL     1      32.258  -9.925 -22.262  0.00  0.00    +0.153 C 
ENDROOT
BRANCH   1   6
ATOM      2  O   UNL     1      32.311 -10.947 -24.449  0.00  0.00    -0.273 OA
ATOM      3  N   UNL     1      32.938 -12.217 -22.577  0.00  0.00    -0.267 N 
ATOM      4  N   UNL     1      33.779 -15.501 -23.319  0.00  0.00    -0.206 N 
ATOM      5  N   UNL     1      33.627 -14.527 -22.404  0.00  0.00    -0.163 NA
ATOM      6  C   UNL     1      32.514 -11.070 -23.244  0.00  0.00    +0.245 C 
ATOM      7  C   UNL     1      33.224 -13.484 -23.135  0.00  0.00    +0.153 C 
ATOM      8  C   UNL     1      33.121 -13.789 -24.505  0.00  0.00    +0.054 C 
ATOM      9  C   UNL     1      33.490 -15.110 -24.593  0.00  0.00    +0.087 C 
ATOM     10  H   UNL     1      33.050 -12.136 -21.602  0.00  0.00    +0.156 HD
BRANCH   4  11
ATOM     11  C   UNL     1      34.216 -16.812 -22.904  0.00  0.00    +0.148 C 
BRANCH  11  12
ATOM     12  C   UNL     1      35.287 -16.748 -21.810  0.00  0.00    +0.161 C 
BRANCH  12  13
ATOM     13  O   UNL     1      34.655 -16.411 -20.573  0.00  0.00    -0.380 OA
ATOM     14  H   UNL     1      34.247 -15.535 -20.647  0.00  0.00    +0.211 HD
ENDBRANCH  12  13
BRANCH  12  15
ATOM     15  C   UNL     1      35.981 -18.098 -21.644  0.00  0.00    +0.168 C 
BRANCH  15  16
ATOM     16  O   UNL     1      37.394 -17.926 -21.706  0.00  0.00    -0.379 OA
ATOM     17  H   UNL     1      37.722 -17.635 -20.841  0.00  0.00    +0.211 HD
ENDBRANCH  15  16
ENDBRANCH  12  15
ENDBRANCH  11  12
ENDBRANCH   4  11
ENDBRANCH   1   6
BRANCH   1  19
ATOM     18  O   UNL     1      34.616  -8.404 -23.257  0.00  0.00    -0.270 OA
ATOM     19  N   UNL     1      32.286  -8.700 -23.018  0.00  0.00    -0.262 N 
ATOM     20  C   UNL     1      31.102  -7.980 -23.433  0.00  0.00    +0.159 C 
ATOM     21  C   UNL     1      33.456  -8.070 -23.434  0.00  0.00    +0.253 C 
ATOM     22  C   UNL     1      31.718  -6.836 -24.152  0.00  0.00    +0.147 C 
ATOM     23  C   UNL     1      33.054  -6.856 -24.173  0.00  0.00    +0.093 C 
BRANCH  22  24
ATOM     24  O   UNL     1      30.937  -5.874 -24.725  0.00  0.00    -0.455 OA
BRANCH  24  26
ATOM     25 CL   UNL     1      32.093  -3.704 -26.462  0.00  0.00    -0.079 Cl
ATOM     26  C   UNL     1      30.964  -4.622 -24.163  0.00  0.00    +0.155 C 
ATOM     27  C   UNL     1      31.476  -3.527 -24.861  0.00  0.00    +0.092 C 
ATOM     28  C   UNL     1      30.470  -4.456 -22.870  0.00  0.00    +0.038 C 
ATOM     29  C   UNL     1      31.493  -2.266 -24.265  0.00  0.00    +0.014 C 
ATOM     30  C   UNL     1      30.488  -3.195 -22.273  0.00  0.00    +0.003 C 
ATOM     31  C   UNL     1      31.000  -2.100 -22.971  0.00  0.00    +0.001 C 
ENDBRANCH  24  26
ENDBRANCH  22  24
ENDBRANCH   1  19
BRANCH   1  32
ATOM     32  C   UNL     1      30.919 -10.133 -21.543  0.00  0.00    +0.029 C 
BRANCH  32  33
ATOM     33  C   UNL     1      30.871  -9.597 -20.098  0.00  0.00    +0.002 C 
ATOM     34  C   UNL     1      31.472  -8.196 -19.975  0.00  0.00    +0.000 C 
ATOM     35  C   UNL     1      31.613 -10.559 -19.166  0.00  0.00    +0.000 C 
ENDBRANCH  32  33
ENDBRANCH   1  32
TORSDOF 11
ENDMDL
MODEL 5
REMARK VINA RESULT:     -10.1      3.361      8.185
REMARK  Name = 57920094
REMARK  11 active torsions:
REMARK  status: ('A' for Active; 'I' for Inactive)
REMARK    1  A    between atoms: C_1  and  C_6
REMARK    2  A    between atoms: C_1  and  N_19
REMARK    3  A    between atoms: C_1  and  C_32
REMARK    4  A    between atoms: N_4  and  C_11
REMARK    5  A    between atoms: C_11  and  C_12
REMARK    6  A    between atoms: C_12  and  O_13
REMARK    7  A    between atoms: C_12  and  C_15
REMARK    8  A    between atoms: C_15  and  O_16
REMARK    9  A    between atoms: C_22  and  O_24
REMARK   10  A    between atoms: O_24  and  C_26
REMARK   11  A    between atoms: C_32  and  C_33
REMARK                            x       y       z     vdW  Elec       q    Type
REMARK                         _______ _______ _______ _____ _____    ______ ____
ROOT
ATOM      1  C   UNL     1      35.934 -23.248 -14.540  0.00  0.00    +0.153 C 
ENDROOT
BRANCH   1   6
ATOM      2  O   UNL     1      34.456 -25.062 -13.945  0.00  0.00    -0.273 OA
ATOM      3  N   UNL     1      33.541 -22.966 -14.474  0.00  0.00    -0.267 N 
ATOM      4  N   UNL     1      30.073 -22.880 -14.385  0.00  0.00    -0.206 N 
ATOM      5  N   UNL     1      31.238 -22.241 -14.593  0.00  0.00    -0.163 NA
ATOM      6  C   UNL     1      34.570 -23.881 -14.264  0.00  0.00    +0.245 C 
ATOM      7  C   UNL     1      32.149 -23.192 -14.369  0.00  0.00    +0.153 C 
ATOM      8  C   UNL     1      31.570 -24.428 -14.021  0.00  0.00    +0.054 C 
ATOM      9  C   UNL     1      30.217 -24.191 -14.039  0.00  0.00    +0.087 C 
ATOM     10  H   UNL     1      33.816 -22.055 -14.727  0.00  0.00    +0.156 HD
BRANCH   4  11
ATOM     11  C   UNL     1      28.828 -22.165 -14.533  0.00  0.00    +0.148 C 
BRANCH  11  12
ATOM     12  C   UNL     1      28.375 -22.084 -15.994  0.00  0.00    +0.161 C 
BRANCH  12  13
ATOM     13  O   UNL     1      29.534 -21.988 -16.825  0.00  0.00    -0.380 OA
ATOM     14  H   UNL     1      29.566 -22.749 -17.425  0.00  0.00    +0.211 HD
ENDBRANCH  12  13
BRANCH  12  15
ATOM     15  C   UNL     1      27.598 -23.335 -16.396  0.00  0.00    +0.168 C 
BRANCH  15  16
ATOM     16  O   UNL     1      27.064 -23.172 -17.707  0.00  0.00    -0.379 OA
ATOM     17  H   UNL     1      27.388 -22.342 -18.087  0.00  0.00    +0.211 HD
ENDBRANCH  15  16
ENDBRANCH  12  15
ENDBRANCH  11  12
ENDBRANCH   4  11
ENDBRANCH   1   6
BRANCH   1  19
ATOM     18  O   UNL     1      37.838 -21.303 -15.747  0.00  0.00    -0.270 OA
ATOM     19  N   UNL     1      35.836 -22.551 -15.797  0.00  0.00    -0.262 N 
ATOM     20  C   UNL     1      34.729 -22.701 -16.718  0.00  0.00    +0.159 C 
ATOM     21  C   UNL     1      36.792 -21.656 -16.267  0.00  0.00    +0.253 C 
ATOM     22  C   UNL     1      35.151 -21.777 -17.800  0.00  0.00    +0.147 C 
ATOM     23  C   UNL     1      36.319 -21.166 -17.577  0.00  0.00    +0.093 C 
BRANCH  22  24
ATOM     24  O   UNL     1      34.372 -21.603 -18.908  0.00  0.00    -0.455 OA
BRANCH  24  26
ATOM     25 CL   UNL     1      32.018 -20.331 -20.286  0.00  0.00    -0.079 Cl
ATOM     26  C   UNL     1      34.672 -20.546 -19.731  0.00  0.00    +0.155 C 
ATOM     27  C   UNL     1      33.673 -19.869 -20.431  0.00  0.00    +0.092 C 
ATOM     28  C   UNL     1      36.004 -20.155 -19.863  0.00  0.00    +0.038 C 
ATOM     29  C   UNL     1      34.006 -18.800 -21.263  0.00  0.00    +0.014 C 
ATOM     30  C   UNL     1      36.338 -19.086 -20.695  0.00  0.00    +0.003 C 
ATOM     31  C   UNL     1      35.339 -18.408 -21.395  0.00  0.00    +0.001 C 
ENDBRANCH  24  26
ENDBRANCH  22  24
ENDBRANCH   1  19
BRANCH   1  32
ATOM     32  C   UNL     1      36.329 -22.314 -13.389  0.00  0.00    +0.029 C 
BRANCH  32  33
ATOM     33  C   UNL     1      37.197 -22.968 -12.295  0.00  0.00    +0.002 C 
ATOM     34  C   UNL     1      37.906 -24.229 -12.788  0.00  0.00    +0.000 C 
ATOM     35  C   UNL     1      36.326 -23.309 -11.081  0.00  0.00    +0.000 C 
ENDBRANCH  32  33
ENDBRANCH   1  32
TORSDOF 11
ENDMDL
MODEL 6
REMARK VINA RESULT:     -10.0      4.691      8.726
REMARK  Name = 57920094
REMARK  11 active torsions:
REMARK  status: ('A' for Active; 'I' for Inactive)
REMARK    1  A    between atoms: C_1  and  C_6
REMARK    2  A    between atoms: C_1  and  N_19
REMARK    3  A    between atoms: C_1  and  C_32
REMARK    4  A    between atoms: N_4  and  C_11
REMARK    5  A    between atoms: C_11  and  C_12
REMARK    6  A    between atoms: C_12  and  O_13
REMARK    7  A    between atoms: C_12  and  C_15
REMARK    8  A    between atoms: C_15  and  O_16
REMARK    9  A    between atoms: C_22  and  O_24
REMARK   10  A    between atoms: O_24  and  C_26
REMARK   11  A    between atoms: C_32  and  C_33
REMARK                            x       y       z     vdW  Elec       q    Type
REMARK                         _______ _______ _______ _____ _____    ______ ____
ROOT
ATOM      1  C   UNL     1      35.047 -16.721 -22.354  0.00  0.00    +0.153 C 
ENDROOT
BRANCH   1   6
ATOM      2  O   UNL     1      34.316 -15.845 -20.226  0.00  0.00    -0.273 OA
ATOM      3  N   UNL     1      33.701 -14.727 -22.197  0.00  0.00    -0.267 N 
ATOM      4  N   UNL     1      31.693 -11.946 -21.672  0.00  0.00    -0.206 N 
ATOM      5  N   UNL     1      32.341 -12.756 -22.527  0.00  0.00    -0.163 NA
ATOM      6  C   UNL     1      34.333 -15.716 -21.448  0.00  0.00    +0.245 C 
ATOM      7  C   UNL     1      32.906 -13.659 -21.721  0.00  0.00    +0.153 C 
ATOM      8  C   UNL     1      32.621 -13.426 -20.362  0.00  0.00    +0.054 C 
ATOM      9  C   UNL     1      31.830 -12.303 -20.363  0.00  0.00    +0.087 C 
ATOM     10  H   UNL     1      33.822 -14.777 -23.173  0.00  0.00    +0.156 HD
BRANCH   4  11
ATOM     11  C   UNL     1      30.946 -10.820 -22.178  0.00  0.00    +0.148 C 
BRANCH  11  12
ATOM     12  C   UNL     1      31.816  -9.570 -22.341  0.00  0.00    +0.161 C 
BRANCH  12  13
ATOM     13  O   UNL     1      32.861  -9.862 -23.273  0.00  0.00    -0.380 OA
ATOM     14  H   UNL     1      33.199  -9.034 -23.647  0.00  0.00    +0.211 HD
ENDBRANCH  12  13
BRANCH  12  15
ATOM     15  C   UNL     1      30.999  -8.401 -22.883  0.00  0.00    +0.168 C 
BRANCH  15  16
ATOM     16  O   UNL     1      30.898  -7.381 -21.894  0.00  0.00    -0.379 OA
ATOM     17  H   UNL     1      30.402  -6.630 -22.253  0.00  0.00    +0.211 HD
ENDBRANCH  15  16
ENDBRANCH  12  15
ENDBRANCH  11  12
ENDBRANCH   4  11
ENDBRANCH   1   6
BRANCH   1  19
ATOM     18  O   UNL     1      37.543 -18.168 -21.620  0.00  0.00    -0.270 OA
ATOM     19  N   UNL     1      35.194 -17.942 -21.606  0.00  0.00    -0.262 N 
ATOM     20  C   UNL     1      34.083 -18.696 -21.065  0.00  0.00    +0.159 C 
ATOM     21  C   UNL     1      36.419 -18.536 -21.318  0.00  0.00    +0.253 C 
ATOM     22  C   UNL     1      34.807 -19.818 -20.416  0.00  0.00    +0.147 C 
ATOM     23  C   UNL     1      36.136 -19.759 -20.541  0.00  0.00    +0.093 C 
BRANCH  22  24
ATOM     24  O   UNL     1      34.122 -20.802 -19.762  0.00  0.00    -0.455 OA
BRANCH  24  26
ATOM     25 CL   UNL     1      32.184 -22.207 -17.939  0.00  0.00    -0.079 Cl
ATOM     26  C   UNL     1      34.652 -21.264 -18.584  0.00  0.00    +0.155 C 
ATOM     27  C   UNL     1      33.861 -21.932 -17.649  0.00  0.00    +0.092 C 
ATOM     28  C   UNL     1      36.006 -21.053 -18.329  0.00  0.00    +0.038 C 
ATOM     29  C   UNL     1      34.426 -22.390 -16.458  0.00  0.00    +0.014 C 
ATOM     30  C   UNL     1      36.571 -21.510 -17.138  0.00  0.00    +0.003 C 
ATOM     31  C   UNL     1      35.781 -22.178 -16.203  0.00  0.00    +0.001 C 
ENDBRANCH  24  26
ENDBRANCH  22  24
ENDBRANCH   1  19
BRANCH   1  32
ATOM     32  C   UNL     1      34.252 -16.926 -23.649  0.00  0.00    +0.029 C 
BRANCH  32  33
ATOM     33  C   UNL     1      33.608 -18.319 -23.800  0.00  0.00    +0.002 C 
ATOM     34  C   UNL     1      34.602 -19.370 -24.296  0.00  0.00    +0.000 C 
ATOM     35  C   UNL     1      32.421 -18.237 -24.765  0.00  0.00    +0.000 C 
ENDBRANCH  32  33
ENDBRANCH   1  32
TORSDOF 11
ENDMDL
MODEL 7
REMARK VINA RESULT:     -10.0      3.445      7.954
REMARK  Name = 57920094
REMARK  11 active torsions:
REMARK  status: ('A' for Active; 'I' for Inactive)
REMARK    1  A    between atoms: C_1  and  C_6
REMARK    2  A    between atoms: C_1  and  N_19
REMARK    3  A    between atoms: C_1  and  C_32
REMARK    4  A    between atoms: N_4  and  C_11
REMARK    5  A    between atoms: C_11  and  C_12
REMARK    6  A    between atoms: C_12  and  O_13
REMARK    7  A    between atoms: C_12  and  C_15
REMARK    8  A    between atoms: C_15  and  O_16
REMARK    9  A    between atoms: C_22  and  O_24
REMARK   10  A    between atoms: O_24  and  C_26
REMARK   11  A    between atoms: C_32  and  C_33
REMARK                            x       y       z     vdW  Elec       q    Type
REMARK                         _______ _______ _______ _____ _____    ______ ____
ROOT
ATOM      1  C   UNL     1      32.888 -22.809 -14.794  0.00  0.00    +0.153 C 
ENDROOT
BRANCH   1   6
ATOM      2  O   UNL     1      33.544 -23.537 -12.587  0.00  0.00    -0.273 OA
ATOM      3  N   UNL     1      34.886 -24.107 -14.427  0.00  0.00    -0.267 N 
ATOM      4  N   UNL     1      37.740 -25.896 -13.590  0.00  0.00    -0.206 N 
ATOM      5  N   UNL     1      36.970 -25.327 -14.535  0.00  0.00    -0.163 NA
ATOM      6  C   UNL     1      33.787 -23.534 -13.792  0.00  0.00    +0.245 C 
ATOM      7  C   UNL     1      35.958 -24.812 -13.832  0.00  0.00    +0.153 C 
ATOM      8  C   UNL     1      36.079 -25.052 -12.450  0.00  0.00    +0.054 C 
ATOM      9  C   UNL     1      37.249 -25.760 -12.324  0.00  0.00    +0.087 C 
ATOM     10  H   UNL     1      34.921 -24.008 -15.406  0.00  0.00    +0.156 HD
BRANCH   4  11
ATOM     11  C   UNL     1      38.957 -26.571 -13.969  0.00  0.00    +0.148 C 
BRANCH  11  12
ATOM     12  C   UNL     1      40.005 -25.608 -14.534  0.00  0.00    +0.161 C 
BRANCH  12  13
ATOM     13  O   UNL     1      39.890 -25.595 -15.959  0.00  0.00    -0.380 OA
ATOM     14  H   UNL     1      40.761 -25.433 -16.352  0.00  0.00    +0.211 HD
ENDBRANCH  12  13
BRANCH  12  15
ATOM     15  C   UNL     1      39.777 -24.188 -14.020  0.00  0.00    +0.168 C 
BRANCH  15  16
ATOM     16  O   UNL     1      39.073 -23.427 -14.998  0.00  0.00    -0.379 OA
ATOM     17  H   UNL     1      38.369 -23.970 -15.384  0.00  0.00    +0.211 HD
ENDBRANCH  15  16
ENDBRANCH  12  15
ENDBRANCH  11  12
ENDBRANCH   4  11
ENDBRANCH   1   6
BRANCH   1  19
ATOM     18  O   UNL     1      35.582 -21.543 -14.759  0.00  0.00    -0.270 OA
ATOM     19  N   UNL     1      33.715 -22.420 -15.907  0.00  0.00    -0.262 N 
ATOM     20  C   UNL     1      33.339 -22.597 -17.293  0.00  0.00    +0.159 C 
ATOM     21  C   UNL     1      34.969 -21.831 -15.775  0.00  0.00    +0.253 C 
ATOM     22  C   UNL     1      34.534 -22.035 -17.972  0.00  0.00    +0.147 C 
ATOM     23  C   UNL     1      35.480 -21.590 -17.139  0.00  0.00    +0.093 C 
BRANCH  22  24
ATOM     24  O   UNL     1      34.606 -21.999 -19.335  0.00  0.00    -0.455 OA
BRANCH  24  26
ATOM     25 CL   UNL     1      32.100 -20.549 -20.158  0.00  0.00    -0.079 Cl
ATOM     26  C   UNL     1      34.801 -20.775 -19.925  0.00  0.00    +0.155 C 
ATOM     27  C   UNL     1      33.723 -20.001 -20.355  0.00  0.00    +0.092 C 
ATOM     28  C   UNL     1      36.105 -20.312 -20.094  0.00  0.00    +0.038 C 
ATOM     29  C   UNL     1      33.951 -18.761 -20.954  0.00  0.00    +0.014 C 
ATOM     30  C   UNL     1      36.333 -19.073 -20.693  0.00  0.00    +0.003 C 
ATOM     31  C   UNL     1      35.255 -18.298 -21.124  0.00  0.00    +0.001 C 
ENDBRANCH  24  26
ENDBRANCH  22  24
ENDBRANCH   1  19
BRANCH   1  32
ATOM     32  C   UNL     1      31.730 -23.720 -15.222  0.00  0.00    +0.029 C 
BRANCH  32  33
ATOM     33  C   UNL     1      30.509 -23.699 -14.281  0.00  0.00    +0.002 C 
ATOM     34  C   UNL     1      29.690 -24.988 -14.359  0.00  0.00    +0.000 C 
ATOM     35  C   UNL     1      29.616 -22.501 -14.620  0.00  0.00    +0.000 C 
ENDBRANCH  32  33
ENDBRANCH   1  32
TORSDOF 11
ENDMDL
MODEL 8
REMARK VINA RESULT:      -9.9      2.798      6.404
REMARK  Name = 57920094
REMARK  11 active torsions:
REMARK  status: ('A' for Active; 'I' for Inactive)
REMARK    1  A    between atoms: C_1  and  C_6
REMARK    2  A    between atoms: C_1  and  N_19
REMARK    3  A    between atoms: C_1  and  C_32
REMARK    4  A    between atoms: N_4  and  C_11
REMARK    5  A    between atoms: C_11  and  C_12
REMARK    6  A    between atoms: C_12  and  O_13
REMARK    7  A    between atoms: C_12  and  C_15
REMARK    8  A    between atoms: C_15  and  O_16
REMARK    9  A    between atoms: C_22  and  O_24
REMARK   10  A    between atoms: O_24  and  C_26
REMARK   11  A    between atoms: C_32  and  C_33
REMARK                            x       y       z     vdW  Elec       q    Type
REMARK                         _______ _______ _______ _____ _____    ______ ____
ROOT
ATOM      1  C   UNL     1      34.134 -21.878 -17.335  0.00  0.00    +0.153 C 
ENDROOT
BRANCH   1   6
ATOM      2  O   UNL     1      33.465 -23.526 -15.701  0.00  0.00    -0.273 OA
ATOM      3  N   UNL     1      31.813 -22.364 -16.898  0.00  0.00    -0.267 N 
ATOM      4  N   UNL     1      28.571 -23.332 -16.127  0.00  0.00    -0.206 N 
ATOM      5  N   UNL     1      29.404 -22.550 -16.836  0.00  0.00    -0.163 NA
ATOM      6  C   UNL     1      33.117 -22.684 -16.526  0.00  0.00    +0.245 C 
ATOM      7  C   UNL     1      30.612 -22.931 -16.412  0.00  0.00    +0.153 C 
ATOM      8  C   UNL     1      30.551 -23.947 -15.440  0.00  0.00    +0.054 C 
ATOM      9  C   UNL     1      29.209 -24.186 -15.275  0.00  0.00    +0.087 C 
ATOM     10  H   UNL     1      31.717 -21.660 -17.579  0.00  0.00    +0.156 HD
BRANCH   4  11
ATOM     11  C   UNL     1      27.145 -23.211 -16.310  0.00  0.00    +0.148 C 
BRANCH  11  12
ATOM     12  C   UNL     1      26.545 -22.081 -15.468  0.00  0.00    +0.161 C 
BRANCH  12  13
ATOM     13  O   UNL     1      27.605 -21.231 -15.025  0.00  0.00    -0.380 OA
ATOM     14  H   UNL     1      27.240 -20.513 -14.486  0.00  0.00    +0.211 HD
ENDBRANCH  12  13
BRANCH  12  15
ATOM     15  C   UNL     1      25.569 -21.244 -16.292  0.00  0.00    +0.168 C 
BRANCH  15  16
ATOM     16  O   UNL     1      26.280 -20.514 -17.288  0.00  0.00    -0.379 OA
ATOM     17  H   UNL     1      27.047 -21.030 -17.581  0.00  0.00    +0.211 HD
ENDBRANCH  15  16
ENDBRANCH  12  15
ENDBRANCH  11  12
ENDBRANCH   4  11
ENDBRANCH   1   6
BRANCH   1  19
ATOM     18  O   UNL     1      36.568 -20.191 -17.637  0.00  0.00    -0.270 OA
ATOM     19  N   UNL     1      35.404 -22.001 -16.667  0.00  0.00    -0.262 N 
ATOM     20  C   UNL     1      35.707 -23.024 -15.690  0.00  0.00    +0.159 C 
ATOM     21  C   UNL     1      36.483 -21.149 -16.886  0.00  0.00    +0.253 C 
ATOM     22  C   UNL     1      37.109 -22.672 -15.354  0.00  0.00    +0.147 C 
ATOM     23  C   UNL     1      37.583 -21.611 -16.016  0.00  0.00    +0.093 C 
BRANCH  22  24
ATOM     24  O   UNL     1      37.810 -23.405 -14.440  0.00  0.00    -0.455 OA
BRANCH  24  26
ATOM     25 CL   UNL     1      37.193 -26.284 -13.818  0.00  0.00    -0.079 Cl
ATOM     26  C   UNL     1      37.216 -23.630 -13.223  0.00  0.00    +0.155 C 
ATOM     27  C   UNL     1      36.877 -24.920 -12.812  0.00  0.00    +0.092 C 
ATOM     28  C   UNL     1      36.951 -22.541 -12.393  0.00  0.00    +0.038 C 
ATOM     29  C   UNL     1      36.272 -25.120 -11.571  0.00  0.00    +0.014 C 
ATOM     30  C   UNL     1      36.346 -22.741 -11.152  0.00  0.00    +0.003 C 
ATOM     31  C   UNL     1      36.006 -24.031 -10.741  0.00  0.00    +0.001 C 
ENDBRANCH  24  26
ENDBRANCH  22  24
ENDBRANCH   1  19
BRANCH   1  32
ATOM     32  C   UNL     1      34.187 -22.388 -18.780  0.00  0.00    +0.029 C 
BRANCH  32  33
ATOM     33  C   UNL     1      33.802 -21.345 -19.849  0.00  0.00    +0.002 C 
ATOM     34  C   UNL     1      34.937 -20.362 -20.140  0.00  0.00    +0.000 C 
ATOM     35  C   UNL     1      32.559 -20.574 -19.394  0.00  0.00    +0.000 C 
ENDBRANCH  32  33
ENDBRANCH   1  32
TORSDOF 11
ENDMDL
MODEL 9
REMARK VINA RESULT:      -9.8      3.126      7.299
REMARK  Name = 57920094
REMARK  11 active torsions:
REMARK  status: ('A' for Active; 'I' for Inactive)
REMARK    1  A    between atoms: C_1  and  C_6
REMARK    2  A    between atoms: C_1  and  N_19
REMARK    3  A    between atoms: C_1  and  C_32
REMARK    4  A    between atoms: N_4  and  C_11
REMARK    5  A    between atoms: C_11  and  C_12
REMARK    6  A    between atoms: C_12  and  O_13
REMARK    7  A    between atoms: C_12  and  C_15
REMARK    8  A    between atoms: C_15  and  O_16
REMARK    9  A    between atoms: C_22  and  O_24
REMARK   10  A    between atoms: O_24  and  C_26
REMARK   11  A    between atoms: C_32  and  C_33
REMARK                            x       y       z     vdW  Elec       q    Type
REMARK                         _______ _______ _______ _____ _____    ______ ____
ROOT
ATOM      1  C   UNL     1      30.980 -23.152 -14.536  0.00  0.00    +0.153 C 
ENDROOT
BRANCH   1   6
ATOM      2  O   UNL     1      31.937 -22.562 -12.399  0.00  0.00    -0.273 OA
ATOM      3  N   UNL     1      33.210 -23.825 -13.913  0.00  0.00    -0.267 N 
ATOM      4  N   UNL     1      36.406 -24.572 -12.788  0.00  0.00    -0.206 N 
ATOM      5  N   UNL     1      35.471 -24.665 -13.748  0.00  0.00    -0.163 NA
ATOM      6  C   UNL     1      32.077 -23.146 -13.470  0.00  0.00    +0.245 C 
ATOM      7  C   UNL     1      34.439 -23.991 -13.234  0.00  0.00    +0.153 C 
ATOM      8  C   UNL     1      34.713 -23.473 -11.953  0.00  0.00    +0.054 C 
ATOM      9  C   UNL     1      36.002 -23.869 -11.691  0.00  0.00    +0.087 C 
ATOM     10  H   UNL     1      33.147 -24.238 -14.805  0.00  0.00    +0.156 HD
BRANCH   4  11
ATOM     11  C   UNL     1      37.694 -25.193 -12.980  0.00  0.00    +0.148 C 
BRANCH  11  12
ATOM     12  C   UNL     1      38.284 -24.892 -14.361  0.00  0.00    +0.161 C 
BRANCH  12  13
ATOM     13  O   UNL     1      38.143 -23.494 -14.621  0.00  0.00    -0.380 OA
ATOM     14  H   UNL     1      37.582 -23.093 -13.939  0.00  0.00    +0.211 HD
ENDBRANCH  12  13
BRANCH  12  15
ATOM     15  C   UNL     1      39.769 -25.243 -14.410  0.00  0.00    +0.168 C 
BRANCH  15  16
ATOM     16  O   UNL     1      40.129 -25.642 -15.730  0.00  0.00    -0.379 OA
ATOM     17  H   UNL     1      41.018 -26.028 -15.720  0.00  0.00    +0.211 HD
ENDBRANCH  15  16
ENDBRANCH  12  15
ENDBRANCH  11  12
ENDBRANCH   4  11
ENDBRANCH   1   6
BRANCH   1  19
ATOM     18  O   UNL     1      29.834 -21.648 -16.835  0.00  0.00    -0.270 OA
ATOM     19  N   UNL     1      31.601 -22.812 -15.790  0.00  0.00    -0.262 N 
ATOM     20  C   UNL     1      32.958 -23.172 -16.143  0.00  0.00    +0.159 C 
ATOM     21  C   UNL     1      30.967 -22.100 -16.804  0.00  0.00    +0.253 C 
ATOM     22  C   UNL     1      33.050 -22.581 -17.501  0.00  0.00    +0.147 C 
ATOM     23  C   UNL     1      31.937 -21.964 -17.909  0.00  0.00    +0.093 C 
BRANCH  22  24
ATOM     24  O   UNL     1      34.200 -22.689 -18.229  0.00  0.00    -0.455 OA
BRANCH  24  26
ATOM     25 CL   UNL     1      36.798 -21.463 -17.330  0.00  0.00    -0.079 Cl
ATOM     26  C   UNL     1      34.606 -21.586 -18.937  0.00  0.00    +0.155 C 
ATOM     27  C   UNL     1      35.791 -20.920 -18.622  0.00  0.00    +0.092 C 
ATOM     28  C   UNL     1      33.808 -21.130 -19.985  0.00  0.00    +0.038 C 
ATOM     29  C   UNL     1      36.179 -19.800 -19.356  0.00  0.00    +0.014 C 
ATOM     30  C   UNL     1      34.195 -20.008 -20.720  0.00  0.00    +0.003 C 
ATOM     31  C   UNL     1      35.380 -19.343 -20.405  0.00  0.00    +0.001 C 
ENDBRANCH  24  26
ENDBRANCH  22  24
ENDBRANCH   1  19
BRANCH   1  32
ATOM     32  C   UNL     1      30.292 -24.522 -14.581  0.00  0.00    +0.029 C 
BRANCH  32  33
ATOM     33  C   UNL     1      28.752 -24.475 -14.514  0.00  0.00    +0.002 C 
ATOM     34  C   UNL     1      28.155 -25.749 -13.915  0.00  0.00    +0.000 C 
ATOM     35  C   UNL     1      28.181 -24.249 -15.917  0.00  0.00    +0.000 C 
ENDBRANCH  32  33
ENDBRANCH   1  32
TORSDOF 11
ENDMDL
