MODEL 1
REMARK VINA RESULT:     -10.3      0.000      0.000
REMARK  Name = 11438771
REMARK  3 active torsions:
REMARK  status: ('A' for Active; 'I' for Inactive)
REMARK    1  A    between atoms: N_1  and  C_9
REMARK    2  A    between atoms: C_5  and  C_15
REMARK    3  A    between atoms: C_16  and  C_19
REMARK                            x       y       z     vdW  Elec       q    Type
REMARK                         _______ _______ _______ _____ _____    ______ ____
ROOT
ATOM      1  N   UNL     1      34.241 -16.549 -22.346  0.00  0.00    -0.261 N 
ATOM      2  N   UNL     1      33.569 -15.249 -24.033  0.00  0.00    -0.386 NA
ATOM      3  C   UNL     1      33.987 -15.311 -21.806  0.00  0.00    +0.139 C 
ATOM      4  C   UNL     1      33.972 -16.453 -23.691  0.00  0.00    +0.165 C 
ATOM      5  C   UNL     1      33.576 -14.533 -22.862  0.00  0.00    +0.170 C 
ATOM      6  C   UNL     1      34.158 -15.006 -20.372  0.00  0.00    +0.030 C 
ATOM      7  C   UNL     1      34.133 -17.598 -24.612  0.00  0.00    +0.084 C 
ENDROOT
BRANCH   1   9
ATOM      8  F   UNL     1      35.994 -21.023 -19.648  0.00  0.00    -0.204 F 
ATOM      9  C   UNL     1      34.681 -17.671 -21.669  0.00  0.00    +0.054 C 
ATOM     10  C   UNL     1      36.043 -17.850 -21.425  0.00  0.00    +0.017 C 
ATOM     11  C   UNL     1      33.763 -18.625 -21.229  0.00  0.00    +0.017 C 
ATOM     12  C   UNL     1      36.486 -18.982 -20.743  0.00  0.00    +0.031 C 
ATOM     13  C   UNL     1      34.206 -19.757 -20.547  0.00  0.00    +0.031 C 
ATOM     14  C   UNL     1      35.568 -19.937 -20.304  0.00  0.00    +0.140 C 
ENDBRANCH   1   9
BRANCH   5  15
ATOM     15  C   UNL     1      33.192 -13.166 -22.846  0.00  0.00    -0.031 C 
ATOM     16  C   UNL     1      32.862 -12.000 -22.833  0.00  0.00    -0.057 C 
BRANCH  16  19
ATOM     17 CL   UNL     1      33.928  -7.057 -23.808  0.00  0.00    -0.061 Cl
ATOM     18  N   UNL     1      31.713  -7.935 -22.787  0.00  0.00    -0.232 NA
ATOM     19  C   UNL     1      32.474 -10.623 -22.818  0.00  0.00    +0.046 C 
ATOM     20  C   UNL     1      33.344  -9.648 -23.288  0.00  0.00    +0.039 C 
ATOM     21  C   UNL     1      31.223 -10.258 -22.332  0.00  0.00    +0.029 C 
ATOM     22  C   UNL     1      32.920  -8.329 -23.251  0.00  0.00    +0.139 C 
ATOM     23  C   UNL     1      30.894  -8.913 -22.338  0.00  0.00    +0.100 C 
ENDBRANCH  16  19
ENDBRANCH   5  15
TORSDOF 3
ENDMDL
MODEL 2
REMARK VINA RESULT:     -10.2      6.475      9.947
REMARK  Name = 11438771
REMARK  3 active torsions:
REMARK  status: ('A' for Active; 'I' for Inactive)
REMARK    1  A    between atoms: N_1  and  C_9
REMARK    2  A    between atoms: C_5  and  C_15
REMARK    3  A    between atoms: C_16  and  C_19
REMARK                            x       y       z     vdW  Elec       q    Type
REMARK                         _______ _______ _______ _____ _____    ______ ____
ROOT
ATOM      1  N   UNL     1      35.218 -23.076 -15.487  0.00  0.00    -0.261 N 
ATOM      2  N   UNL     1      33.681 -22.522 -17.009  0.00  0.00    -0.386 NA
ATOM      3  C   UNL     1      35.848 -22.265 -16.399  0.00  0.00    +0.139 C 
ATOM      4  C   UNL     1      33.913 -23.197 -15.904  0.00  0.00    +0.165 C 
ATOM      5  C   UNL     1      34.884 -21.940 -17.323  0.00  0.00    +0.170 C 
ATOM      6  C   UNL     1      37.274 -21.893 -16.299  0.00  0.00    +0.030 C 
ATOM      7  C   UNL     1      32.919 -24.003 -15.165  0.00  0.00    +0.084 C 
ENDROOT
BRANCH   1   9
ATOM      8  F   UNL     1      37.479 -25.390 -11.025  0.00  0.00    -0.204 F 
ATOM      9  C   UNL     1      35.784 -23.656 -14.368  0.00  0.00    +0.054 C 
ATOM     10  C   UNL     1      35.794 -22.969 -13.154  0.00  0.00    +0.017 C 
ATOM     11  C   UNL     1      36.348 -24.930 -14.452  0.00  0.00    +0.017 C 
ATOM     12  C   UNL     1      36.367 -23.554 -12.026  0.00  0.00    +0.031 C 
ATOM     13  C   UNL     1      36.921 -25.516 -13.323  0.00  0.00    +0.031 C 
ATOM     14  C   UNL     1      36.930 -24.828 -12.109  0.00  0.00    +0.140 C 
ENDBRANCH   1   9
BRANCH   5  15
ATOM     15  C   UNL     1      35.014 -21.122 -18.476  0.00  0.00    -0.031 C 
ATOM     16  C   UNL     1      35.125 -20.423 -19.460  0.00  0.00    -0.057 C 
BRANCH  16  19
ATOM     17 CL   UNL     1      33.225 -18.649 -23.904  0.00  0.00    -0.061 Cl
ATOM     18  N   UNL     1      35.516 -17.986 -22.888  0.00  0.00    -0.232 NA
ATOM     19  C   UNL     1      35.257 -19.598 -20.621  0.00  0.00    +0.046 C 
ATOM     20  C   UNL     1      34.244 -19.565 -21.571  0.00  0.00    +0.039 C 
ATOM     21  C   UNL     1      36.399 -18.827 -20.801  0.00  0.00    +0.029 C 
ATOM     22  C   UNL     1      34.421 -18.751 -22.678  0.00  0.00    +0.139 C 
ATOM     23  C   UNL     1      36.479 -18.045 -21.941  0.00  0.00    +0.100 C 
ENDBRANCH  16  19
ENDBRANCH   5  15
TORSDOF 3
ENDMDL
MODEL 3
REMARK VINA RESULT:     -10.1      4.839      9.901
REMARK  Name = 11438771
REMARK  3 active torsions:
REMARK  status: ('A' for Active; 'I' for Inactive)
REMARK    1  A    between atoms: N_1  and  C_9
REMARK    2  A    between atoms: C_5  and  C_15
REMARK    3  A    between atoms: C_16  and  C_19
REMARK                            x       y       z     vdW  Elec       q    Type
REMARK                         _______ _______ _______ _____ _____    ______ ____
ROOT
ATOM      1  N   UNL     1      32.481  -8.164 -22.628  0.00  0.00    -0.261 N 
ATOM      2  N   UNL     1      34.050  -9.314 -23.726  0.00  0.00    -0.386 NA
ATOM      3  C   UNL     1      32.210  -9.494 -22.415  0.00  0.00    +0.139 C 
ATOM      4  C   UNL     1      33.601  -8.115 -23.425  0.00  0.00    +0.165 C 
ATOM      5  C   UNL     1      33.187 -10.178 -23.099  0.00  0.00    +0.170 C 
ATOM      6  C   UNL     1      31.073  -9.965 -21.599  0.00  0.00    +0.030 C 
ATOM      7  C   UNL     1      34.197  -6.838 -23.870  0.00  0.00    +0.084 C 
ENDROOT
BRANCH   1   9
ATOM      8  F   UNL     1      29.640  -3.867 -20.670  0.00  0.00    -0.204 F 
ATOM      9  C   UNL     1      31.768  -7.087 -22.137  0.00  0.00    +0.054 C 
ATOM     10  C   UNL     1      30.727  -6.538 -22.886  0.00  0.00    +0.017 C 
ATOM     11  C   UNL     1      32.089  -6.547 -20.891  0.00  0.00    +0.017 C 
ATOM     12  C   UNL     1      30.009  -5.451 -22.391  0.00  0.00    +0.031 C 
ATOM     13  C   UNL     1      31.371  -5.459 -20.395  0.00  0.00    +0.031 C 
ATOM     14  C   UNL     1      30.330  -4.911 -21.146  0.00  0.00    +0.140 C 
ENDBRANCH   1   9
BRANCH   5  15
ATOM     15  C   UNL     1      33.364 -11.583 -23.205  0.00  0.00    -0.031 C 
ATOM     16  C   UNL     1      33.517 -12.781 -23.295  0.00  0.00    -0.057 C 
BRANCH  16  19
ATOM     17 CL   UNL     1      35.140 -17.232 -21.278  0.00  0.00    -0.061 Cl
ATOM     18  N   UNL     1      34.047 -16.960 -23.613  0.00  0.00    -0.232 NA
ATOM     19  C   UNL     1      33.697 -14.196 -23.402  0.00  0.00    +0.046 C 
ATOM     20  C   UNL     1      34.278 -14.906 -22.359  0.00  0.00    +0.039 C 
ATOM     21  C   UNL     1      33.289 -14.865 -24.551  0.00  0.00    +0.029 C 
ATOM     22  C   UNL     1      34.430 -16.275 -22.513  0.00  0.00    +0.139 C 
ATOM     23  C   UNL     1      33.485 -16.235 -24.606  0.00  0.00    +0.100 C 
ENDBRANCH  16  19
ENDBRANCH   5  15
TORSDOF 3
ENDMDL
MODEL 4
REMARK VINA RESULT:      -9.7      2.614      4.312
REMARK  Name = 11438771
REMARK  3 active torsions:
REMARK  status: ('A' for Active; 'I' for Inactive)
REMARK    1  A    between atoms: N_1  and  C_9
REMARK    2  A    between atoms: C_5  and  C_15
REMARK    3  A    between atoms: C_16  and  C_19
REMARK                            x       y       z     vdW  Elec       q    Type
REMARK                         _______ _______ _______ _____ _____    ______ ____
ROOT
ATOM      1  N   UNL     1      32.808 -13.211 -22.031  0.00  0.00    -0.261 N 
ATOM      2  N   UNL     1      31.578 -11.702 -20.938  0.00  0.00    -0.386 NA
ATOM      3  C   UNL     1      32.796 -12.081 -22.811  0.00  0.00    +0.139 C 
ATOM      4  C   UNL     1      32.059 -12.926 -20.914  0.00  0.00    +0.165 C 
ATOM      5  C   UNL     1      32.034 -11.170 -22.119  0.00  0.00    +0.170 C 
ATOM      6  C   UNL     1      33.495 -11.988 -24.109  0.00  0.00    +0.030 C 
ATOM      7  C   UNL     1      31.843 -13.912 -19.834  0.00  0.00    +0.084 C 
ENDROOT
BRANCH   1   9
ATOM      8  F   UNL     1      35.365 -17.963 -23.155  0.00  0.00    -0.204 F 
ATOM      9  C   UNL     1      33.450 -14.403 -22.313  0.00  0.00    +0.054 C 
ATOM     10  C   UNL     1      33.458 -14.900 -23.616  0.00  0.00    +0.017 C 
ATOM     11  C   UNL     1      34.090 -15.109 -21.294  0.00  0.00    +0.017 C 
ATOM     12  C   UNL     1      34.104 -16.102 -23.900  0.00  0.00    +0.031 C 
ATOM     13  C   UNL     1      34.736 -16.312 -21.577  0.00  0.00    +0.031 C 
ATOM     14  C   UNL     1      34.744 -16.809 -22.881  0.00  0.00    +0.140 C 
ENDBRANCH   1   9
BRANCH   5  15
ATOM     15  C   UNL     1      31.706  -9.839 -22.488  0.00  0.00    -0.031 C 
ATOM     16  C   UNL     1      31.427  -8.703 -22.803  0.00  0.00    -0.057 C 
BRANCH  16  19
ATOM     17 CL   UNL     1      29.898  -3.963 -21.494  0.00  0.00    -0.061 Cl
ATOM     18  N   UNL     1      30.453  -4.742 -23.903  0.00  0.00    -0.232 NA
ATOM     19  C   UNL     1      31.097  -7.361 -23.175  0.00  0.00    +0.046 C 
ATOM     20  C   UNL     1      30.704  -6.446 -22.207  0.00  0.00    +0.039 C 
ATOM     21  C   UNL     1      31.169  -6.971 -24.507  0.00  0.00    +0.029 C 
ATOM     22  C   UNL     1      30.395  -5.160 -22.619  0.00  0.00    +0.139 C 
ATOM     23  C   UNL     1      30.840  -5.661 -24.816  0.00  0.00    +0.100 C 
ENDBRANCH  16  19
ENDBRANCH   5  15
TORSDOF 3
ENDMDL
MODEL 5
REMARK VINA RESULT:      -9.6      4.652      9.027
REMARK  Name = 11438771
REMARK  3 active torsions:
REMARK  status: ('A' for Active; 'I' for Inactive)
REMARK    1  A    between atoms: N_1  and  C_9
REMARK    2  A    between atoms: C_5  and  C_15
REMARK    3  A    between atoms: C_16  and  C_19
REMARK                            x       y       z     vdW  Elec       q    Type
REMARK                         _______ _______ _______ _____ _____    ______ ____
ROOT
ATOM      1  N   UNL     1      32.854 -12.603 -23.080  0.00  0.00    -0.261 N 
ATOM      2  N   UNL     1      33.419 -14.507 -24.101  0.00  0.00    -0.386 NA
ATOM      3  C   UNL     1      33.228 -13.479 -22.090  0.00  0.00    +0.139 C 
ATOM      4  C   UNL     1      32.989 -13.276 -24.271  0.00  0.00    +0.165 C 
ATOM      5  C   UNL     1      33.570 -14.639 -22.743  0.00  0.00    +0.170 C 
ATOM      6  C   UNL     1      33.221 -13.128 -20.656  0.00  0.00    +0.030 C 
ATOM      7  C   UNL     1      32.674 -12.648 -25.572  0.00  0.00    +0.084 C 
ENDROOT
BRANCH   1   9
ATOM      8  F   UNL     1      31.148  -7.406 -22.406  0.00  0.00    -0.204 F 
ATOM      9  C   UNL     1      32.426 -11.300 -22.910  0.00  0.00    +0.054 C 
ATOM     10  C   UNL     1      31.199 -11.041 -22.300  0.00  0.00    +0.017 C 
ATOM     11  C   UNL     1      33.222 -10.241 -23.350  0.00  0.00    +0.017 C 
ATOM     12  C   UNL     1      30.768  -9.727 -22.130  0.00  0.00    +0.031 C 
ATOM     13  C   UNL     1      32.790  -8.926 -23.181  0.00  0.00    +0.031 C 
ATOM     14  C   UNL     1      31.562  -8.668 -22.570  0.00  0.00    +0.140 C 
ENDBRANCH   1   9
BRANCH   5  15
ATOM     15  C   UNL     1      34.027 -15.861 -22.181  0.00  0.00    -0.031 C 
ATOM     16  C   UNL     1      34.418 -16.903 -21.701  0.00  0.00    -0.057 C 
BRANCH  16  19
ATOM     17 CL   UNL     1      33.413 -21.463 -19.530  0.00  0.00    -0.061 Cl
ATOM     18  N   UNL     1      35.782 -20.534 -20.029  0.00  0.00    -0.232 NA
ATOM     19  C   UNL     1      34.879 -18.133 -21.135  0.00  0.00    +0.046 C 
ATOM     20  C   UNL     1      33.967 -19.072 -20.671  0.00  0.00    +0.039 C 
ATOM     21  C   UNL     1      36.242 -18.391 -21.048  0.00  0.00    +0.029 C 
ATOM     22  C   UNL     1      34.465 -20.247 -20.131  0.00  0.00    +0.139 C 
ATOM     23  C   UNL     1      36.638 -19.596 -20.492  0.00  0.00    +0.100 C 
ENDBRANCH  16  19
ENDBRANCH   5  15
TORSDOF 3
ENDMDL
MODEL 6
REMARK VINA RESULT:      -9.3      4.795      9.654
REMARK  Name = 11438771
REMARK  3 active torsions:
REMARK  status: ('A' for Active; 'I' for Inactive)
REMARK    1  A    between atoms: N_1  and  C_9
REMARK    2  A    between atoms: C_5  and  C_15
REMARK    3  A    between atoms: C_16  and  C_19
REMARK                            x       y       z     vdW  Elec       q    Type
REMARK                         _______ _______ _______ _____ _____    ______ ____
ROOT
ATOM      1  N   UNL     1      31.732  -9.637 -21.678  0.00  0.00    -0.261 N 
ATOM      2  N   UNL     1      31.674 -11.533 -20.500  0.00  0.00    -0.386 NA
ATOM      3  C   UNL     1      32.390 -10.582 -22.428  0.00  0.00    +0.139 C 
ATOM      4  C   UNL     1      31.321 -10.266 -20.526  0.00  0.00    +0.165 C 
ATOM      5  C   UNL     1      32.340 -11.735 -21.682  0.00  0.00    +0.170 C 
ATOM      6  C   UNL     1      32.986 -10.293 -23.748  0.00  0.00    +0.030 C 
ATOM      7  C   UNL     1      30.573  -9.560 -19.465  0.00  0.00    +0.084 C 
ENDROOT
BRANCH   1   9
ATOM      8  F   UNL     1      30.901  -4.358 -23.027  0.00  0.00    -0.204 F 
ATOM      9  C   UNL     1      31.523  -8.313 -22.016  0.00  0.00    +0.054 C 
ATOM     10  C   UNL     1      30.472  -7.967 -22.864  0.00  0.00    +0.017 C 
ATOM     11  C   UNL     1      32.365  -7.322 -21.509  0.00  0.00    +0.017 C 
ATOM     12  C   UNL     1      30.262  -6.631 -23.206  0.00  0.00    +0.031 C 
ATOM     13  C   UNL     1      32.156  -5.987 -21.851  0.00  0.00    +0.031 C 
ATOM     14  C   UNL     1      31.104  -5.641 -22.700  0.00  0.00    +0.140 C 
ENDBRANCH   1   9
BRANCH   5  15
ATOM     15  C   UNL     1      32.875 -13.011 -22.004  0.00  0.00    -0.031 C 
ATOM     16  C   UNL     1      33.331 -14.100 -22.279  0.00  0.00    -0.057 C 
BRANCH  16  19
ATOM     17 CL   UNL     1      36.134 -18.217 -20.973  0.00  0.00    -0.061 Cl
ATOM     18  N   UNL     1      34.919 -17.894 -23.241  0.00  0.00    -0.232 NA
ATOM     19  C   UNL     1      33.869 -15.384 -22.604  0.00  0.00    +0.046 C 
ATOM     20  C   UNL     1      34.655 -16.064 -21.682  0.00  0.00    +0.039 C 
ATOM     21  C   UNL     1      33.606 -15.956 -23.844  0.00  0.00    +0.029 C 
ATOM     22  C   UNL     1      35.153 -17.305 -22.046  0.00  0.00    +0.139 C 
ATOM     23  C   UNL     1      34.150 -17.202 -24.110  0.00  0.00    +0.100 C 
ENDBRANCH  16  19
ENDBRANCH   5  15
TORSDOF 3
ENDMDL
MODEL 7
REMARK VINA RESULT:      -9.3      6.337     10.550
REMARK  Name = 11438771
REMARK  3 active torsions:
REMARK  status: ('A' for Active; 'I' for Inactive)
REMARK    1  A    between atoms: N_1  and  C_9
REMARK    2  A    between atoms: C_5  and  C_15
REMARK    3  A    between atoms: C_16  and  C_19
REMARK                            x       y       z     vdW  Elec       q    Type
REMARK                         _______ _______ _______ _____ _____    ______ ____
ROOT
ATOM      1  N   UNL     1      34.936 -18.833 -21.355  0.00  0.00    -0.261 N 
ATOM      2  N   UNL     1      36.414 -19.742 -19.949  0.00  0.00    -0.386 NA
ATOM      3  C   UNL     1      34.213 -19.592 -20.468  0.00  0.00    +0.139 C 
ATOM      4  C   UNL     1      36.257 -18.960 -20.995  0.00  0.00    +0.165 C 
ATOM      5  C   UNL     1      35.143 -20.139 -19.616  0.00  0.00    +0.170 C 
ATOM      6  C   UNL     1      32.742 -19.716 -20.523  0.00  0.00    +0.030 C 
ATOM      7  C   UNL     1      37.345 -18.279 -21.728  0.00  0.00    +0.084 C 
ENDROOT
BRANCH   1   9
ATOM      8  F   UNL     1      32.936 -15.856 -25.540  0.00  0.00    -0.204 F 
ATOM      9  C   UNL     1      34.434 -18.087 -22.405  0.00  0.00    +0.054 C 
ATOM     10  C   UNL     1      33.818 -18.723 -23.482  0.00  0.00    +0.017 C 
ATOM     11  C   UNL     1      34.544 -16.695 -22.387  0.00  0.00    +0.017 C 
ATOM     12  C   UNL     1      33.313 -17.970 -24.541  0.00  0.00    +0.031 C 
ATOM     13  C   UNL     1      34.039 -15.942 -23.446  0.00  0.00    +0.031 C 
ATOM     14  C   UNL     1      33.423 -16.579 -24.524  0.00  0.00    +0.140 C 
ENDBRANCH   1   9
BRANCH   5  15
ATOM     15  C   UNL     1      34.920 -21.007 -18.515  0.00  0.00    -0.031 C 
ATOM     16  C   UNL     1      34.731 -21.747 -17.574  0.00  0.00    -0.057 C 
BRANCH  16  19
ATOM     17 CL   UNL     1      36.574 -24.570 -13.682  0.00  0.00    -0.061 Cl
ATOM     18  N   UNL     1      34.067 -24.327 -14.295  0.00  0.00    -0.232 NA
ATOM     19  C   UNL     1      34.507 -22.620 -16.463  0.00  0.00    +0.046 C 
ATOM     20  C   UNL     1      35.581 -23.092 -15.720  0.00  0.00    +0.039 C 
ATOM     21  C   UNL     1      33.213 -23.000 -16.126  0.00  0.00    +0.029 C 
ATOM     22  C   UNL     1      35.311 -23.936 -14.655  0.00  0.00    +0.139 C 
ATOM     23  C   UNL     1      33.048 -23.847 -15.042  0.00  0.00    +0.100 C 
ENDBRANCH  16  19
ENDBRANCH   5  15
TORSDOF 3
ENDMDL
MODEL 8
REMARK VINA RESULT:      -9.2      6.288     10.530
REMARK  Name = 11438771
REMARK  3 active torsions:
REMARK  status: ('A' for Active; 'I' for Inactive)
REMARK    1  A    between atoms: N_1  and  C_9
REMARK    2  A    between atoms: C_5  and  C_15
REMARK    3  A    between atoms: C_16  and  C_19
REMARK                            x       y       z     vdW  Elec       q    Type
REMARK                         _______ _______ _______ _____ _____    ______ ____
ROOT
ATOM      1  N   UNL     1      34.724 -19.003 -21.270  0.00  0.00    -0.261 N 
ATOM      2  N   UNL     1      36.079 -19.984 -19.790  0.00  0.00    -0.386 NA
ATOM      3  C   UNL     1      33.918 -19.722 -20.421  0.00  0.00    +0.139 C 
ATOM      4  C   UNL     1      36.017 -19.197 -20.842  0.00  0.00    +0.165 C 
ATOM      5  C   UNL     1      34.774 -20.314 -19.523  0.00  0.00    +0.170 C 
ATOM      6  C   UNL     1      32.448 -19.770 -20.551  0.00  0.00    +0.030 C 
ATOM      7  C   UNL     1      37.174 -18.574 -21.519  0.00  0.00    +0.084 C 
ENDROOT
BRANCH   1   9
ATOM      8  F   UNL     1      33.092 -15.938 -25.549  0.00  0.00    -0.204 F 
ATOM      9  C   UNL     1      34.316 -18.234 -22.343  0.00  0.00    +0.054 C 
ATOM     10  C   UNL     1      34.489 -16.850 -22.317  0.00  0.00    +0.017 C 
ATOM     11  C   UNL     1      33.728 -18.842 -23.454  0.00  0.00    +0.017 C 
ATOM     12  C   UNL     1      34.076 -16.075 -23.400  0.00  0.00    +0.031 C 
ATOM     13  C   UNL     1      33.314 -18.067 -24.536  0.00  0.00    +0.031 C 
ATOM     14  C   UNL     1      33.488 -16.682 -24.510  0.00  0.00    +0.140 C 
ENDBRANCH   1   9
BRANCH   5  15
ATOM     15  C   UNL     1      34.451 -21.167 -18.435  0.00  0.00    -0.031 C 
ATOM     16  C   UNL     1      34.176 -21.894 -17.505  0.00  0.00    -0.057 C 
BRANCH  16  19
ATOM     17 CL   UNL     1      30.669 -23.985 -14.367  0.00  0.00    -0.061 Cl
ATOM     18  N   UNL     1      33.221 -24.431 -14.266  0.00  0.00    -0.232 NA
ATOM     19  C   UNL     1      33.852 -22.753 -16.408  0.00  0.00    +0.046 C 
ATOM     20  C   UNL     1      32.531 -22.900 -16.005  0.00  0.00    +0.039 C 
ATOM     21  C   UNL     1      34.859 -23.443 -15.743  0.00  0.00    +0.029 C 
ATOM     22  C   UNL     1      32.270 -23.744 -14.937  0.00  0.00    +0.139 C 
ATOM     23  C   UNL     1      34.494 -24.263 -14.688  0.00  0.00    +0.100 C 
ENDBRANCH  16  19
ENDBRANCH   5  15
TORSDOF 3
ENDMDL
MODEL 9
REMARK VINA RESULT:      -9.0      6.751     11.125
REMARK  Name = 11438771
REMARK  3 active torsions:
REMARK  status: ('A' for Active; 'I' for Inactive)
REMARK    1  A    between atoms: N_1  and  C_9
REMARK    2  A    between atoms: C_5  and  C_15
REMARK    3  A    between atoms: C_16  and  C_19
REMARK                            x       y       z     vdW  Elec       q    Type
REMARK                         _______ _______ _______ _____ _____    ______ ____
ROOT
ATOM      1  N   UNL     1      34.307 -19.766 -20.312  0.00  0.00    -0.261 N 
ATOM      2  N   UNL     1      33.530 -21.198 -18.784  0.00  0.00    -0.386 NA
ATOM      3  C   UNL     1      35.364 -20.066 -19.487  0.00  0.00    +0.139 C 
ATOM      4  C   UNL     1      33.228 -20.476 -19.842  0.00  0.00    +0.165 C 
ATOM      5  C   UNL     1      34.861 -20.946 -18.559  0.00  0.00    +0.170 C 
ATOM      6  C   UNL     1      36.714 -19.495 -19.664  0.00  0.00    +0.030 C 
ATOM      7  C   UNL     1      31.897 -20.407 -20.482  0.00  0.00    +0.084 C 
ENDROOT
BRANCH   1   9
ATOM      8  F   UNL     1      34.381 -16.379 -24.659  0.00  0.00    -0.204 F 
ATOM      9  C   UNL     1      34.326 -18.917 -21.402  0.00  0.00    +0.054 C 
ATOM     10  C   UNL     1      34.637 -17.568 -21.231  0.00  0.00    +0.017 C 
ATOM     11  C   UNL     1      34.034 -19.408 -22.675  0.00  0.00    +0.017 C 
ATOM     12  C   UNL     1      34.654 -16.711 -22.330  0.00  0.00    +0.031 C 
ATOM     13  C   UNL     1      34.052 -18.551 -23.775  0.00  0.00    +0.031 C 
ATOM     14  C   UNL     1      34.362 -17.202 -23.603  0.00  0.00    +0.140 C 
ENDBRANCH   1   9
BRANCH   5  15
ATOM     15  C   UNL     1      35.541 -21.564 -17.476  0.00  0.00    -0.031 C 
ATOM     16  C   UNL     1      36.121 -22.091 -16.552  0.00  0.00    -0.057 C 
BRANCH  16  19
ATOM     17 CL   UNL     1      40.122 -24.795 -14.762  0.00  0.00    -0.061 Cl
ATOM     18  N   UNL     1      38.142 -23.929 -13.329  0.00  0.00    -0.232 NA
ATOM     19  C   UNL     1      36.806 -22.714 -15.461  0.00  0.00    +0.046 C 
ATOM     20  C   UNL     1      38.010 -23.372 -15.678  0.00  0.00    +0.039 C 
ATOM     21  C   UNL     1      36.268 -22.661 -14.181  0.00  0.00    +0.029 C 
ATOM     22  C   UNL     1      38.633 -23.959 -14.589  0.00  0.00    +0.139 C 
ATOM     23  C   UNL     1      36.969 -23.279 -13.158  0.00  0.00    +0.100 C 
ENDBRANCH  16  19
ENDBRANCH   5  15
TORSDOF 3
ENDMDL
