MODEL 1
REMARK VINA RESULT:     -12.3      0.000      0.000
REMARK  Name = 46937156
REMARK  6 active torsions:
REMARK  status: ('A' for Active; 'I' for Inactive)
REMARK    1  A    between atoms: C_5  and  O_22
REMARK    2  A    between atoms: C_7  and  O_24
REMARK    3  A    between atoms: C_8  and  O_26
REMARK    4  A    between atoms: C_9  and  C_12
REMARK    5  A    between atoms: C_10  and  C_28
REMARK    6  A    between atoms: C_28  and  O_29
REMARK                            x       y       z     vdW  Elec       q    Type
REMARK                         _______ _______ _______ _____ _____    ______ ____
ROOT
ATOM      1  O   UNL     1      36.556 -24.365 -15.009  0.00  0.00    -0.328 OA
ATOM      2  O   UNL     1      36.172 -22.062 -14.554  0.00  0.00    -0.260 OA
ATOM      3  N   UNL     1      36.293 -21.295 -15.798  0.00  0.00    -0.184 NA
ATOM      4  C   UNL     1      35.571 -23.333 -14.849  0.00  0.00    +0.234 C 
ATOM      5  C   UNL     1      34.586 -23.734 -13.744  0.00  0.00    +0.193 C 
ATOM      6  C   UNL     1      34.889 -23.125 -16.191  0.00  0.00    +0.083 C 
ATOM      7  C   UNL     1      35.318 -24.029 -12.435  0.00  0.00    +0.171 C 
ATOM      8  C   UNL     1      36.451 -25.031 -12.664  0.00  0.00    +0.169 C 
ATOM      9  C   UNL     1      35.866 -22.193 -16.878  0.00  0.00    +0.107 C 
ATOM     10  C   UNL     1      37.340 -24.596 -13.834  0.00  0.00    +0.176 C 
ATOM     11  H   UNL     1      37.261 -21.006 -15.942  0.00  0.00    +0.155 HD
ENDROOT
BRANCH   9  12
ATOM     12  C   UNL     1      35.283 -21.461 -18.063  0.00  0.00    -0.006 C 
ATOM     13  C   UNL     1      36.084 -20.600 -18.814  0.00  0.00    -0.003 C 
ATOM     14  C   UNL     1      33.946 -21.646 -18.405  0.00  0.00    -0.003 C 
ATOM     15  C   UNL     1      35.556 -19.911 -19.919  0.00  0.00    -0.000 C 
ATOM     16  C   UNL     1      33.405 -20.970 -19.499  0.00  0.00    -0.000 C 
ATOM     17  C   UNL     1      34.196 -20.100 -20.266  0.00  0.00    -0.000 C 
ATOM     18  C   UNL     1      36.346 -19.041 -20.684  0.00  0.00    -0.000 C 
ATOM     19  C   UNL     1      33.669 -19.410 -21.370  0.00  0.00    -0.000 C 
ATOM     20  C   UNL     1      35.805 -18.364 -21.779  0.00  0.00    -0.000 C 
ATOM     21  C   UNL     1      34.470 -18.549 -22.121  0.00  0.00    -0.000 C 
ENDBRANCH   9  12
BRANCH   5  22
ATOM     22  O   UNL     1      33.640 -22.691 -13.531  0.00  0.00    -0.378 OA
ATOM     23  H   UNL     1      34.106 -21.845 -13.442  0.00  0.00    +0.211 HD
ENDBRANCH   5  22
BRANCH   7  24
ATOM     24  O   UNL     1      34.380 -24.588 -11.513  0.00  0.00    -0.379 OA
ATOM     25  H   UNL     1      34.215 -23.954 -10.797  0.00  0.00    +0.211 HD
ENDBRANCH   7  24
BRANCH   8  26
ATOM     26  O   UNL     1      37.215 -25.114 -11.464  0.00  0.00    -0.379 OA
ATOM     27  H   UNL     1      37.290 -24.233 -11.067  0.00  0.00    +0.211 HD
ENDBRANCH   8  26
BRANCH  10  28
ATOM     28  C   UNL     1      38.377 -25.657 -14.192  0.00  0.00    +0.169 C 
BRANCH  28  29
ATOM     29  O   UNL     1      37.735 -26.918 -14.238  0.00  0.00    -0.379 OA
ATOM     30  H   UNL     1      36.782 -26.790 -14.374  0.00  0.00    +0.211 HD
ENDBRANCH  28  29
ENDBRANCH  10  28
TORSDOF 6
ENDMDL
MODEL 2
REMARK VINA RESULT:     -11.9      1.393      2.715
REMARK  Name = 46937156
REMARK  6 active torsions:
REMARK  status: ('A' for Active; 'I' for Inactive)
REMARK    1  A    between atoms: C_5  and  O_22
REMARK    2  A    between atoms: C_7  and  O_24
REMARK    3  A    between atoms: C_8  and  O_26
REMARK    4  A    between atoms: C_9  and  C_12
REMARK    5  A    between atoms: C_10  and  C_28
REMARK    6  A    between atoms: C_28  and  O_29
REMARK                            x       y       z     vdW  Elec       q    Type
REMARK                         _______ _______ _______ _____ _____    ______ ____
ROOT
ATOM      1  O   UNL     1      35.780 -23.409 -13.227  0.00  0.00    -0.328 OA
ATOM      2  O   UNL     1      35.220 -24.904 -14.990  0.00  0.00    -0.260 OA
ATOM      3  N   UNL     1      34.298 -24.240 -15.915  0.00  0.00    -0.184 NA
ATOM      4  C   UNL     1      36.166 -23.938 -14.504  0.00  0.00    +0.234 C 
ATOM      5  C   UNL     1      37.565 -24.559 -14.398  0.00  0.00    +0.193 C 
ATOM      6  C   UNL     1      36.106 -22.808 -15.517  0.00  0.00    +0.083 C 
ATOM      7  C   UNL     1      37.613 -25.624 -13.302  0.00  0.00    +0.171 C 
ATOM      8  C   UNL     1      37.067 -25.069 -11.985  0.00  0.00    +0.169 C 
ATOM      9  C   UNL     1      34.633 -22.811 -15.876  0.00  0.00    +0.107 C 
ATOM     10  C   UNL     1      35.706 -24.398 -12.195  0.00  0.00    +0.176 C 
ATOM     11  H   UNL     1      33.333 -24.384 -15.617  0.00  0.00    +0.155 HD
ENDROOT
BRANCH   9  12
ATOM     12  C   UNL     1      34.315 -22.089 -17.163  0.00  0.00    -0.006 C 
ATOM     13  C   UNL     1      35.320 -21.399 -17.842  0.00  0.00    -0.003 C 
ATOM     14  C   UNL     1      33.019 -22.111 -17.671  0.00  0.00    -0.003 C 
ATOM     15  C   UNL     1      35.040 -20.722 -19.040  0.00  0.00    -0.000 C 
ATOM     16  C   UNL     1      32.724 -21.444 -18.859  0.00  0.00    -0.000 C 
ATOM     17  C   UNL     1      33.722 -20.745 -19.556  0.00  0.00    -0.000 C 
ATOM     18  C   UNL     1      36.038 -20.023 -19.736  0.00  0.00    -0.000 C 
ATOM     19  C   UNL     1      33.442 -20.067 -20.754  0.00  0.00    -0.000 C 
ATOM     20  C   UNL     1      35.742 -19.355 -20.925  0.00  0.00    -0.000 C 
ATOM     21  C   UNL     1      34.447 -19.377 -21.434  0.00  0.00    -0.000 C 
ENDBRANCH   9  12
BRANCH   5  22
ATOM     22  O   UNL     1      37.935 -25.145 -15.642  0.00  0.00    -0.378 OA
ATOM     23  H   UNL     1      37.297 -25.837 -15.877  0.00  0.00    +0.211 HD
ENDBRANCH   5  22
BRANCH   7  24
ATOM     24  O   UNL     1      38.974 -26.015 -13.116  0.00  0.00    -0.379 OA
ATOM     25  H   UNL     1      39.530 -25.575 -13.779  0.00  0.00    +0.211 HD
ENDBRANCH   7  24
BRANCH   8  26
ATOM     26  O   UNL     1      36.951 -26.151 -11.066  0.00  0.00    -0.379 OA
ATOM     27  H   UNL     1      36.739 -25.805 -10.185  0.00  0.00    +0.211 HD
ENDBRANCH   8  26
BRANCH  10  28
ATOM     28  C   UNL     1      35.215 -23.690 -10.935  0.00  0.00    +0.169 C 
BRANCH  28  29
ATOM     29  O   UNL     1      34.973 -24.664  -9.936  0.00  0.00    -0.379 OA
ATOM     30  H   UNL     1      34.933 -25.543 -10.345  0.00  0.00    +0.211 HD
ENDBRANCH  28  29
ENDBRANCH  10  28
TORSDOF 6
ENDMDL
MODEL 3
REMARK VINA RESULT:     -10.8      3.109      4.796
REMARK  Name = 46937156
REMARK  6 active torsions:
REMARK  status: ('A' for Active; 'I' for Inactive)
REMARK    1  A    between atoms: C_5  and  O_22
REMARK    2  A    between atoms: C_7  and  O_24
REMARK    3  A    between atoms: C_8  and  O_26
REMARK    4  A    between atoms: C_9  and  C_12
REMARK    5  A    between atoms: C_10  and  C_28
REMARK    6  A    between atoms: C_28  and  O_29
REMARK                            x       y       z     vdW  Elec       q    Type
REMARK                         _______ _______ _______ _____ _____    ______ ____
ROOT
ATOM      1  O   UNL     1      30.718 -22.836 -16.121  0.00  0.00    -0.328 OA
ATOM      2  O   UNL     1      32.521 -24.140 -16.960  0.00  0.00    -0.260 OA
ATOM      3  N   UNL     1      33.018 -23.540 -18.202  0.00  0.00    -0.184 NA
ATOM      4  C   UNL     1      32.130 -23.090 -16.061  0.00  0.00    +0.234 C 
ATOM      5  C   UNL     1      32.525 -23.437 -14.621  0.00  0.00    +0.193 C 
ATOM      6  C   UNL     1      32.850 -21.859 -16.583  0.00  0.00    +0.083 C 
ATOM      7  C   UNL     1      31.711 -24.619 -14.096  0.00  0.00    +0.171 C 
ATOM      8  C   UNL     1      30.214 -24.376 -14.298  0.00  0.00    +0.169 C 
ATOM      9  C   UNL     1      32.793 -22.095 -18.079  0.00  0.00    +0.107 C 
ATOM     10  C   UNL     1      29.916 -23.959 -15.741  0.00  0.00    +0.176 C 
ATOM     11  H   UNL     1      32.505 -23.910 -19.002  0.00  0.00    +0.155 HD
ENDROOT
BRANCH   9  12
ATOM     12  C   UNL     1      33.783 -21.270 -18.867  0.00  0.00    -0.006 C 
ATOM     13  C   UNL     1      33.338 -20.450 -19.904  0.00  0.00    -0.003 C 
ATOM     14  C   UNL     1      35.139 -21.331 -18.559  0.00  0.00    -0.003 C 
ATOM     15  C   UNL     1      34.246 -19.678 -20.647  0.00  0.00    -0.000 C 
ATOM     16  C   UNL     1      36.055 -20.571 -19.286  0.00  0.00    -0.000 C 
ATOM     17  C   UNL     1      35.625 -19.740 -20.333  0.00  0.00    -0.000 C 
ATOM     18  C   UNL     1      33.816 -18.848 -21.694  0.00  0.00    -0.000 C 
ATOM     19  C   UNL     1      36.533 -18.968 -21.077  0.00  0.00    -0.000 C 
ATOM     20  C   UNL     1      34.733 -18.088 -22.422  0.00  0.00    -0.000 C 
ATOM     21  C   UNL     1      36.088 -18.147 -22.114  0.00  0.00    -0.000 C 
ENDBRANCH   9  12
BRANCH   5  22
ATOM     22  O   UNL     1      33.913 -23.754 -14.558  0.00  0.00    -0.378 OA
ATOM     23  H   UNL     1      34.296 -23.709 -15.448  0.00  0.00    +0.211 HD
ENDBRANCH   5  22
BRANCH   7  24
ATOM     24  O   UNL     1      31.976 -24.761 -12.699  0.00  0.00    -0.379 OA
ATOM     25  H   UNL     1      32.367 -23.940 -12.359  0.00  0.00    +0.211 HD
ENDBRANCH   7  24
BRANCH   8  26
ATOM     26  O   UNL     1      29.525 -25.581 -13.977  0.00  0.00    -0.379 OA
ATOM     27  H   UNL     1      29.418 -25.646 -13.015  0.00  0.00    +0.211 HD
ENDBRANCH   8  26
BRANCH  10  28
ATOM     28  C   UNL     1      28.459 -23.549 -15.931  0.00  0.00    +0.169 C 
BRANCH  28  29
ATOM     29  O   UNL     1      28.413 -22.444 -16.815  0.00  0.00    -0.379 OA
ATOM     30  H   UNL     1      27.863 -22.667 -17.582  0.00  0.00    +0.211 HD
ENDBRANCH  28  29
ENDBRANCH  10  28
TORSDOF 6
ENDMDL
MODEL 4
REMARK VINA RESULT:     -10.4     11.909     15.669
REMARK  Name = 46937156
REMARK  6 active torsions:
REMARK  status: ('A' for Active; 'I' for Inactive)
REMARK    1  A    between atoms: C_5  and  O_22
REMARK    2  A    between atoms: C_7  and  O_24
REMARK    3  A    between atoms: C_8  and  O_26
REMARK    4  A    between atoms: C_9  and  C_12
REMARK    5  A    between atoms: C_10  and  C_28
REMARK    6  A    between atoms: C_28  and  O_29
REMARK                            x       y       z     vdW  Elec       q    Type
REMARK                         _______ _______ _______ _____ _____    ______ ____
ROOT
ATOM      1  O   UNL     1      31.754  -8.209 -21.439  0.00  0.00    -0.328 OA
ATOM      2  O   UNL     1      33.312  -8.320 -23.233  0.00  0.00    -0.260 OA
ATOM      3  N   UNL     1      33.942  -9.643 -23.247  0.00  0.00    -0.184 NA
ATOM      4  C   UNL     1      31.937  -8.465 -22.840  0.00  0.00    +0.234 C 
ATOM      5  C   UNL     1      31.041  -7.522 -23.652  0.00  0.00    +0.193 C 
ATOM      6  C   UNL     1      31.625  -9.929 -23.093  0.00  0.00    +0.083 C 
ATOM      7  C   UNL     1      31.316  -6.061 -23.300  0.00  0.00    +0.171 C 
ATOM      8  C   UNL     1      31.247  -5.848 -21.787  0.00  0.00    +0.169 C 
ATOM      9  C   UNL     1      32.942 -10.581 -22.723  0.00  0.00    +0.107 C 
ATOM     10  C   UNL     1      32.107  -6.878 -21.048  0.00  0.00    +0.176 C 
ATOM     11  H   UNL     1      34.772  -9.645 -22.655  0.00  0.00    +0.155 HD
ENDROOT
BRANCH   9  12
ATOM     12  C   UNL     1      33.103 -11.983 -23.260  0.00  0.00    -0.006 C 
ATOM     13  C   UNL     1      33.650 -12.981 -22.452  0.00  0.00    -0.003 C 
ATOM     14  C   UNL     1      32.708 -12.279 -24.562  0.00  0.00    -0.003 C 
ATOM     15  C   UNL     1      33.807 -14.289 -22.938  0.00  0.00    -0.000 C 
ATOM     16  C   UNL     1      32.858 -13.573 -25.060  0.00  0.00    -0.000 C 
ATOM     17  C   UNL     1      33.405 -14.589 -24.261  0.00  0.00    -0.000 C 
ATOM     18  C   UNL     1      34.355 -15.305 -22.139  0.00  0.00    -0.000 C 
ATOM     19  C   UNL     1      33.563 -15.898 -24.746  0.00  0.00    -0.000 C 
ATOM     20  C   UNL     1      34.504 -16.600 -22.637  0.00  0.00    -0.000 C 
ATOM     21  C   UNL     1      34.109 -16.896 -23.938  0.00  0.00    -0.000 C 
ENDBRANCH   9  12
BRANCH   5  22
ATOM     22  O   UNL     1      31.259  -7.721 -25.046  0.00  0.00    -0.378 OA
ATOM     23  H   UNL     1      30.946  -6.944 -25.537  0.00  0.00    +0.211 HD
ENDBRANCH   5  22
BRANCH   7  24
ATOM     24  O   UNL     1      30.321  -5.252 -23.931  0.00  0.00    -0.379 OA
ATOM     25  H   UNL     1      29.709  -4.910 -23.259  0.00  0.00    +0.211 HD
ENDBRANCH   7  24
BRANCH   8  26
ATOM     26  O   UNL     1      31.703  -4.528 -21.506  0.00  0.00    -0.379 OA
ATOM     27  H   UNL     1      32.587  -4.568 -21.109  0.00  0.00    +0.211 HD
ENDBRANCH   8  26
BRANCH  10  28
ATOM     28  C   UNL     1      31.927  -6.797 -19.535  0.00  0.00    +0.169 C 
BRANCH  28  29
ATOM     29  O   UNL     1      32.904  -5.916 -19.012  0.00  0.00    -0.379 OA
ATOM     30  H   UNL     1      33.545  -6.419 -18.485  0.00  0.00    +0.211 HD
ENDBRANCH  28  29
ENDBRANCH  10  28
TORSDOF 6
ENDMDL
MODEL 5
REMARK VINA RESULT:     -10.3      9.923     13.621
REMARK  Name = 46937156
REMARK  6 active torsions:
REMARK  status: ('A' for Active; 'I' for Inactive)
REMARK    1  A    between atoms: C_5  and  O_22
REMARK    2  A    between atoms: C_7  and  O_24
REMARK    3  A    between atoms: C_8  and  O_26
REMARK    4  A    between atoms: C_9  and  C_12
REMARK    5  A    between atoms: C_10  and  C_28
REMARK    6  A    between atoms: C_28  and  O_29
REMARK                            x       y       z     vdW  Elec       q    Type
REMARK                         _______ _______ _______ _____ _____    ______ ____
ROOT
ATOM      1  O   UNL     1      33.798 -10.383 -23.053  0.00  0.00    -0.328 OA
ATOM      2  O   UNL     1      32.032 -11.604 -24.077  0.00  0.00    -0.260 OA
ATOM      3  N   UNL     1      32.547 -12.888 -24.560  0.00  0.00    -0.184 NA
ATOM      4  C   UNL     1      32.691 -11.273 -22.844  0.00  0.00    +0.234 C 
ATOM      5  C   UNL     1      31.704 -10.638 -21.857  0.00  0.00    +0.193 C 
ATOM      6  C   UNL     1      33.243 -12.598 -22.345  0.00  0.00    +0.083 C 
ATOM      7  C   UNL     1      31.244  -9.265 -22.345  0.00  0.00    +0.171 C 
ATOM      8  C   UNL     1      32.447  -8.384 -22.689  0.00  0.00    +0.169 C 
ATOM      9  C   UNL     1      33.634 -13.265 -23.648  0.00  0.00    +0.107 C 
ATOM     10  C   UNL     1      33.421  -9.121 -23.614  0.00  0.00    +0.176 C 
ATOM     11  H   UNL     1      32.902 -12.792 -25.511  0.00  0.00    +0.155 HD
ENDROOT
BRANCH   9  12
ATOM     12  C   UNL     1      33.826 -14.758 -23.537  0.00  0.00    -0.006 C 
ATOM     13  C   UNL     1      34.371 -15.307 -22.375  0.00  0.00    -0.003 C 
ATOM     14  C   UNL     1      33.463 -15.587 -24.595  0.00  0.00    -0.003 C 
ATOM     15  C   UNL     1      34.557 -16.694 -22.257  0.00  0.00    -0.000 C 
ATOM     16  C   UNL     1      33.641 -16.966 -24.494  0.00  0.00    -0.000 C 
ATOM     17  C   UNL     1      34.187 -17.536 -23.333  0.00  0.00    -0.000 C 
ATOM     18  C   UNL     1      35.103 -17.263 -21.096  0.00  0.00    -0.000 C 
ATOM     19  C   UNL     1      34.374 -18.923 -23.214  0.00  0.00    -0.000 C 
ATOM     20  C   UNL     1      35.282 -18.643 -20.995  0.00  0.00    -0.000 C 
ATOM     21  C   UNL     1      34.918 -19.472 -22.052  0.00  0.00    -0.000 C 
ENDBRANCH   9  12
BRANCH   5  22
ATOM     22  O   UNL     1      30.569 -11.483 -21.689  0.00  0.00    -0.378 OA
ATOM     23  H   UNL     1      30.265 -11.793 -22.557  0.00  0.00    +0.211 HD
ENDBRANCH   5  22
BRANCH   7  24
ATOM     24  O   UNL     1      30.495  -8.644 -21.299  0.00  0.00    -0.379 OA
ATOM     25  H   UNL     1      29.697  -9.166 -21.120  0.00  0.00    +0.211 HD
ENDBRANCH   7  24
BRANCH   8  26
ATOM     26  O   UNL     1      31.962  -7.202 -23.320  0.00  0.00    -0.379 OA
ATOM     27  H   UNL     1      31.178  -7.417 -23.851  0.00  0.00    +0.211 HD
ENDBRANCH   8  26
BRANCH  10  28
ATOM     28  C   UNL     1      34.707  -8.333 -23.839  0.00  0.00    +0.169 C 
BRANCH  28  29
ATOM     29  O   UNL     1      35.618  -9.150 -24.550  0.00  0.00    -0.379 OA
ATOM     30  H   UNL     1      36.424  -8.645 -24.742  0.00  0.00    +0.211 HD
ENDBRANCH  28  29
ENDBRANCH  10  28
TORSDOF 6
ENDMDL
MODEL 6
REMARK VINA RESULT:     -10.3     11.606     15.558
REMARK  Name = 46937156
REMARK  6 active torsions:
REMARK  status: ('A' for Active; 'I' for Inactive)
REMARK    1  A    between atoms: C_5  and  O_22
REMARK    2  A    between atoms: C_7  and  O_24
REMARK    3  A    between atoms: C_8  and  O_26
REMARK    4  A    between atoms: C_9  and  C_12
REMARK    5  A    between atoms: C_10  and  C_28
REMARK    6  A    between atoms: C_28  and  O_29
REMARK                            x       y       z     vdW  Elec       q    Type
REMARK                         _______ _______ _______ _____ _____    ______ ____
ROOT
ATOM      1  O   UNL     1      31.450  -8.065 -23.274  0.00  0.00    -0.328 OA
ATOM      2  O   UNL     1      30.505  -9.332 -21.497  0.00  0.00    -0.260 OA
ATOM      3  N   UNL     1      30.658 -10.761 -21.785  0.00  0.00    -0.184 NA
ATOM      4  C   UNL     1      31.667  -8.635 -21.975  0.00  0.00    +0.234 C 
ATOM      5  C   UNL     1      32.076  -7.530 -20.993  0.00  0.00    +0.193 C 
ATOM      6  C   UNL     1      32.726  -9.716 -22.108  0.00  0.00    +0.083 C 
ATOM      7  C   UNL     1      31.033  -6.413 -20.957  0.00  0.00    +0.171 C 
ATOM      8  C   UNL     1      30.722  -5.918 -22.371  0.00  0.00    +0.169 C 
ATOM      9  C   UNL     1      31.891 -10.893 -22.570  0.00  0.00    +0.107 C 
ATOM     10  C   UNL     1      30.403  -7.090 -23.304  0.00  0.00    +0.176 C 
ATOM     11  H   UNL     1      29.860 -11.100 -22.322  0.00  0.00    +0.155 HD
ENDROOT
BRANCH   9  12
ATOM     12  C   UNL     1      32.568 -12.231 -22.394  0.00  0.00    -0.006 C 
ATOM     13  C   UNL     1      32.724 -13.084 -23.487  0.00  0.00    -0.003 C 
ATOM     14  C   UNL     1      33.034 -12.614 -21.139  0.00  0.00    -0.003 C 
ATOM     15  C   UNL     1      33.351 -14.332 -23.338  0.00  0.00    -0.000 C 
ATOM     16  C   UNL     1      33.659 -13.850 -20.973  0.00  0.00    -0.000 C 
ATOM     17  C   UNL     1      33.825 -14.720 -22.063  0.00  0.00    -0.000 C 
ATOM     18  C   UNL     1      33.516 -15.202 -24.427  0.00  0.00    -0.000 C 
ATOM     19  C   UNL     1      34.451 -15.969 -21.914  0.00  0.00    -0.000 C 
ATOM     20  C   UNL     1      34.141 -16.439 -24.262  0.00  0.00    -0.000 C 
ATOM     21  C   UNL     1      34.608 -16.821 -23.008  0.00  0.00    -0.000 C 
ENDBRANCH   9  12
BRANCH   5  22
ATOM     22  O   UNL     1      32.232  -8.071 -19.685  0.00  0.00    -0.378 OA
ATOM     23  H   UNL     1      33.153  -8.348 -19.557  0.00  0.00    +0.211 HD
ENDBRANCH   5  22
BRANCH   7  24
ATOM     24  O   UNL     1      31.562  -5.330 -20.190  0.00  0.00    -0.379 OA
ATOM     25  H   UNL     1      31.562  -5.571 -19.249  0.00  0.00    +0.211 HD
ENDBRANCH   7  24
BRANCH   8  26
ATOM     26  O   UNL     1      29.613  -5.029 -22.293  0.00  0.00    -0.379 OA
ATOM     27  H   UNL     1      29.933  -4.119 -22.192  0.00  0.00    +0.211 HD
ENDBRANCH   8  26
BRANCH  10  28
ATOM     28  C   UNL     1      30.253  -6.644 -24.756  0.00  0.00    +0.169 C 
BRANCH  28  29
ATOM     29  O   UNL     1      31.049  -5.491 -24.957  0.00  0.00    -0.379 OA
ATOM     30  H   UNL     1      31.205  -5.368 -25.907  0.00  0.00    +0.211 HD
ENDBRANCH  28  29
ENDBRANCH  10  28
TORSDOF 6
ENDMDL
MODEL 7
REMARK VINA RESULT:      -9.9     12.709     16.719
REMARK  Name = 46937156
REMARK  6 active torsions:
REMARK  status: ('A' for Active; 'I' for Inactive)
REMARK    1  A    between atoms: C_5  and  O_22
REMARK    2  A    between atoms: C_7  and  O_24
REMARK    3  A    between atoms: C_8  and  O_26
REMARK    4  A    between atoms: C_9  and  C_12
REMARK    5  A    between atoms: C_10  and  C_28
REMARK    6  A    between atoms: C_28  and  O_29
REMARK                            x       y       z     vdW  Elec       q    Type
REMARK                         _______ _______ _______ _____ _____    ______ ____
ROOT
ATOM      1  O   UNL     1      31.958  -7.039 -23.920  0.00  0.00    -0.328 OA
ATOM      2  O   UNL     1      30.267  -7.956 -22.523  0.00  0.00    -0.260 OA
ATOM      3  N   UNL     1      30.361  -9.418 -22.543  0.00  0.00    -0.184 NA
ATOM      4  C   UNL     1      31.592  -7.405 -22.582  0.00  0.00    +0.234 C 
ATOM      5  C   UNL     1      31.709  -6.179 -21.667  0.00  0.00    +0.193 C 
ATOM      6  C   UNL     1      32.495  -8.546 -22.145  0.00  0.00    +0.083 C 
ATOM      7  C   UNL     1      30.863  -5.019 -22.191  0.00  0.00    +0.171 C 
ATOM      8  C   UNL     1      31.179  -4.741 -23.662  0.00  0.00    +0.169 C 
ATOM      9  C   UNL     1      31.779  -9.737 -22.748  0.00  0.00    +0.107 C 
ATOM     10  C   UNL     1      31.118  -6.029 -24.489  0.00  0.00    +0.176 C 
ATOM     11  H   UNL     1      29.800  -9.798 -23.306  0.00  0.00    +0.155 HD
ENDROOT
BRANCH   9  12
ATOM     12  C   UNL     1      32.184 -11.062 -22.149  0.00  0.00    -0.006 C 
ATOM     13  C   UNL     1      32.959 -11.955 -22.890  0.00  0.00    -0.003 C 
ATOM     14  C   UNL     1      31.781 -11.394 -20.858  0.00  0.00    -0.003 C 
ATOM     15  C   UNL     1      33.343 -13.192 -22.346  0.00  0.00    -0.000 C 
ATOM     16  C   UNL     1      32.152 -12.618 -20.303  0.00  0.00    -0.000 C 
ATOM     17  C   UNL     1      32.933 -13.528 -21.034  0.00  0.00    -0.000 C 
ATOM     18  C   UNL     1      34.122 -14.102 -23.077  0.00  0.00    -0.000 C 
ATOM     19  C   UNL     1      33.316 -14.766 -20.491  0.00  0.00    -0.000 C 
ATOM     20  C   UNL     1      34.494 -15.328 -22.522  0.00  0.00    -0.000 C 
ATOM     21  C   UNL     1      34.092 -15.659 -21.232  0.00  0.00    -0.000 C 
ENDBRANCH   9  12
BRANCH   5  22
ATOM     22  O   UNL     1      31.287  -6.512 -20.348  0.00  0.00    -0.378 OA
ATOM     23  H   UNL     1      31.892  -6.111 -19.704  0.00  0.00    +0.211 HD
ENDBRANCH   5  22
BRANCH   7  24
ATOM     24  O   UNL     1      31.169  -3.856 -21.420  0.00  0.00    -0.379 OA
ATOM     25  H   UNL     1      31.215  -4.094 -20.480  0.00  0.00    +0.211 HD
ENDBRANCH   7  24
BRANCH   8  26
ATOM     26  O   UNL     1      30.230  -3.795 -24.145  0.00  0.00    -0.379 OA
ATOM     27  H   UNL     1      30.413  -2.925 -23.756  0.00  0.00    +0.211 HD
ENDBRANCH   8  26
BRANCH  10  28
ATOM     28  C   UNL     1      31.590  -5.813 -25.923  0.00  0.00    +0.169 C 
BRANCH  28  29
ATOM     29  O   UNL     1      32.223  -4.549 -26.004  0.00  0.00    -0.379 OA
ATOM     30  H   UNL     1      33.094  -4.596 -25.578  0.00  0.00    +0.211 HD
ENDBRANCH  28  29
ENDBRANCH  10  28
TORSDOF 6
ENDMDL
MODEL 8
REMARK VINA RESULT:      -9.5      2.200      3.734
REMARK  Name = 46937156
REMARK  6 active torsions:
REMARK  status: ('A' for Active; 'I' for Inactive)
REMARK    1  A    between atoms: C_5  and  O_22
REMARK    2  A    between atoms: C_7  and  O_24
REMARK    3  A    between atoms: C_8  and  O_26
REMARK    4  A    between atoms: C_9  and  C_12
REMARK    5  A    between atoms: C_10  and  C_28
REMARK    6  A    between atoms: C_28  and  O_29
REMARK                            x       y       z     vdW  Elec       q    Type
REMARK                         _______ _______ _______ _____ _____    ______ ____
ROOT
ATOM      1  O   UNL     1      32.126 -22.533 -15.314  0.00  0.00    -0.328 OA
ATOM      2  O   UNL     1      33.201 -23.811 -17.008  0.00  0.00    -0.260 OA
ATOM      3  N   UNL     1      32.971 -23.180 -18.311  0.00  0.00    -0.184 NA
ATOM      4  C   UNL     1      33.353 -22.783 -16.015  0.00  0.00    +0.234 C 
ATOM      5  C   UNL     1      34.448 -23.162 -15.010  0.00  0.00    +0.193 C 
ATOM      6  C   UNL     1      33.700 -21.537 -16.812  0.00  0.00    +0.083 C 
ATOM      7  C   UNL     1      34.024 -24.360 -14.160  0.00  0.00    +0.171 C 
ATOM      8  C   UNL     1      32.649 -24.119 -13.534  0.00  0.00    +0.169 C 
ATOM      9  C   UNL     1      32.858 -21.738 -18.056  0.00  0.00    +0.107 C 
ATOM     10  C   UNL     1      31.636 -23.668 -14.592  0.00  0.00    +0.176 C 
ATOM     11  H   UNL     1      32.109 -23.532 -18.727  0.00  0.00    +0.155 HD
ENDROOT
BRANCH   9  12
ATOM     12  C   UNL     1      33.289 -20.891 -19.229  0.00  0.00    -0.006 C 
ATOM     13  C   UNL     1      34.619 -20.487 -19.346  0.00  0.00    -0.003 C 
ATOM     14  C   UNL     1      32.358 -20.512 -20.192  0.00  0.00    -0.003 C 
ATOM     15  C   UNL     1      35.035 -19.698 -20.432  0.00  0.00    -0.000 C 
ATOM     16  C   UNL     1      32.753 -19.729 -21.276  0.00  0.00    -0.000 C 
ATOM     17  C   UNL     1      34.088 -19.313 -21.410  0.00  0.00    -0.000 C 
ATOM     18  C   UNL     1      36.369 -19.282 -20.565  0.00  0.00    -0.000 C 
ATOM     19  C   UNL     1      34.504 -18.523 -22.495  0.00  0.00    -0.000 C 
ATOM     20  C   UNL     1      36.765 -18.498 -21.649  0.00  0.00    -0.000 C 
ATOM     21  C   UNL     1      35.835 -18.119 -22.612  0.00  0.00    -0.000 C 
ENDBRANCH   9  12
BRANCH   5  22
ATOM     22  O   UNL     1      35.656 -23.476 -15.697  0.00  0.00    -0.378 OA
ATOM     23  H   UNL     1      35.474 -23.566 -16.646  0.00  0.00    +0.211 HD
ENDBRANCH   5  22
BRANCH   7  24
ATOM     24  O   UNL     1      34.986 -24.534 -13.119  0.00  0.00    -0.379 OA
ATOM     25  H   UNL     1      34.639 -24.162 -12.292  0.00  0.00    +0.211 HD
ENDBRANCH   7  24
BRANCH   8  26
ATOM     26  O   UNL     1      32.223 -25.334 -12.925  0.00  0.00    -0.379 OA
ATOM     27  H   UNL     1      31.445 -25.676 -13.393  0.00  0.00    +0.211 HD
ENDBRANCH   8  26
BRANCH  10  28
ATOM     28  C   UNL     1      30.303 -23.260 -13.973  0.00  0.00    +0.169 C 
BRANCH  28  29
ATOM     29  O   UNL     1      30.426 -23.310 -12.564  0.00  0.00    -0.379 OA
ATOM     30  H   UNL     1      31.322 -23.040 -12.308  0.00  0.00    +0.211 HD
ENDBRANCH  28  29
ENDBRANCH  10  28
TORSDOF 6
ENDMDL
MODEL 9
REMARK VINA RESULT:      -9.4     10.445     13.909
REMARK  Name = 46937156
REMARK  6 active torsions:
REMARK  status: ('A' for Active; 'I' for Inactive)
REMARK    1  A    between atoms: C_5  and  O_22
REMARK    2  A    between atoms: C_7  and  O_24
REMARK    3  A    between atoms: C_8  and  O_26
REMARK    4  A    between atoms: C_9  and  C_12
REMARK    5  A    between atoms: C_10  and  C_28
REMARK    6  A    between atoms: C_28  and  O_29
REMARK                            x       y       z     vdW  Elec       q    Type
REMARK                         _______ _______ _______ _____ _____    ______ ____
ROOT
ATOM      1  O   UNL     1      32.570 -13.593 -23.669  0.00  0.00    -0.328 OA
ATOM      2  O   UNL     1      34.289 -12.137 -22.905  0.00  0.00    -0.260 OA
ATOM      3  N   UNL     1      33.919 -10.751 -23.204  0.00  0.00    -0.184 NA
ATOM      4  C   UNL     1      33.104 -12.868 -22.551  0.00  0.00    +0.234 C 
ATOM      5  C   UNL     1      33.393 -13.842 -21.402  0.00  0.00    +0.193 C 
ATOM      6  C   UNL     1      32.099 -11.795 -22.166  0.00  0.00    +0.083 C 
ATOM      7  C   UNL     1      34.330 -14.962 -21.852  0.00  0.00    +0.171 C 
ATOM      8  C   UNL     1      33.803 -15.627 -23.125  0.00  0.00    +0.169 C 
ATOM      9  C   UNL     1      32.453 -10.695 -23.147  0.00  0.00    +0.107 C 
ATOM     10  C   UNL     1      33.465 -14.581 -24.192  0.00  0.00    +0.176 C 
ATOM     11  H   UNL     1      34.246 -10.491 -24.134  0.00  0.00    +0.155 HD
ENDROOT
BRANCH   9  12
ATOM     12  C   UNL     1      31.924  -9.335 -22.757  0.00  0.00    -0.006 C 
ATOM     13  C   UNL     1      31.725  -8.358 -23.733  0.00  0.00    -0.003 C 
ATOM     14  C   UNL     1      31.638  -9.057 -21.424  0.00  0.00    -0.003 C 
ATOM     15  C   UNL     1      31.235  -7.088 -23.386  0.00  0.00    -0.000 C 
ATOM     16  C   UNL     1      31.151  -7.801 -21.062  0.00  0.00    -0.000 C 
ATOM     17  C   UNL     1      30.944  -6.806 -22.030  0.00  0.00    -0.000 C 
ATOM     18  C   UNL     1      31.029  -6.094 -24.355  0.00  0.00    -0.000 C 
ATOM     19  C   UNL     1      30.455  -5.536 -21.684  0.00  0.00    -0.000 C 
ATOM     20  C   UNL     1      30.542  -4.837 -23.993  0.00  0.00    -0.000 C 
ATOM     21  C   UNL     1      30.255  -4.559 -22.660  0.00  0.00    -0.000 C 
ENDBRANCH   9  12
BRANCH   5  22
ATOM     22  O   UNL     1      33.982 -13.146 -20.308  0.00  0.00    -0.378 OA
ATOM     23  H   UNL     1      34.276 -13.784 -19.638  0.00  0.00    +0.211 HD
ENDBRANCH   5  22
BRANCH   7  24
ATOM     24  O   UNL     1      34.397 -15.937 -20.810  0.00  0.00    -0.379 OA
ATOM     25  H   UNL     1      33.572 -16.449 -20.793  0.00  0.00    +0.211 HD
ENDBRANCH   7  24
BRANCH   8  26
ATOM     26  O   UNL     1      34.807 -16.518 -23.604  0.00  0.00    -0.379 OA
ATOM     27  H   UNL     1      35.675 -16.232 -23.281  0.00  0.00    +0.211 HD
ENDBRANCH   8  26
BRANCH  10  28
ATOM     28  C   UNL     1      32.783 -15.200 -25.408  0.00  0.00    +0.169 C 
BRANCH  28  29
ATOM     29  O   UNL     1      32.589 -16.580 -25.162  0.00  0.00    -0.379 OA
ATOM     30  H   UNL     1      31.639 -16.767 -25.096  0.00  0.00    +0.211 HD
ENDBRANCH  28  29
ENDBRANCH  10  28
TORSDOF 6
ENDMDL
