MODEL 1
REMARK VINA RESULT:     -13.4      0.000      0.000
REMARK  Name = 444698
REMARK  5 active torsions:
REMARK  status: ('A' for Active; 'I' for Inactive)
REMARK    1  A    between atoms: S_1  and  N_4
REMARK    2  A    between atoms: S_1  and  C_18
REMARK    3  A    between atoms: C_5  and  C_15
REMARK    4  A    between atoms: C_15  and  O_16
REMARK    5  A    between atoms: C_21  and  C_24
REMARK                            x       y       z     vdW  Elec       q    Type
REMARK                         _______ _______ _______ _____ _____    ______ ____
ROOT
ATOM      1  S   UNL     1      35.359 -18.636 -22.453  0.00  0.00    +0.064 S 
ATOM      2  O   UNL     1      36.739 -18.373 -22.102  0.00  0.00    -0.153 OA
ATOM      3  O   UNL     1      35.002 -19.423 -23.616  0.00  0.00    -0.153 OA
ENDROOT
BRANCH   1   4
ATOM      4  N   UNL     1      34.514 -17.150 -22.500  0.00  0.00    -0.141 NA
ATOM      5  C   UNL     1      34.468 -16.443 -23.812  0.00  0.00    +0.182 C 
ATOM      6  C   UNL     1      34.516 -14.916 -23.719  0.00  0.00    +0.055 C 
ATOM      7  C   UNL     1      34.603 -16.307 -21.276  0.00  0.00    +0.122 C 
ATOM      8  C   UNL     1      33.713 -14.375 -22.569  0.00  0.00    -0.023 C 
ATOM      9  C   UNL     1      33.755 -15.069 -21.352  0.00  0.00    -0.008 C 
ATOM     10  C   UNL     1      32.980 -13.188 -22.670  0.00  0.00    -0.004 C 
ATOM     11  C   UNL     1      33.065 -14.573 -20.243  0.00  0.00    -0.003 C 
ATOM     12  C   UNL     1      32.281 -12.705 -21.563  0.00  0.00    -0.000 C 
ATOM     13  C   UNL     1      32.324 -13.396 -20.352  0.00  0.00    -0.000 C 
BRANCH   5  15
ATOM     14  O   UNL     1      32.668 -18.000 -24.236  0.00  0.00    -0.249 OA
ATOM     15  C   UNL     1      33.180 -16.905 -24.422  0.00  0.00    +0.330 C 
BRANCH  15  16
ATOM     16  O   UNL     1      32.654 -15.943 -25.217  0.00  0.00    -0.479 OA
ATOM     17  H   UNL     1      33.147 -15.167 -25.403  0.00  0.00    +0.295 HD
ENDBRANCH  15  16
ENDBRANCH   5  15
ENDBRANCH   1   4
BRANCH   1  18
ATOM     18  C   UNL     1      34.710 -19.582 -21.079  0.00  0.00    +0.122 C 
ATOM     19  C   UNL     1      33.348 -19.646 -20.915  0.00  0.00    +0.020 C 
ATOM     20  C   UNL     1      35.598 -20.209 -20.240  0.00  0.00    +0.020 C 
ATOM     21  C   UNL     1      33.715 -21.033 -18.971  0.00  0.00    +0.000 C 
ATOM     22  C   UNL     1      32.842 -20.383 -19.844  0.00  0.00    +0.001 C 
ATOM     23  C   UNL     1      35.093 -20.946 -19.169  0.00  0.00    +0.001 C 
BRANCH  21  24
ATOM     24  C   UNL     1      33.190 -21.797 -17.860  0.00  0.00    +0.000 C 
ATOM     25  C   UNL     1      31.812 -21.885 -17.662  0.00  0.00    +0.000 C 
ATOM     26  C   UNL     1      34.063 -22.446 -16.987  0.00  0.00    +0.000 C 
ATOM     27  C   UNL     1      31.308 -22.622 -16.590  0.00  0.00    +0.000 C 
ATOM     28  C   UNL     1      33.559 -23.183 -15.915  0.00  0.00    +0.000 C 
ATOM     29  C   UNL     1      32.180 -23.271 -15.717  0.00  0.00    +0.000 C 
ENDBRANCH  21  24
ENDBRANCH   1  18
TORSDOF 5
ENDMDL
MODEL 2
REMARK VINA RESULT:     -11.9      5.480      9.571
REMARK  Name = 444698
REMARK  5 active torsions:
REMARK  status: ('A' for Active; 'I' for Inactive)
REMARK    1  A    between atoms: S_1  and  N_4
REMARK    2  A    between atoms: S_1  and  C_18
REMARK    3  A    between atoms: C_5  and  C_15
REMARK    4  A    between atoms: C_15  and  O_16
REMARK    5  A    between atoms: C_21  and  C_24
REMARK                            x       y       z     vdW  Elec       q    Type
REMARK                         _______ _______ _______ _____ _____    ______ ____
ROOT
ATOM      1  S   UNL     1      34.553 -23.181 -15.407  0.00  0.00    +0.064 S 
ATOM      2  O   UNL     1      34.996 -24.505 -15.792  0.00  0.00    -0.153 OA
ATOM      3  O   UNL     1      35.226 -22.417 -14.377  0.00  0.00    -0.153 OA
ENDROOT
BRANCH   1   4
ATOM      4  N   UNL     1      32.880 -23.246 -15.055  0.00  0.00    -0.141 NA
ATOM      5  C   UNL     1      32.460 -24.152 -13.948  0.00  0.00    +0.182 C 
ATOM      6  C   UNL     1      31.113 -24.845 -14.162  0.00  0.00    +0.055 C 
ATOM      7  C   UNL     1      31.960 -23.125 -16.220  0.00  0.00    +0.122 C 
ATOM      8  C   UNL     1      30.088 -23.947 -14.798  0.00  0.00    -0.023 C 
ATOM      9  C   UNL     1      30.511 -23.088 -15.823  0.00  0.00    -0.008 C 
ATOM     10  C   UNL     1      28.739 -23.985 -14.434  0.00  0.00    -0.004 C 
ATOM     11  C   UNL     1      29.584 -22.274 -16.477  0.00  0.00    -0.003 C 
ATOM     12  C   UNL     1      27.820 -23.159 -15.080  0.00  0.00    -0.000 C 
ATOM     13  C   UNL     1      28.241 -22.305 -16.100  0.00  0.00    -0.000 C 
BRANCH   5  15
ATOM     14  O   UNL     1      31.451 -22.601 -12.393  0.00  0.00    -0.249 OA
ATOM     15  C   UNL     1      32.421 -23.256 -12.748  0.00  0.00    +0.330 C 
BRANCH  15  16
ATOM     16  O   UNL     1      33.613 -23.264 -12.104  0.00  0.00    -0.479 OA
ATOM     17  H   UNL     1      34.050 -24.077 -11.938  0.00  0.00    +0.295 HD
ENDBRANCH  15  16
ENDBRANCH   5  15
ENDBRANCH   1   4
BRANCH   1  18
ATOM     18  C   UNL     1      34.754 -22.185 -16.881  0.00  0.00    +0.122 C 
ATOM     19  C   UNL     1      35.960 -21.561 -17.089  0.00  0.00    +0.020 C 
ATOM     20  C   UNL     1      33.696 -22.082 -17.750  0.00  0.00    +0.020 C 
ATOM     21  C   UNL     1      35.063 -20.658 -19.141  0.00  0.00    +0.000 C 
ATOM     22  C   UNL     1      36.117 -20.785 -18.237  0.00  0.00    +0.001 C 
ATOM     23  C   UNL     1      33.852 -21.306 -18.898  0.00  0.00    +0.001 C 
BRANCH  21  24
ATOM     24  C   UNL     1      35.226 -19.852 -20.332  0.00  0.00    +0.000 C 
ATOM     25  C   UNL     1      36.388 -19.103 -20.515  0.00  0.00    +0.000 C 
ATOM     26  C   UNL     1      34.220 -19.826 -21.298  0.00  0.00    +0.000 C 
ATOM     27  C   UNL     1      36.544 -18.327 -21.664  0.00  0.00    +0.000 C 
ATOM     28  C   UNL     1      34.376 -19.050 -22.447  0.00  0.00    +0.000 C 
ATOM     29  C   UNL     1      35.539 -18.300 -22.630  0.00  0.00    +0.000 C 
ENDBRANCH  21  24
ENDBRANCH   1  18
TORSDOF 5
ENDMDL
MODEL 3
REMARK VINA RESULT:     -11.3      1.450      7.868
REMARK  Name = 444698
REMARK  5 active torsions:
REMARK  status: ('A' for Active; 'I' for Inactive)
REMARK    1  A    between atoms: S_1  and  N_4
REMARK    2  A    between atoms: S_1  and  C_18
REMARK    3  A    between atoms: C_5  and  C_15
REMARK    4  A    between atoms: C_15  and  O_16
REMARK    5  A    between atoms: C_21  and  C_24
REMARK                            x       y       z     vdW  Elec       q    Type
REMARK                         _______ _______ _______ _____ _____    ______ ____
ROOT
ATOM      1  S   UNL     1      35.496 -18.513 -22.346  0.00  0.00    +0.064 S 
ATOM      2  O   UNL     1      34.960 -19.089 -23.562  0.00  0.00    -0.153 OA
ATOM      3  O   UNL     1      36.907 -18.224 -22.194  0.00  0.00    -0.153 OA
ENDROOT
BRANCH   1   4
ATOM      4  N   UNL     1      34.967 -19.451 -21.018  0.00  0.00    -0.141 NA
ATOM      5  C   UNL     1      35.968 -20.369 -20.401  0.00  0.00    +0.182 C 
ATOM      6  C   UNL     1      35.394 -21.693 -19.890  0.00  0.00    +0.055 C 
ATOM      7  C   UNL     1      33.554 -19.920 -21.068  0.00  0.00    +0.122 C 
ATOM      8  C   UNL     1      34.049 -21.533 -19.237  0.00  0.00    -0.023 C 
ATOM      9  C   UNL     1      33.133 -20.648 -19.823  0.00  0.00    -0.008 C 
ATOM     10  C   UNL     1      33.680 -22.273 -18.109  0.00  0.00    -0.004 C 
ATOM     11  C   UNL     1      31.854 -20.508 -19.279  0.00  0.00    -0.003 C 
ATOM     12  C   UNL     1      32.406 -22.118 -17.562  0.00  0.00    -0.000 C 
ATOM     13  C   UNL     1      31.495 -21.238 -18.146  0.00  0.00    -0.000 C 
BRANCH   5  15
ATOM     14  O   UNL     1      36.610 -19.928 -18.113  0.00  0.00    -0.249 OA
ATOM     15  C   UNL     1      36.547 -19.564 -19.279  0.00  0.00    +0.330 C 
BRANCH  15  16
ATOM     16  O   UNL     1      36.993 -18.366 -19.728  0.00  0.00    -0.479 OA
ATOM     17  H   UNL     1      37.856 -18.075 -19.507  0.00  0.00    +0.295 HD
ENDBRANCH  15  16
ENDBRANCH   5  15
ENDBRANCH   1   4
BRANCH   1  18
ATOM     18  C   UNL     1      34.713 -16.908 -22.218  0.00  0.00    +0.122 C 
ATOM     19  C   UNL     1      34.510 -16.377 -20.967  0.00  0.00    +0.020 C 
ATOM     20  C   UNL     1      34.345 -16.266 -23.375  0.00  0.00    +0.020 C 
ATOM     21  C   UNL     1      33.513 -14.446 -22.021  0.00  0.00    +0.000 C 
ATOM     22  C   UNL     1      33.900 -15.127 -20.868  0.00  0.00    +0.001 C 
ATOM     23  C   UNL     1      33.735 -15.016 -23.275  0.00  0.00    +0.001 C 
BRANCH  21  24
ATOM     24  C   UNL     1      32.880 -13.149 -21.917  0.00  0.00    +0.000 C 
ATOM     25  C   UNL     1      33.021 -12.219 -22.947  0.00  0.00    +0.000 C 
ATOM     26  C   UNL     1      32.128 -12.830 -20.786  0.00  0.00    +0.000 C 
ATOM     27  C   UNL     1      32.411 -10.969 -22.845  0.00  0.00    +0.000 C 
ATOM     28  C   UNL     1      31.518 -11.580 -20.684  0.00  0.00    +0.000 C 
ATOM     29  C   UNL     1      31.659 -10.649 -21.715  0.00  0.00    +0.000 C 
ENDBRANCH  21  24
ENDBRANCH   1  18
TORSDOF 5
ENDMDL
MODEL 4
REMARK VINA RESULT:     -11.2      6.694      9.855
REMARK  Name = 444698
REMARK  5 active torsions:
REMARK  status: ('A' for Active; 'I' for Inactive)
REMARK    1  A    between atoms: S_1  and  N_4
REMARK    2  A    between atoms: S_1  and  C_18
REMARK    3  A    between atoms: C_5  and  C_15
REMARK    4  A    between atoms: C_15  and  O_16
REMARK    5  A    between atoms: C_21  and  C_24
REMARK                            x       y       z     vdW  Elec       q    Type
REMARK                         _______ _______ _______ _____ _____    ______ ____
ROOT
ATOM      1  S   UNL     1      31.055  -9.358 -20.207  0.00  0.00    +0.064 S 
ATOM      2  O   UNL     1      29.636  -9.631 -20.110  0.00  0.00    -0.153 OA
ATOM      3  O   UNL     1      31.876  -9.145 -19.033  0.00  0.00    -0.153 OA
ENDROOT
BRANCH   1   4
ATOM      4  N   UNL     1      31.287  -8.060 -21.297  0.00  0.00    -0.141 NA
ATOM      5  C   UNL     1      31.358  -6.692 -20.709  0.00  0.00    +0.182 C 
ATOM      6  C   UNL     1      30.736  -5.591 -21.571  0.00  0.00    +0.055 C 
ATOM      7  C   UNL     1      30.630  -8.196 -22.627  0.00  0.00    +0.122 C 
ATOM      8  C   UNL     1      31.014  -5.771 -23.038  0.00  0.00    -0.023 C 
ATOM      9  C   UNL     1      30.962  -7.070 -23.564  0.00  0.00    -0.008 C 
ATOM     10  C   UNL     1      31.265  -4.686 -23.884  0.00  0.00    -0.004 C 
ATOM     11  C   UNL     1      31.162  -7.277 -24.931  0.00  0.00    -0.003 C 
ATOM     12  C   UNL     1      31.479  -4.900 -25.246  0.00  0.00    -0.000 C 
ATOM     13  C   UNL     1      31.427  -6.193 -25.768  0.00  0.00    -0.000 C 
BRANCH   5  15
ATOM     14  O   UNL     1      33.653  -6.416 -21.416  0.00  0.00    -0.249 OA
ATOM     15  C   UNL     1      32.825  -6.462 -20.516  0.00  0.00    +0.330 C 
BRANCH  15  16
ATOM     16  O   UNL     1      33.119  -6.312 -19.202  0.00  0.00    -0.479 OA
ATOM     17  H   UNL     1      33.992  -6.095 -18.939  0.00  0.00    +0.295 HD
ENDBRANCH  15  16
ENDBRANCH   5  15
ENDBRANCH   1   4
BRANCH   1  18
ATOM     18  C   UNL     1      31.753 -10.824 -20.959  0.00  0.00    +0.122 C 
ATOM     19  C   UNL     1      32.159 -10.758 -22.269  0.00  0.00    +0.020 C 
ATOM     20  C   UNL     1      31.857 -11.963 -20.197  0.00  0.00    +0.020 C 
ATOM     21  C   UNL     1      32.824 -13.075 -22.111  0.00  0.00    +0.000 C 
ATOM     22  C   UNL     1      32.703 -11.901 -22.855  0.00  0.00    +0.001 C 
ATOM     23  C   UNL     1      32.400 -13.106 -20.783  0.00  0.00    +0.001 C 
BRANCH  21  24
ATOM     24  C   UNL     1      33.387 -14.260 -22.719  0.00  0.00    +0.000 C 
ATOM     25  C   UNL     1      34.134 -15.152 -21.950  0.00  0.00    +0.000 C 
ATOM     26  C   UNL     1      33.183 -14.511 -24.077  0.00  0.00    +0.000 C 
ATOM     27  C   UNL     1      34.678 -16.295 -22.538  0.00  0.00    +0.000 C 
ATOM     28  C   UNL     1      33.726 -15.654 -24.664  0.00  0.00    +0.000 C 
ATOM     29  C   UNL     1      34.474 -16.547 -23.894  0.00  0.00    +0.000 C 
ENDBRANCH  21  24
ENDBRANCH   1  18
TORSDOF 5
ENDMDL
MODEL 5
REMARK VINA RESULT:     -11.2      6.865     10.423
REMARK  Name = 444698
REMARK  5 active torsions:
REMARK  status: ('A' for Active; 'I' for Inactive)
REMARK    1  A    between atoms: S_1  and  N_4
REMARK    2  A    between atoms: S_1  and  C_18
REMARK    3  A    between atoms: C_5  and  C_15
REMARK    4  A    between atoms: C_15  and  O_16
REMARK    5  A    between atoms: C_21  and  C_24
REMARK                            x       y       z     vdW  Elec       q    Type
REMARK                         _______ _______ _______ _____ _____    ______ ____
ROOT
ATOM      1  S   UNL     1      30.916  -7.991 -22.564  0.00  0.00    +0.064 S 
ATOM      2  O   UNL     1      29.652  -8.191 -23.242  0.00  0.00    -0.153 OA
ATOM      3  O   UNL     1      30.985  -7.495 -21.205  0.00  0.00    -0.153 OA
ENDROOT
BRANCH   1   4
ATOM      4  N   UNL     1      31.926  -7.038 -23.562  0.00  0.00    -0.141 NA
ATOM      5  C   UNL     1      32.815  -6.056 -22.878  0.00  0.00    +0.182 C 
ATOM      6  C   UNL     1      33.029  -4.745 -23.639  0.00  0.00    +0.055 C 
ATOM      7  C   UNL     1      31.357  -6.638 -24.879  0.00  0.00    +0.122 C 
ATOM      8  C   UNL     1      33.169  -4.948 -25.123  0.00  0.00    -0.023 C 
ATOM      9  C   UNL     1      32.337  -5.892 -25.740  0.00  0.00    -0.008 C 
ATOM     10  C   UNL     1      34.058  -4.191 -25.894  0.00  0.00    -0.004 C 
ATOM     11  C   UNL     1      32.397  -6.075 -27.124  0.00  0.00    -0.003 C 
ATOM     12  C   UNL     1      34.124  -4.389 -27.273  0.00  0.00    -0.000 C 
ATOM     13  C   UNL     1      33.295  -5.329 -27.887  0.00  0.00    -0.000 C 
BRANCH   5  15
ATOM     14  O   UNL     1      34.580  -7.575 -23.527  0.00  0.00    -0.249 OA
ATOM     15  C   UNL     1      34.106  -6.798 -22.710  0.00  0.00    +0.330 C 
BRANCH  15  16
ATOM     16  O   UNL     1      34.683  -6.495 -21.522  0.00  0.00    -0.479 OA
ATOM     17  H   UNL     1      34.362  -5.773 -21.017  0.00  0.00    +0.295 HD
ENDBRANCH  15  16
ENDBRANCH   5  15
ENDBRANCH   1   4
BRANCH   1  18
ATOM     18  C   UNL     1      31.644  -9.623 -22.462  0.00  0.00    +0.122 C 
ATOM     19  C   UNL     1      32.557  -9.993 -23.418  0.00  0.00    +0.020 C 
ATOM     20  C   UNL     1      31.262 -10.446 -21.431  0.00  0.00    +0.020 C 
ATOM     21  C   UNL     1      32.760 -12.127 -22.305  0.00  0.00    +0.000 C 
ATOM     22  C   UNL     1      33.124 -11.265 -23.339  0.00  0.00    +0.001 C 
ATOM     23  C   UNL     1      31.828 -11.718 -21.351  0.00  0.00    +0.001 C 
BRANCH  21  24
ATOM     24  C   UNL     1      33.347 -13.446 -22.224  0.00  0.00    +0.000 C 
ATOM     25  C   UNL     1      33.703 -14.126 -23.388  0.00  0.00    +0.000 C 
ATOM     26  C   UNL     1      33.559 -14.039 -20.978  0.00  0.00    +0.000 C 
ATOM     27  C   UNL     1      34.269 -15.399 -23.308  0.00  0.00    +0.000 C 
ATOM     28  C   UNL     1      34.126 -15.311 -20.898  0.00  0.00    +0.000 C 
ATOM     29  C   UNL     1      34.481 -15.991 -22.064  0.00  0.00    +0.000 C 
ENDBRANCH  21  24
ENDBRANCH   1  18
TORSDOF 5
ENDMDL
MODEL 6
REMARK VINA RESULT:     -11.2      6.875     10.434
REMARK  Name = 444698
REMARK  5 active torsions:
REMARK  status: ('A' for Active; 'I' for Inactive)
REMARK    1  A    between atoms: S_1  and  N_4
REMARK    2  A    between atoms: S_1  and  C_18
REMARK    3  A    between atoms: C_5  and  C_15
REMARK    4  A    between atoms: C_15  and  O_16
REMARK    5  A    between atoms: C_21  and  C_24
REMARK                            x       y       z     vdW  Elec       q    Type
REMARK                         _______ _______ _______ _____ _____    ______ ____
ROOT
ATOM      1  S   UNL     1      30.921  -7.975 -22.573  0.00  0.00    +0.064 S 
ATOM      2  O   UNL     1      29.657  -8.174 -23.253  0.00  0.00    -0.153 OA
ATOM      3  O   UNL     1      30.988  -7.478 -21.214  0.00  0.00    -0.153 OA
ENDROOT
BRANCH   1   4
ATOM      4  N   UNL     1      31.933  -7.025 -23.571  0.00  0.00    -0.141 NA
ATOM      5  C   UNL     1      32.823  -6.043 -22.886  0.00  0.00    +0.182 C 
ATOM      6  C   UNL     1      33.039  -4.734 -23.648  0.00  0.00    +0.055 C 
ATOM      7  C   UNL     1      31.366  -6.624 -24.888  0.00  0.00    +0.122 C 
ATOM      8  C   UNL     1      33.181  -4.937 -25.132  0.00  0.00    -0.023 C 
ATOM      9  C   UNL     1      32.348  -5.881 -25.749  0.00  0.00    -0.008 C 
ATOM     10  C   UNL     1      34.071  -4.183 -25.902  0.00  0.00    -0.004 C 
ATOM     11  C   UNL     1      32.409  -6.065 -27.132  0.00  0.00    -0.003 C 
ATOM     12  C   UNL     1      34.139  -4.381 -27.281  0.00  0.00    -0.000 C 
ATOM     13  C   UNL     1      33.309  -5.320 -27.895  0.00  0.00    -0.000 C 
BRANCH   5  15
ATOM     14  O   UNL     1      34.590  -7.560 -23.536  0.00  0.00    -0.249 OA
ATOM     15  C   UNL     1      34.112  -6.787 -22.717  0.00  0.00    +0.330 C 
BRANCH  15  16
ATOM     16  O   UNL     1      34.684  -6.491 -21.524  0.00  0.00    -0.479 OA
ATOM     17  H   UNL     1      35.544  -6.120 -21.497  0.00  0.00    +0.295 HD
ENDBRANCH  15  16
ENDBRANCH   5  15
ENDBRANCH   1   4
BRANCH   1  18
ATOM     18  C   UNL     1      31.646  -9.608 -22.469  0.00  0.00    +0.122 C 
ATOM     19  C   UNL     1      31.253 -10.435 -21.445  0.00  0.00    +0.020 C 
ATOM     20  C   UNL     1      32.570  -9.975 -23.417  0.00  0.00    +0.020 C 
ATOM     21  C   UNL     1      32.760 -12.113 -22.310  0.00  0.00    +0.000 C 
ATOM     22  C   UNL     1      31.819 -11.707 -21.364  0.00  0.00    +0.001 C 
ATOM     23  C   UNL     1      33.136 -11.247 -23.336  0.00  0.00    +0.001 C 
BRANCH  21  24
ATOM     24  C   UNL     1      33.346 -13.433 -22.225  0.00  0.00    +0.000 C 
ATOM     25  C   UNL     1      33.556 -14.025 -20.981  0.00  0.00    +0.000 C 
ATOM     26  C   UNL     1      33.702 -14.113 -23.391  0.00  0.00    +0.000 C 
ATOM     27  C   UNL     1      34.123 -15.298 -20.901  0.00  0.00    +0.000 C 
ATOM     28  C   UNL     1      34.268 -15.385 -23.311  0.00  0.00    +0.000 C 
ATOM     29  C   UNL     1      34.479 -15.978 -22.065  0.00  0.00    +0.000 C 
ENDBRANCH  21  24
ENDBRANCH   1  18
TORSDOF 5
ENDMDL
MODEL 7
REMARK VINA RESULT:     -10.6      5.261     10.076
REMARK  Name = 444698
REMARK  5 active torsions:
REMARK  status: ('A' for Active; 'I' for Inactive)
REMARK    1  A    between atoms: S_1  and  N_4
REMARK    2  A    between atoms: S_1  and  C_18
REMARK    3  A    between atoms: C_5  and  C_15
REMARK    4  A    between atoms: C_15  and  O_16
REMARK    5  A    between atoms: C_21  and  C_24
REMARK                            x       y       z     vdW  Elec       q    Type
REMARK                         _______ _______ _______ _____ _____    ______ ____
ROOT
ATOM      1  S   UNL     1      32.320 -23.218 -16.324  0.00  0.00    +0.064 S 
ATOM      2  O   UNL     1      31.389 -22.357 -15.623  0.00  0.00    -0.153 OA
ATOM      3  O   UNL     1      31.879 -24.388 -17.053  0.00  0.00    -0.153 OA
ENDROOT
BRANCH   1   4
ATOM      4  N   UNL     1      33.567 -23.666 -15.243  0.00  0.00    -0.141 NA
ATOM      5  C   UNL     1      33.864 -22.721 -14.128  0.00  0.00    +0.182 C 
ATOM      6  C   UNL     1      35.341 -22.632 -13.739  0.00  0.00    +0.055 C 
ATOM      7  C   UNL     1      34.720 -24.397 -15.840  0.00  0.00    +0.122 C 
ATOM      8  C   UNL     1      36.035 -23.966 -13.770  0.00  0.00    -0.023 C 
ATOM      9  C   UNL     1      35.724 -24.846 -14.816  0.00  0.00    -0.008 C 
ATOM     10  C   UNL     1      37.004 -24.320 -12.825  0.00  0.00    -0.004 C 
ATOM     11  C   UNL     1      36.382 -26.075 -14.912  0.00  0.00    -0.003 C 
ATOM     12  C   UNL     1      37.647 -25.554 -12.918  0.00  0.00    -0.000 C 
ATOM     13  C   UNL     1      37.338 -26.430 -13.959  0.00  0.00    -0.000 C 
BRANCH   5  15
ATOM     14  O   UNL     1      33.283 -24.249 -12.348  0.00  0.00    -0.249 OA
ATOM     15  C   UNL     1      33.037 -23.238 -12.992  0.00  0.00    +0.330 C 
BRANCH  15  16
ATOM     16  O   UNL     1      31.970 -22.434 -12.770  0.00  0.00    -0.479 OA
ATOM     17  H   UNL     1      31.923 -21.924 -11.985  0.00  0.00    +0.295 HD
ENDBRANCH  15  16
ENDBRANCH   5  15
ENDBRANCH   1   4
BRANCH   1  18
ATOM     18  C   UNL     1      33.047 -22.176 -17.584  0.00  0.00    +0.122 C 
ATOM     19  C   UNL     1      34.416 -22.076 -17.641  0.00  0.00    +0.020 C 
ATOM     20  C   UNL     1      32.210 -21.513 -18.448  0.00  0.00    +0.020 C 
ATOM     21  C   UNL     1      34.163 -20.576 -19.517  0.00  0.00    +0.000 C 
ATOM     22  C   UNL     1      34.982 -21.264 -18.623  0.00  0.00    +0.001 C 
ATOM     23  C   UNL     1      32.776 -20.700 -19.429  0.00  0.00    +0.001 C 
BRANCH  21  24
ATOM     24  C   UNL     1      34.751 -19.733 -20.535  0.00  0.00    +0.000 C 
ATOM     25  C   UNL     1      34.023 -19.409 -21.680  0.00  0.00    +0.000 C 
ATOM     26  C   UNL     1      36.047 -19.245 -20.372  0.00  0.00    +0.000 C 
ATOM     27  C   UNL     1      34.591 -18.597 -22.662  0.00  0.00    +0.000 C 
ATOM     28  C   UNL     1      36.616 -18.432 -21.352  0.00  0.00    +0.000 C 
ATOM     29  C   UNL     1      35.887 -18.108 -22.498  0.00  0.00    +0.000 C 
ENDBRANCH  21  24
ENDBRANCH   1  18
TORSDOF 5
ENDMDL
MODEL 8
REMARK VINA RESULT:     -10.5      5.583      9.848
REMARK  Name = 444698
REMARK  5 active torsions:
REMARK  status: ('A' for Active; 'I' for Inactive)
REMARK    1  A    between atoms: S_1  and  N_4
REMARK    2  A    between atoms: S_1  and  C_18
REMARK    3  A    between atoms: C_5  and  C_15
REMARK    4  A    between atoms: C_15  and  O_16
REMARK    5  A    between atoms: C_21  and  C_24
REMARK                            x       y       z     vdW  Elec       q    Type
REMARK                         _______ _______ _______ _____ _____    ______ ____
ROOT
ATOM      1  S   UNL     1      36.247 -22.803 -15.029  0.00  0.00    +0.064 S 
ATOM      2  O   UNL     1      36.855 -24.053 -15.436  0.00  0.00    -0.153 OA
ATOM      3  O   UNL     1      36.931 -21.866 -14.162  0.00  0.00    -0.153 OA
ENDROOT
BRANCH   1   4
ATOM      4  N   UNL     1      34.696 -23.133 -14.388  0.00  0.00    -0.141 NA
ATOM      5  C   UNL     1      34.564 -24.353 -13.541  0.00  0.00    +0.182 C 
ATOM      6  C   UNL     1      33.229 -25.089 -13.680  0.00  0.00    +0.055 C 
ATOM      7  C   UNL     1      33.539 -22.780 -15.257  0.00  0.00    +0.122 C 
ATOM      8  C   UNL     1      32.057 -24.155 -13.803  0.00  0.00    -0.023 C 
ATOM      9  C   UNL     1      32.212 -23.003 -14.587  0.00  0.00    -0.008 C 
ATOM     10  C   UNL     1      30.823 -24.431 -13.206  0.00  0.00    -0.004 C 
ATOM     11  C   UNL     1      31.134 -22.134 -14.771  0.00  0.00    -0.003 C 
ATOM     12  C   UNL     1      29.754 -23.552 -13.380  0.00  0.00    -0.000 C 
ATOM     13  C   UNL     1      29.908 -22.406 -14.161  0.00  0.00    -0.000 C 
BRANCH   5  15
ATOM     14  O   UNL     1      34.552 -24.488 -11.128  0.00  0.00    -0.249 OA
ATOM     15  C   UNL     1      34.755 -23.842 -12.146  0.00  0.00    +0.330 C 
BRANCH  15  16
ATOM     16  O   UNL     1      35.184 -22.557 -12.161  0.00  0.00    -0.479 OA
ATOM     17  H   UNL     1      35.374 -22.118 -11.355  0.00  0.00    +0.295 HD
ENDBRANCH  15  16
ENDBRANCH   5  15
ENDBRANCH   1   4
BRANCH   1  18
ATOM     18  C   UNL     1      36.017 -21.889 -16.551  0.00  0.00    +0.122 C 
ATOM     19  C   UNL     1      35.016 -22.283 -17.406  0.00  0.00    +0.020 C 
ATOM     20  C   UNL     1      36.850 -20.828 -16.810  0.00  0.00    +0.020 C 
ATOM     21  C   UNL     1      35.665 -20.489 -18.886  0.00  0.00    +0.000 C 
ATOM     22  C   UNL     1      34.837 -21.572 -18.592  0.00  0.00    +0.001 C 
ATOM     23  C   UNL     1      36.671 -20.117 -17.996  0.00  0.00    +0.001 C 
BRANCH  21  24
ATOM     24  C   UNL     1      35.479 -19.751 -20.117  0.00  0.00    +0.000 C 
ATOM     25  C   UNL     1      36.498 -18.931 -20.601  0.00  0.00    +0.000 C 
ATOM     26  C   UNL     1      34.279 -19.860 -20.820  0.00  0.00    +0.000 C 
ATOM     27  C   UNL     1      36.318 -18.220 -21.787  0.00  0.00    +0.000 C 
ATOM     28  C   UNL     1      34.099 -19.149 -22.007  0.00  0.00    +0.000 C 
ATOM     29  C   UNL     1      35.119 -18.329 -22.491  0.00  0.00    +0.000 C 
ENDBRANCH  21  24
ENDBRANCH   1  18
TORSDOF 5
ENDMDL
