MODEL 1
REMARK VINA RESULT:     -12.1      0.000      0.000
REMARK  Name = 9890801
REMARK  11 active torsions:
REMARK  status: ('A' for Active; 'I' for Inactive)
REMARK    1  A    between atoms: N_1  and  S_2
REMARK    2  A    between atoms: N_1  and  C_11
REMARK    3  A    between atoms: N_1  and  C_22
REMARK    4  A    between atoms: S_2  and  C_6
REMARK    5  A    between atoms: C_11  and  C_13
REMARK    6  A    between atoms: C_12  and  C_18
REMARK    7  A    between atoms: C_22  and  C_23
REMARK    8  A    between atoms: C_26  and  O_29
REMARK    9  A    between atoms: O_29  and  C_30
REMARK   10  A    between atoms: C_30  and  C_32
REMARK   11  A    between atoms: C_32  and  O_33
REMARK                            x       y       z     vdW  Elec       q    Type
REMARK                         _______ _______ _______ _____ _____    ______ ____
ROOT
ATOM      1  N   UNL     1      34.086 -22.692 -15.715  0.00  0.00    -0.147 NA
ENDROOT
BRANCH   1   2
ATOM      2  S   UNL     1      35.391 -23.722 -15.255  0.00  0.00    +0.065 S 
ATOM      3  O   UNL     1      36.641 -23.163 -15.734  0.00  0.00    -0.153 OA
ATOM      4  O   UNL     1      35.056 -25.098 -15.574  0.00  0.00    -0.153 OA
BRANCH   2   6
ATOM      5  N   UNL     1      34.494 -24.282 -11.359  0.00  0.00    -0.241 NA
ATOM      6  C   UNL     1      35.393 -23.578 -13.489  0.00  0.00    +0.141 C 
ATOM      7  C   UNL     1      36.248 -22.691 -12.844  0.00  0.00    +0.023 C 
ATOM      8  C   UNL     1      34.543 -24.344 -12.708  0.00  0.00    +0.119 C 
ATOM      9  C   UNL     1      36.228 -22.600 -11.456  0.00  0.00    +0.022 C 
ATOM     10  C   UNL     1      35.340 -23.411 -10.767  0.00  0.00    +0.099 C 
ENDBRANCH   2   6
ENDBRANCH   1   2
BRANCH   1  11
ATOM     11  C   UNL     1      33.427 -22.949 -17.020  0.00  0.00    +0.122 C 
BRANCH  11  13
ATOM     12  C   UNL     1      34.530 -20.098 -20.017  0.00  0.00    -0.023 C 
ATOM     13  C   UNL     1      33.811 -21.956 -18.064  0.00  0.00    -0.004 C 
ATOM     14  C   UNL     1      35.515 -20.714 -19.245  0.00  0.00    -0.005 C 
ATOM     15  C   UNL     1      33.186 -20.411 -19.813  0.00  0.00    -0.005 C 
ATOM     16  C   UNL     1      35.155 -21.642 -18.268  0.00  0.00    -0.003 C 
ATOM     17  C   UNL     1      32.826 -21.340 -18.836  0.00  0.00    -0.003 C 
BRANCH  12  18
ATOM     18  C   UNL     1      34.926 -19.072 -21.093  0.00  0.00    +0.019 C 
ATOM     19  C   UNL     1      34.485 -19.580 -22.482  0.00  0.00    +0.004 C 
ATOM     20  C   UNL     1      36.457 -18.878 -21.085  0.00  0.00    +0.004 C 
ATOM     21  C   UNL     1      34.288 -17.680 -20.891  0.00  0.00    +0.004 C 
ENDBRANCH  12  18
ENDBRANCH  11  13
ENDBRANCH   1  11
BRANCH   1  22
ATOM     22  C   UNL     1      33.111 -22.300 -14.666  0.00  0.00    +0.123 C 
BRANCH  22  23
ATOM     23  C   UNL     1      31.748 -22.884 -14.909  0.00  0.00    -0.001 C 
ATOM     24  C   UNL     1      30.853 -22.235 -15.760  0.00  0.00    +0.034 C 
ATOM     25  C   UNL     1      31.378 -24.074 -14.283  0.00  0.00    -0.003 C 
ATOM     26  C   UNL     1      29.588 -22.777 -15.985  0.00  0.00    +0.139 C 
ATOM     27  C   UNL     1      30.112 -24.616 -14.508  0.00  0.00    +0.003 C 
ATOM     28  C   UNL     1      29.217 -23.968 -15.359  0.00  0.00    +0.037 C 
BRANCH  26  29
ATOM     29  O   UNL     1      28.712 -22.145 -16.813  0.00  0.00    -0.464 OA
BRANCH  29  30
ATOM     30  C   UNL     1      27.394 -22.686 -16.900  0.00  0.00    +0.314 C 
BRANCH  30  32
ATOM     31  O   UNL     1      26.140 -20.637 -17.265  0.00  0.00    -0.246 OA
ATOM     32  C   UNL     1      26.384 -21.618 -16.580  0.00  0.00    +0.359 C 
BRANCH  32  33
ATOM     33  O   UNL     1      25.766 -21.896 -15.405  0.00  0.00    -0.478 OA
ATOM     34  H   UNL     1      24.984 -22.412 -15.396  0.00  0.00    +0.295 HD
ENDBRANCH  32  33
ENDBRANCH  30  32
ENDBRANCH  29  30
ENDBRANCH  26  29
ENDBRANCH  22  23
ENDBRANCH   1  22
TORSDOF 11
ENDMDL
MODEL 2
REMARK VINA RESULT:     -10.8      2.959      6.735
REMARK  Name = 9890801
REMARK  11 active torsions:
REMARK  status: ('A' for Active; 'I' for Inactive)
REMARK    1  A    between atoms: N_1  and  S_2
REMARK    2  A    between atoms: N_1  and  C_11
REMARK    3  A    between atoms: N_1  and  C_22
REMARK    4  A    between atoms: S_2  and  C_6
REMARK    5  A    between atoms: C_11  and  C_13
REMARK    6  A    between atoms: C_12  and  C_18
REMARK    7  A    between atoms: C_22  and  C_23
REMARK    8  A    between atoms: C_26  and  O_29
REMARK    9  A    between atoms: O_29  and  C_30
REMARK   10  A    between atoms: C_30  and  C_32
REMARK   11  A    between atoms: C_32  and  O_33
REMARK                            x       y       z     vdW  Elec       q    Type
REMARK                         _______ _______ _______ _____ _____    ______ ____
ROOT
ATOM      1  N   UNL     1      35.313 -22.892 -15.609  0.00  0.00    -0.147 NA
ENDROOT
BRANCH   1   2
ATOM      2  S   UNL     1      35.856 -24.380 -14.928  0.00  0.00    +0.065 S 
ATOM      3  O   UNL     1      37.240 -24.607 -15.303  0.00  0.00    -0.153 OA
ATOM      4  O   UNL     1      34.870 -25.415 -15.178  0.00  0.00    -0.153 OA
BRANCH   2   6
ATOM      5  N   UNL     1      34.742 -24.309 -11.049  0.00  0.00    -0.241 NA
ATOM      6  C   UNL     1      35.832 -24.042 -13.189  0.00  0.00    +0.141 C 
ATOM      7  C   UNL     1      36.830 -23.277 -12.594  0.00  0.00    +0.023 C 
ATOM      8  C   UNL     1      34.819 -24.531 -12.379  0.00  0.00    +0.119 C 
ATOM      9  C   UNL     1      36.784 -23.028 -11.226  0.00  0.00    +0.022 C 
ATOM     10  C   UNL     1      35.728 -23.562 -10.505  0.00  0.00    +0.099 C 
ENDBRANCH   2   6
ENDBRANCH   1   2
BRANCH   1  11
ATOM     11  C   UNL     1      34.414 -22.042 -14.790  0.00  0.00    +0.122 C 
BRANCH  11  13
ATOM     12  C   UNL     1      30.306 -23.200 -15.109  0.00  0.00    -0.023 C 
ATOM     13  C   UNL     1      32.983 -22.445 -14.901  0.00  0.00    -0.004 C 
ATOM     14  C   UNL     1      31.097 -23.113 -16.255  0.00  0.00    -0.005 C 
ATOM     15  C   UNL     1      30.853 -22.909 -13.860  0.00  0.00    -0.005 C 
ATOM     16  C   UNL     1      32.435 -22.735 -16.151  0.00  0.00    -0.003 C 
ATOM     17  C   UNL     1      32.192 -22.532 -13.755  0.00  0.00    -0.003 C 
BRANCH  12  18
ATOM     18  C   UNL     1      28.828 -23.614 -15.224  0.00  0.00    +0.019 C 
ATOM     19  C   UNL     1      27.924 -22.404 -14.906  0.00  0.00    +0.004 C 
ATOM     20  C   UNL     1      28.529 -24.750 -14.223  0.00  0.00    +0.004 C 
ATOM     21  C   UNL     1      28.431 -24.125 -16.627  0.00  0.00    +0.004 C 
ENDBRANCH  12  18
ENDBRANCH  11  13
ENDBRANCH   1  11
BRANCH   1  22
ATOM     22  C   UNL     1      36.294 -22.085 -16.379  0.00  0.00    +0.123 C 
BRANCH  22  23
ATOM     23  C   UNL     1      35.710 -21.539 -17.650  0.00  0.00    -0.001 C 
ATOM     24  C   UNL     1      36.347 -20.494 -18.319  0.00  0.00    +0.034 C 
ATOM     25  C   UNL     1      34.530 -22.078 -18.162  0.00  0.00    -0.003 C 
ATOM     26  C   UNL     1      35.804 -19.987 -19.499  0.00  0.00    +0.139 C 
ATOM     27  C   UNL     1      33.986 -21.570 -19.343  0.00  0.00    +0.003 C 
ATOM     28  C   UNL     1      34.623 -20.525 -20.012  0.00  0.00    +0.037 C 
BRANCH  26  29
ATOM     29  O   UNL     1      36.424 -18.966 -20.152  0.00  0.00    -0.464 OA
BRANCH  29  30
ATOM     30  C   UNL     1      35.951 -18.650 -21.461  0.00  0.00    +0.314 C 
BRANCH  30  32
ATOM     31  O   UNL     1      34.877 -16.714 -20.460  0.00  0.00    -0.246 OA
ATOM     32  C   UNL     1      35.285 -17.302 -21.450  0.00  0.00    +0.359 C 
BRANCH  32  33
ATOM     33  O   UNL     1      35.197 -16.814 -22.713  0.00  0.00    -0.478 OA
ATOM     34  H   UNL     1      35.556 -15.974 -22.918  0.00  0.00    +0.295 HD
ENDBRANCH  32  33
ENDBRANCH  30  32
ENDBRANCH  29  30
ENDBRANCH  26  29
ENDBRANCH  22  23
ENDBRANCH   1  22
TORSDOF 11
ENDMDL
MODEL 3
REMARK VINA RESULT:     -10.8      2.558      6.400
REMARK  Name = 9890801
REMARK  11 active torsions:
REMARK  status: ('A' for Active; 'I' for Inactive)
REMARK    1  A    between atoms: N_1  and  S_2
REMARK    2  A    between atoms: N_1  and  C_11
REMARK    3  A    between atoms: N_1  and  C_22
REMARK    4  A    between atoms: S_2  and  C_6
REMARK    5  A    between atoms: C_11  and  C_13
REMARK    6  A    between atoms: C_12  and  C_18
REMARK    7  A    between atoms: C_22  and  C_23
REMARK    8  A    between atoms: C_26  and  O_29
REMARK    9  A    between atoms: O_29  and  C_30
REMARK   10  A    between atoms: C_30  and  C_32
REMARK   11  A    between atoms: C_32  and  O_33
REMARK                            x       y       z     vdW  Elec       q    Type
REMARK                         _______ _______ _______ _____ _____    ______ ____
ROOT
ATOM      1  N   UNL     1      33.201 -22.978 -16.232  0.00  0.00    -0.147 NA
ENDROOT
BRANCH   1   2
ATOM      2  S   UNL     1      32.206 -23.160 -14.833  0.00  0.00    +0.065 S 
ATOM      3  O   UNL     1      32.296 -21.962 -14.018  0.00  0.00    -0.153 OA
ATOM      4  O   UNL     1      32.455 -24.456 -14.229  0.00  0.00    -0.153 OA
BRANCH   2   6
ATOM      5  N   UNL     1      28.836 -22.100 -16.786  0.00  0.00    -0.241 NA
ATOM      6  C   UNL     1      30.575 -23.205 -15.522  0.00  0.00    +0.141 C 
ATOM      7  C   UNL     1      29.760 -24.320 -15.361  0.00  0.00    +0.023 C 
ATOM      8  C   UNL     1      30.070 -22.130 -16.237  0.00  0.00    +0.119 C 
ATOM      9  C   UNL     1      28.483 -24.327 -15.913  0.00  0.00    +0.022 C 
ATOM     10  C   UNL     1      28.073 -23.201 -16.611  0.00  0.00    +0.099 C 
ENDBRANCH   2   6
ENDBRANCH   1   2
BRANCH   1  11
ATOM     11  C   UNL     1      32.534 -22.955 -17.557  0.00  0.00    +0.122 C 
BRANCH  11  13
ATOM     12  C   UNL     1      34.235 -20.055 -20.208  0.00  0.00    -0.023 C 
ATOM     13  C   UNL     1      33.127 -21.945 -18.481  0.00  0.00    -0.004 C 
ATOM     14  C   UNL     1      32.878 -19.998 -19.890  0.00  0.00    -0.005 C 
ATOM     15  C   UNL     1      35.038 -21.057 -19.663  0.00  0.00    -0.005 C 
ATOM     16  C   UNL     1      32.324 -20.943 -19.027  0.00  0.00    -0.003 C 
ATOM     17  C   UNL     1      34.484 -22.002 -18.799  0.00  0.00    -0.003 C 
BRANCH  12  18
ATOM     18  C   UNL     1      34.846 -19.015 -21.163  0.00  0.00    +0.019 C 
ATOM     19  C   UNL     1      34.539 -19.407 -22.624  0.00  0.00    +0.004 C 
ATOM     20  C   UNL     1      36.375 -18.961 -20.960  0.00  0.00    +0.004 C 
ATOM     21  C   UNL     1      34.307 -17.583 -20.951  0.00  0.00    +0.004 C 
ENDBRANCH  12  18
ENDBRANCH  11  13
ENDBRANCH   1  11
BRANCH   1  22
ATOM     22  C   UNL     1      34.328 -22.014 -16.158  0.00  0.00    +0.123 C 
BRANCH  22  23
ATOM     23  C   UNL     1      35.605 -22.664 -15.706  0.00  0.00    -0.001 C 
ATOM     24  C   UNL     1      35.562 -23.841 -14.959  0.00  0.00    +0.034 C 
ATOM     25  C   UNL     1      36.833 -22.091 -16.035  0.00  0.00    -0.003 C 
ATOM     26  C   UNL     1      36.748 -24.444 -14.539  0.00  0.00    +0.139 C 
ATOM     27  C   UNL     1      38.019 -22.694 -15.615  0.00  0.00    +0.003 C 
ATOM     28  C   UNL     1      37.976 -23.871 -14.867  0.00  0.00    +0.037 C 
BRANCH  26  29
ATOM     29  O   UNL     1      36.707 -25.592 -13.808  0.00  0.00    -0.464 OA
BRANCH  29  30
ATOM     30  C   UNL     1      37.435 -25.604 -12.580  0.00  0.00    +0.314 C 
BRANCH  30  32
ATOM     31  O   UNL     1      37.212 -23.972 -10.794  0.00  0.00    -0.246 OA
ATOM     32  C   UNL     1      36.706 -24.788 -11.549  0.00  0.00    +0.359 C 
BRANCH  32  33
ATOM     33  O   UNL     1      35.382 -25.082 -11.571  0.00  0.00    -0.478 OA
ATOM     34  H   UNL     1      34.815 -24.653 -12.181  0.00  0.00    +0.295 HD
ENDBRANCH  32  33
ENDBRANCH  30  32
ENDBRANCH  29  30
ENDBRANCH  26  29
ENDBRANCH  22  23
ENDBRANCH   1  22
TORSDOF 11
ENDMDL
MODEL 4
REMARK VINA RESULT:     -10.6      2.493      6.872
REMARK  Name = 9890801
REMARK  11 active torsions:
REMARK  status: ('A' for Active; 'I' for Inactive)
REMARK    1  A    between atoms: N_1  and  S_2
REMARK    2  A    between atoms: N_1  and  C_11
REMARK    3  A    between atoms: N_1  and  C_22
REMARK    4  A    between atoms: S_2  and  C_6
REMARK    5  A    between atoms: C_11  and  C_13
REMARK    6  A    between atoms: C_12  and  C_18
REMARK    7  A    between atoms: C_22  and  C_23
REMARK    8  A    between atoms: C_26  and  O_29
REMARK    9  A    between atoms: O_29  and  C_30
REMARK   10  A    between atoms: C_30  and  C_32
REMARK   11  A    between atoms: C_32  and  O_33
REMARK                            x       y       z     vdW  Elec       q    Type
REMARK                         _______ _______ _______ _____ _____    ______ ____
ROOT
ATOM      1  N   UNL     1      33.109 -23.101 -16.227  0.00  0.00    -0.147 NA
ENDROOT
BRANCH   1   2
ATOM      2  S   UNL     1      32.102 -23.010 -14.829  0.00  0.00    +0.065 S 
ATOM      3  O   UNL     1      32.209 -21.687 -14.241  0.00  0.00    -0.153 OA
ATOM      4  O   UNL     1      32.322 -24.180 -13.999  0.00  0.00    -0.153 OA
BRANCH   2   6
ATOM      5  N   UNL     1      28.674 -22.148 -16.777  0.00  0.00    -0.241 NA
ATOM      6  C   UNL     1      30.475 -23.150 -15.515  0.00  0.00    +0.141 C 
ATOM      7  C   UNL     1      29.726 -24.310 -15.352  0.00  0.00    +0.023 C 
ATOM      8  C   UNL     1      29.908 -22.106 -16.229  0.00  0.00    +0.119 C 
ATOM      9  C   UNL     1      28.451 -24.391 -15.902  0.00  0.00    +0.022 C 
ATOM     10  C   UNL     1      27.975 -23.291 -16.599  0.00  0.00    +0.099 C 
ENDBRANCH   2   6
ENDBRANCH   1   2
BRANCH   1  11
ATOM     11  C   UNL     1      32.456 -23.030 -17.557  0.00  0.00    +0.122 C 
BRANCH  11  13
ATOM     12  C   UNL     1      34.244 -20.106 -20.121  0.00  0.00    -0.023 C 
ATOM     13  C   UNL     1      33.079 -22.012 -18.450  0.00  0.00    -0.004 C 
ATOM     14  C   UNL     1      32.878 -20.048 -19.844  0.00  0.00    -0.005 C 
ATOM     15  C   UNL     1      35.027 -21.117 -19.564  0.00  0.00    -0.005 C 
ATOM     16  C   UNL     1      32.296 -21.001 -19.009  0.00  0.00    -0.003 C 
ATOM     17  C   UNL     1      34.445 -22.070 -18.728  0.00  0.00    -0.003 C 
BRANCH  12  18
ATOM     18  C   UNL     1      34.886 -19.057 -21.045  0.00  0.00    +0.019 C 
ATOM     19  C   UNL     1      34.621 -19.430 -22.519  0.00  0.00    +0.004 C 
ATOM     20  C   UNL     1      36.410 -19.012 -20.798  0.00  0.00    +0.004 C 
ATOM     21  C   UNL     1      34.347 -17.625 -20.832  0.00  0.00    +0.004 C 
ENDBRANCH  12  18
ENDBRANCH  11  13
ENDBRANCH   1  11
BRANCH   1  22
ATOM     22  C   UNL     1      34.398 -22.363 -16.199  0.00  0.00    +0.123 C 
BRANCH  22  23
ATOM     23  C   UNL     1      35.316 -22.860 -15.119  0.00  0.00    -0.001 C 
ATOM     24  C   UNL     1      36.024 -24.049 -15.297  0.00  0.00    +0.034 C 
ATOM     25  C   UNL     1      35.460 -22.133 -13.938  0.00  0.00    -0.003 C 
ATOM     26  C   UNL     1      36.875 -24.510 -14.294  0.00  0.00    +0.139 C 
ATOM     27  C   UNL     1      36.312 -22.595 -12.934  0.00  0.00    +0.003 C 
ATOM     28  C   UNL     1      37.020 -23.784 -13.112  0.00  0.00    +0.037 C 
BRANCH  26  29
ATOM     29  O   UNL     1      37.565 -25.671 -14.466  0.00  0.00    -0.464 OA
BRANCH  29  30
ATOM     30  C   UNL     1      38.831 -25.777 -13.814  0.00  0.00    +0.314 C 
BRANCH  30  32
ATOM     31  O   UNL     1      40.585 -24.143 -14.212  0.00  0.00    -0.246 OA
ATOM     32  C   UNL     1      39.878 -25.054 -14.615  0.00  0.00    +0.359 C 
BRANCH  32  33
ATOM     33  O   UNL     1      39.936 -25.560 -15.872  0.00  0.00    -0.478 OA
ATOM     34  H   UNL     1      40.506 -26.278 -16.063  0.00  0.00    +0.295 HD
ENDBRANCH  32  33
ENDBRANCH  30  32
ENDBRANCH  29  30
ENDBRANCH  26  29
ENDBRANCH  22  23
ENDBRANCH   1  22
TORSDOF 11
ENDMDL
MODEL 5
REMARK VINA RESULT:     -10.6      2.599      6.426
REMARK  Name = 9890801
REMARK  11 active torsions:
REMARK  status: ('A' for Active; 'I' for Inactive)
REMARK    1  A    between atoms: N_1  and  S_2
REMARK    2  A    between atoms: N_1  and  C_11
REMARK    3  A    between atoms: N_1  and  C_22
REMARK    4  A    between atoms: S_2  and  C_6
REMARK    5  A    between atoms: C_11  and  C_13
REMARK    6  A    between atoms: C_12  and  C_18
REMARK    7  A    between atoms: C_22  and  C_23
REMARK    8  A    between atoms: C_26  and  O_29
REMARK    9  A    between atoms: O_29  and  C_30
REMARK   10  A    between atoms: C_30  and  C_32
REMARK   11  A    between atoms: C_32  and  O_33
REMARK                            x       y       z     vdW  Elec       q    Type
REMARK                         _______ _______ _______ _____ _____    ______ ____
ROOT
ATOM      1  N   UNL     1      33.099 -22.878 -16.179  0.00  0.00    -0.147 NA
ENDROOT
BRANCH   1   2
ATOM      2  S   UNL     1      32.093 -23.213 -14.818  0.00  0.00    +0.065 S 
ATOM      3  O   UNL     1      32.142 -22.094 -13.894  0.00  0.00    -0.153 OA
ATOM      4  O   UNL     1      32.368 -24.552 -14.332  0.00  0.00    -0.153 OA
BRANCH   2   6
ATOM      5  N   UNL     1      28.750 -22.085 -16.779  0.00  0.00    -0.241 NA
ATOM      6  C   UNL     1      30.472 -23.234 -15.531  0.00  0.00    +0.141 C 
ATOM      7  C   UNL     1      29.657 -24.356 -15.424  0.00  0.00    +0.023 C 
ATOM      8  C   UNL     1      29.976 -22.134 -16.213  0.00  0.00    +0.119 C 
ATOM      9  C   UNL     1      28.388 -24.343 -15.995  0.00  0.00    +0.022 C 
ATOM     10  C   UNL     1      27.986 -23.193 -16.655  0.00  0.00    +0.099 C 
ENDBRANCH   2   6
ENDBRANCH   1   2
BRANCH   1  11
ATOM     11  C   UNL     1      32.482 -22.934 -17.527  0.00  0.00    +0.122 C 
BRANCH  11  13
ATOM     12  C   UNL     1      34.180 -20.091 -20.240  0.00  0.00    -0.023 C 
ATOM     13  C   UNL     1      33.073 -21.943 -18.472  0.00  0.00    -0.004 C 
ATOM     14  C   UNL     1      34.972 -21.110 -19.712  0.00  0.00    -0.005 C 
ATOM     15  C   UNL     1      32.834 -19.998 -19.885  0.00  0.00    -0.005 C 
ATOM     16  C   UNL     1      34.420 -22.035 -18.828  0.00  0.00    -0.003 C 
ATOM     17  C   UNL     1      32.280 -20.925 -19.001  0.00  0.00    -0.003 C 
BRANCH  12  18
ATOM     18  C   UNL     1      34.790 -19.068 -21.213  0.00  0.00    +0.019 C 
ATOM     19  C   UNL     1      36.318 -18.999 -21.004  0.00  0.00    +0.004 C 
ATOM     20  C   UNL     1      34.178 -17.675 -20.952  0.00  0.00    +0.004 C 
ATOM     21  C   UNL     1      34.547 -19.401 -22.702  0.00  0.00    +0.004 C 
ENDBRANCH  12  18
ENDBRANCH  11  13
ENDBRANCH   1  11
BRANCH   1  22
ATOM     22  C   UNL     1      34.077 -21.766 -16.060  0.00  0.00    +0.123 C 
BRANCH  22  23
ATOM     23  C   UNL     1      35.450 -22.252 -15.691  0.00  0.00    -0.001 C 
ATOM     24  C   UNL     1      35.604 -23.227 -14.705  0.00  0.00    +0.034 C 
ATOM     25  C   UNL     1      36.571 -21.728 -16.334  0.00  0.00    -0.003 C 
ATOM     26  C   UNL     1      36.878 -23.677 -14.363  0.00  0.00    +0.139 C 
ATOM     27  C   UNL     1      37.846 -22.178 -15.991  0.00  0.00    +0.003 C 
ATOM     28  C   UNL     1      38.000 -23.153 -15.006  0.00  0.00    +0.037 C 
BRANCH  26  29
ATOM     29  O   UNL     1      37.030 -24.627 -13.400  0.00  0.00    -0.464 OA
BRANCH  29  30
ATOM     30  C   UNL     1      36.297 -25.841 -13.565  0.00  0.00    +0.314 C 
BRANCH  30  32
ATOM     31  O   UNL     1      36.291 -26.906 -15.750  0.00  0.00    -0.246 OA
ATOM     32  C   UNL     1      36.871 -26.630 -14.710  0.00  0.00    +0.359 C 
BRANCH  32  33
ATOM     33  O   UNL     1      38.146 -26.999 -14.430  0.00  0.00    -0.478 OA
ATOM     34  H   UNL     1      38.818 -26.350 -14.362  0.00  0.00    +0.295 HD
ENDBRANCH  32  33
ENDBRANCH  30  32
ENDBRANCH  29  30
ENDBRANCH  26  29
ENDBRANCH  22  23
ENDBRANCH   1  22
TORSDOF 11
ENDMDL
MODEL 6
REMARK VINA RESULT:     -10.4      3.103      7.553
REMARK  Name = 9890801
REMARK  11 active torsions:
REMARK  status: ('A' for Active; 'I' for Inactive)
REMARK    1  A    between atoms: N_1  and  S_2
REMARK    2  A    between atoms: N_1  and  C_11
REMARK    3  A    between atoms: N_1  and  C_22
REMARK    4  A    between atoms: S_2  and  C_6
REMARK    5  A    between atoms: C_11  and  C_13
REMARK    6  A    between atoms: C_12  and  C_18
REMARK    7  A    between atoms: C_22  and  C_23
REMARK    8  A    between atoms: C_26  and  O_29
REMARK    9  A    between atoms: O_29  and  C_30
REMARK   10  A    between atoms: C_30  and  C_32
REMARK   11  A    between atoms: C_32  and  O_33
REMARK                            x       y       z     vdW  Elec       q    Type
REMARK                         _______ _______ _______ _____ _____    ______ ____
ROOT
ATOM      1  N   UNL     1      32.473 -22.596 -15.471  0.00  0.00    -0.147 NA
ENDROOT
BRANCH   1   2
ATOM      2  S   UNL     1      31.348 -23.511 -14.537  0.00  0.00    +0.065 S 
ATOM      3  O   UNL     1      31.178 -22.887 -13.238  0.00  0.00    -0.153 OA
ATOM      4  O   UNL     1      31.689 -24.920 -14.613  0.00  0.00    -0.153 OA
BRANCH   2   6
ATOM      5  N   UNL     1      28.283 -21.791 -16.523  0.00  0.00    -0.241 NA
ATOM      6  C   UNL     1      29.833 -23.288 -15.429  0.00  0.00    +0.141 C 
ATOM      7  C   UNL     1      29.016 -24.371 -15.735  0.00  0.00    +0.023 C 
ATOM      8  C   UNL     1      29.425 -22.030 -15.842  0.00  0.00    +0.119 C 
ATOM      9  C   UNL     1      27.833 -24.165 -16.437  0.00  0.00    +0.022 C 
ATOM     10  C   UNL     1      27.515 -22.867 -16.804  0.00  0.00    +0.099 C 
ENDBRANCH   2   6
ENDBRANCH   1   2
BRANCH   1  11
ATOM     11  C   UNL     1      33.567 -21.899 -14.750  0.00  0.00    +0.122 C 
BRANCH  11  13
ATOM     12  C   UNL     1      37.063 -24.330 -14.311  0.00  0.00    -0.023 C 
ATOM     13  C   UNL     1      34.785 -22.746 -14.597  0.00  0.00    -0.004 C 
ATOM     14  C   UNL     1      35.876 -24.695 -13.677  0.00  0.00    -0.005 C 
ATOM     15  C   UNL     1      37.112 -23.173 -15.088  0.00  0.00    -0.005 C 
ATOM     16  C   UNL     1      34.737 -23.903 -13.819  0.00  0.00    -0.003 C 
ATOM     17  C   UNL     1      35.972 -22.380 -15.232  0.00  0.00    -0.003 C 
BRANCH  12  18
ATOM     18  C   UNL     1      38.320 -25.202 -14.152  0.00  0.00    +0.019 C 
ATOM     19  C   UNL     1      38.003 -26.653 -14.572  0.00  0.00    +0.004 C 
ATOM     20  C   UNL     1      38.778 -25.188 -12.678  0.00  0.00    +0.004 C 
ATOM     21  C   UNL     1      39.519 -24.731 -15.006  0.00  0.00    +0.004 C 
ENDBRANCH  12  18
ENDBRANCH  11  13
ENDBRANCH   1  11
BRANCH   1  22
ATOM     22  C   UNL     1      32.935 -23.175 -16.759  0.00  0.00    +0.123 C 
BRANCH  22  23
ATOM     23  C   UNL     1      32.970 -22.156 -17.861  0.00  0.00    -0.001 C 
ATOM     24  C   UNL     1      34.190 -21.774 -18.420  0.00  0.00    +0.034 C 
ATOM     25  C   UNL     1      31.783 -21.590 -18.326  0.00  0.00    -0.003 C 
ATOM     26  C   UNL     1      34.223 -20.827 -19.443  0.00  0.00    +0.139 C 
ATOM     27  C   UNL     1      31.816 -20.643 -19.350  0.00  0.00    +0.003 C 
ATOM     28  C   UNL     1      33.036 -20.261 -19.908  0.00  0.00    +0.037 C 
BRANCH  26  29
ATOM     29  O   UNL     1      35.413 -20.452 -19.987  0.00  0.00    -0.464 OA
BRANCH  29  30
ATOM     30  C   UNL     1      35.363 -19.670 -21.181  0.00  0.00    +0.314 C 
BRANCH  30  32
ATOM     31  O   UNL     1      35.319 -17.341 -20.487  0.00  0.00    -0.246 OA
ATOM     32  C   UNL     1      35.935 -18.304 -20.918  0.00  0.00    +0.359 C 
BRANCH  32  33
ATOM     33  O   UNL     1      37.255 -18.284 -21.228  0.00  0.00    -0.478 OA
ATOM     34  H   UNL     1      37.870 -17.894 -20.639  0.00  0.00    +0.295 HD
ENDBRANCH  32  33
ENDBRANCH  30  32
ENDBRANCH  29  30
ENDBRANCH  26  29
ENDBRANCH  22  23
ENDBRANCH   1  22
TORSDOF 11
ENDMDL
MODEL 7
REMARK VINA RESULT:      -9.8     12.670     16.844
REMARK  Name = 9890801
REMARK  11 active torsions:
REMARK  status: ('A' for Active; 'I' for Inactive)
REMARK    1  A    between atoms: N_1  and  S_2
REMARK    2  A    between atoms: N_1  and  C_11
REMARK    3  A    between atoms: N_1  and  C_22
REMARK    4  A    between atoms: S_2  and  C_6
REMARK    5  A    between atoms: C_11  and  C_13
REMARK    6  A    between atoms: C_12  and  C_18
REMARK    7  A    between atoms: C_22  and  C_23
REMARK    8  A    between atoms: C_26  and  O_29
REMARK    9  A    between atoms: O_29  and  C_30
REMARK   10  A    between atoms: C_30  and  C_32
REMARK   11  A    between atoms: C_32  and  O_33
REMARK                            x       y       z     vdW  Elec       q    Type
REMARK                         _______ _______ _______ _____ _____    ______ ____
ROOT
ATOM      1  N   UNL     1      31.474  -7.857 -22.343  0.00  0.00    -0.147 NA
ENDROOT
BRANCH   1   2
ATOM      2  S   UNL     1      31.807  -6.838 -20.992  0.00  0.00    +0.065 S 
ATOM      3  O   UNL     1      33.242  -6.768 -20.781  0.00  0.00    -0.153 OA
ATOM      4  O   UNL     1      30.941  -7.203 -19.886  0.00  0.00    -0.153 OA
BRANCH   2   6
ATOM      5  N   UNL     1      29.561  -3.554 -21.672  0.00  0.00    -0.241 NA
ATOM      6  C   UNL     1      31.283  -5.247 -21.567  0.00  0.00    +0.141 C 
ATOM      7  C   UNL     1      32.123  -4.451 -22.338  0.00  0.00    +0.023 C 
ATOM      8  C   UNL     1      30.022  -4.756 -21.264  0.00  0.00    +0.119 C 
ATOM      9  C   UNL     1      31.683  -3.206 -22.776  0.00  0.00    +0.022 C 
ATOM     10  C   UNL     1      30.405  -2.808 -22.418  0.00  0.00    +0.099 C 
ENDBRANCH   2   6
ENDBRANCH   1   2
BRANCH   1  11
ATOM     11  C   UNL     1      32.604  -8.218 -23.234  0.00  0.00    +0.122 C 
BRANCH  11  13
ATOM     12  C   UNL     1      33.283  -5.307 -26.298  0.00  0.00    -0.023 C 
ATOM     13  C   UNL     1      32.841  -7.204 -24.301  0.00  0.00    -0.004 C 
ATOM     14  C   UNL     1      31.994  -5.787 -26.066  0.00  0.00    -0.005 C 
ATOM     15  C   UNL     1      34.351  -5.775 -25.533  0.00  0.00    -0.005 C 
ATOM     16  C   UNL     1      31.773  -6.735 -25.068  0.00  0.00    -0.003 C 
ATOM     17  C   UNL     1      34.130  -6.724 -24.534  0.00  0.00    -0.003 C 
BRANCH  12  18
ATOM     18  C   UNL     1      33.528  -4.262 -27.401  0.00  0.00    +0.019 C 
ATOM     19  C   UNL     1      32.429  -3.180 -27.344  0.00  0.00    +0.004 C 
ATOM     20  C   UNL     1      33.494  -4.950 -28.783  0.00  0.00    +0.004 C 
ATOM     21  C   UNL     1      34.888  -3.539 -27.285  0.00  0.00    +0.004 C 
ENDBRANCH  12  18
ENDBRANCH  11  13
ENDBRANCH   1  11
BRANCH   1  22
ATOM     22  C   UNL     1      30.541  -8.994 -22.138  0.00  0.00    +0.123 C 
BRANCH  22  23
ATOM     23  C   UNL     1      31.263 -10.277 -21.842  0.00  0.00    -0.001 C 
ATOM     24  C   UNL     1      31.972 -10.928 -22.852  0.00  0.00    +0.034 C 
ATOM     25  C   UNL     1      31.226 -10.818 -20.557  0.00  0.00    -0.003 C 
ATOM     26  C   UNL     1      32.642 -12.120 -22.577  0.00  0.00    +0.139 C 
ATOM     27  C   UNL     1      31.896 -12.010 -20.282  0.00  0.00    +0.003 C 
ATOM     28  C   UNL     1      32.604 -12.661 -21.292  0.00  0.00    +0.037 C 
BRANCH  26  29
ATOM     29  O   UNL     1      33.332 -12.757 -23.563  0.00  0.00    -0.464 OA
BRANCH  29  30
ATOM     30  C   UNL     1      33.492 -14.170 -23.434  0.00  0.00    +0.314 C 
BRANCH  30  32
ATOM     31  O   UNL     1      33.965 -15.817 -25.157  0.00  0.00    -0.246 OA
ATOM     32  C   UNL     1      33.365 -14.821 -24.784  0.00  0.00    +0.359 C 
BRANCH  32  33
ATOM     33  O   UNL     1      32.473 -14.141 -25.548  0.00  0.00    -0.478 OA
ATOM     34  H   UNL     1      31.616 -14.489 -25.691  0.00  0.00    +0.295 HD
ENDBRANCH  32  33
ENDBRANCH  30  32
ENDBRANCH  29  30
ENDBRANCH  26  29
ENDBRANCH  22  23
ENDBRANCH   1  22
TORSDOF 11
ENDMDL
MODEL 8
REMARK VINA RESULT:      -9.6      2.435      5.713
REMARK  Name = 9890801
REMARK  11 active torsions:
REMARK  status: ('A' for Active; 'I' for Inactive)
REMARK    1  A    between atoms: N_1  and  S_2
REMARK    2  A    between atoms: N_1  and  C_11
REMARK    3  A    between atoms: N_1  and  C_22
REMARK    4  A    between atoms: S_2  and  C_6
REMARK    5  A    between atoms: C_11  and  C_13
REMARK    6  A    between atoms: C_12  and  C_18
REMARK    7  A    between atoms: C_22  and  C_23
REMARK    8  A    between atoms: C_26  and  O_29
REMARK    9  A    between atoms: O_29  and  C_30
REMARK   10  A    between atoms: C_30  and  C_32
REMARK   11  A    between atoms: C_32  and  O_33
REMARK                            x       y       z     vdW  Elec       q    Type
REMARK                         _______ _______ _______ _____ _____    ______ ____
ROOT
ATOM      1  N   UNL     1      33.149 -22.875 -17.127  0.00  0.00    -0.147 NA
ENDROOT
BRANCH   1   2
ATOM      2  S   UNL     1      31.466 -22.866 -16.746  0.00  0.00    +0.065 S 
ATOM      3  O   UNL     1      30.850 -24.080 -17.250  0.00  0.00    -0.153 OA
ATOM      4  O   UNL     1      30.898 -21.578 -17.099  0.00  0.00    -0.153 OA
BRANCH   2   6
ATOM      5  N   UNL     1      31.996 -24.237 -12.987  0.00  0.00    -0.241 NA
ATOM      6  C   UNL     1      31.468 -22.973 -14.978  0.00  0.00    +0.141 C 
ATOM      7  C   UNL     1      30.970 -21.936 -14.197  0.00  0.00    +0.023 C 
ATOM      8  C   UNL     1      31.966 -24.092 -14.330  0.00  0.00    +0.119 C 
ATOM      9  C   UNL     1      30.985 -22.048 -12.811  0.00  0.00    +0.022 C 
ATOM     10  C   UNL     1      31.505 -23.209 -12.260  0.00  0.00    +0.099 C 
ENDBRANCH   2   6
ENDBRANCH   1   2
BRANCH   1  11
ATOM     11  C   UNL     1      33.539 -23.145 -18.533  0.00  0.00    +0.122 C 
BRANCH  11  13
ATOM     12  C   UNL     1      34.628 -19.588 -20.652  0.00  0.00    -0.023 C 
ATOM     13  C   UNL     1      33.919 -21.906 -19.271  0.00  0.00    -0.004 C 
ATOM     14  C   UNL     1      33.284 -19.879 -20.422  0.00  0.00    -0.005 C 
ATOM     15  C   UNL     1      35.619 -20.456 -20.192  0.00  0.00    -0.005 C 
ATOM     16  C   UNL     1      32.929 -21.038 -19.733  0.00  0.00    -0.003 C 
ATOM     17  C   UNL     1      35.264 -21.616 -19.501  0.00  0.00    -0.003 C 
BRANCH  12  18
ATOM     18  C   UNL     1      35.020 -18.312 -21.415  0.00  0.00    +0.019 C 
ATOM     19  C   UNL     1      34.442 -18.364 -22.846  0.00  0.00    +0.004 C 
ATOM     20  C   UNL     1      36.558 -18.205 -21.492  0.00  0.00    +0.004 C 
ATOM     21  C   UNL     1      34.505 -17.011 -20.761  0.00  0.00    +0.004 C 
ENDBRANCH  12  18
ENDBRANCH  11  13
ENDBRANCH   1  11
BRANCH   1  22
ATOM     22  C   UNL     1      34.005 -21.837 -16.500  0.00  0.00    +0.123 C 
BRANCH  22  23
ATOM     23  C   UNL     1      35.240 -22.419 -15.873  0.00  0.00    -0.001 C 
ATOM     24  C   UNL     1      35.127 -23.406 -14.894  0.00  0.00    +0.034 C 
ATOM     25  C   UNL     1      36.500 -21.971 -16.270  0.00  0.00    -0.003 C 
ATOM     26  C   UNL     1      36.274 -23.946 -14.313  0.00  0.00    +0.139 C 
ATOM     27  C   UNL     1      37.647 -22.511 -15.688  0.00  0.00    +0.003 C 
ATOM     28  C   UNL     1      37.534 -23.498 -14.709  0.00  0.00    +0.037 C 
BRANCH  26  29
ATOM     29  O   UNL     1      36.165 -24.908 -13.356  0.00  0.00    -0.464 OA
BRANCH  29  30
ATOM     30  C   UNL     1      36.860 -24.685 -12.129  0.00  0.00    +0.314 C 
BRANCH  30  32
ATOM     31  O   UNL     1      36.158 -23.829  -9.966  0.00  0.00    -0.246 OA
ATOM     32  C   UNL     1      35.880 -24.327 -11.047  0.00  0.00    +0.359 C 
BRANCH  32  33
ATOM     33  O   UNL     1      34.618 -24.635 -11.438  0.00  0.00    -0.478 OA
ATOM     34  H   UNL     1      33.942 -24.745 -10.800  0.00  0.00    +0.295 HD
ENDBRANCH  32  33
ENDBRANCH  30  32
ENDBRANCH  29  30
ENDBRANCH  26  29
ENDBRANCH  22  23
ENDBRANCH   1  22
TORSDOF 11
ENDMDL
MODEL 9
REMARK VINA RESULT:      -9.6      3.396      7.043
REMARK  Name = 9890801
REMARK  11 active torsions:
REMARK  status: ('A' for Active; 'I' for Inactive)
REMARK    1  A    between atoms: N_1  and  S_2
REMARK    2  A    between atoms: N_1  and  C_11
REMARK    3  A    between atoms: N_1  and  C_22
REMARK    4  A    between atoms: S_2  and  C_6
REMARK    5  A    between atoms: C_11  and  C_13
REMARK    6  A    between atoms: C_12  and  C_18
REMARK    7  A    between atoms: C_22  and  C_23
REMARK    8  A    between atoms: C_26  and  O_29
REMARK    9  A    between atoms: O_29  and  C_30
REMARK   10  A    between atoms: C_30  and  C_32
REMARK   11  A    between atoms: C_32  and  O_33
REMARK                            x       y       z     vdW  Elec       q    Type
REMARK                         _______ _______ _______ _____ _____    ______ ____
ROOT
ATOM      1  N   UNL     1      35.198 -23.769 -14.777  0.00  0.00    -0.147 NA
ENDROOT
BRANCH   1   2
ATOM      2  S   UNL     1      35.857 -25.285 -14.283  0.00  0.00    +0.065 S 
ATOM      3  O   UNL     1      35.632 -26.272 -15.323  0.00  0.00    -0.153 OA
ATOM      4  O   UNL     1      35.439 -25.573 -12.923  0.00  0.00    -0.153 OA
BRANCH   2   6
ATOM      5  N   UNL     1      39.772 -25.211 -15.259  0.00  0.00    -0.241 NA
ATOM      6  C   UNL     1      37.597 -24.955 -14.239  0.00  0.00    +0.141 C 
ATOM      7  C   UNL     1      38.160 -24.216 -13.204  0.00  0.00    +0.023 C 
ATOM      8  C   UNL     1      38.439 -25.426 -15.234  0.00  0.00    +0.119 C 
ATOM      9  C   UNL     1      39.530 -23.973 -13.197  0.00  0.00    +0.022 C 
ATOM     10  C   UNL     1      40.285 -24.488 -14.239  0.00  0.00    +0.099 C 
ENDBRANCH   2   6
ENDBRANCH   1   2
BRANCH   1  11
ATOM     11  C   UNL     1      34.315 -23.053 -13.823  0.00  0.00    +0.122 C 
BRANCH  11  13
ATOM     12  C   UNL     1      30.159 -23.603 -14.692  0.00  0.00    -0.023 C 
ATOM     13  C   UNL     1      32.867 -23.245 -14.125  0.00  0.00    -0.004 C 
ATOM     14  C   UNL     1      30.831 -22.481 -15.177  0.00  0.00    -0.005 C 
ATOM     15  C   UNL     1      30.842 -24.546 -13.923  0.00  0.00    -0.005 C 
ATOM     16  C   UNL     1      32.184 -22.302 -14.893  0.00  0.00    -0.003 C 
ATOM     17  C   UNL     1      32.196 -24.367 -13.640  0.00  0.00    -0.003 C 
BRANCH  12  18
ATOM     18  C   UNL     1      28.666 -23.800 -15.002  0.00  0.00    +0.019 C 
ATOM     19  C   UNL     1      27.886 -22.520 -14.633  0.00  0.00    +0.004 C 
ATOM     20  C   UNL     1      28.117 -24.985 -14.178  0.00  0.00    +0.004 C 
ATOM     21  C   UNL     1      28.372 -24.102 -16.488  0.00  0.00    +0.004 C 
ENDBRANCH  12  18
ENDBRANCH  11  13
ENDBRANCH   1  11
BRANCH   1  22
ATOM     22  C   UNL     1      36.086 -22.838 -15.519  0.00  0.00    +0.123 C 
BRANCH  22  23
ATOM     23  C   UNL     1      35.447 -22.324 -16.778  0.00  0.00    -0.001 C 
ATOM     24  C   UNL     1      36.106 -21.372 -17.556  0.00  0.00    +0.034 C 
ATOM     25  C   UNL     1      34.195 -22.799 -17.168  0.00  0.00    -0.003 C 
ATOM     26  C   UNL     1      35.512 -20.895 -18.724  0.00  0.00    +0.139 C 
ATOM     27  C   UNL     1      33.601 -22.321 -18.337  0.00  0.00    +0.003 C 
ATOM     28  C   UNL     1      34.260 -21.369 -19.115  0.00  0.00    +0.037 C 
BRANCH  26  29
ATOM     29  O   UNL     1      36.153 -19.964 -19.483  0.00  0.00    -0.464 OA
BRANCH  29  30
ATOM     30  C   UNL     1      35.513 -19.563 -20.695  0.00  0.00    +0.314 C 
BRANCH  30  32
ATOM     31  O   UNL     1      36.985 -18.057 -21.908  0.00  0.00    -0.246 OA
ATOM     32  C   UNL     1      36.052 -18.231 -21.138  0.00  0.00    +0.359 C 
BRANCH  32  33
ATOM     33  O   UNL     1      35.350 -17.226 -20.558  0.00  0.00    -0.478 OA
ATOM     34  H   UNL     1      35.567 -16.334 -20.742  0.00  0.00    +0.295 HD
ENDBRANCH  32  33
ENDBRANCH  30  32
ENDBRANCH  29  30
ENDBRANCH  26  29
ENDBRANCH  22  23
ENDBRANCH   1  22
TORSDOF 11
ENDMDL
