MODEL 1
REMARK VINA RESULT:     -12.7      0.000      0.000
REMARK  Name = 5326608
REMARK  8 active torsions:
REMARK  status: ('A' for Active; 'I' for Inactive)
REMARK    1  A    between atoms: N_3  and  S_29
REMARK    2  A    between atoms: C_5  and  C_13
REMARK    3  A    between atoms: N_12  and  C_15
REMARK    4  A    between atoms: C_15  and  C_19
REMARK    5  A    between atoms: N_18  and  C_24
REMARK    6  A    between atoms: N_18  and  O_27
REMARK    7  A    between atoms: S_29  and  C_32
REMARK    8  A    between atoms: C_32  and  C_33
REMARK                            x       y       z     vdW  Elec       q    Type
REMARK                         _______ _______ _______ _____ _____    ______ ____
ROOT
ATOM      1  O   UNL     1      33.023 -15.167 -24.873  0.00  0.00    -0.273 OA
ATOM      2  N   UNL     1      33.268 -14.337 -22.736  0.00  0.00    -0.272 N 
ATOM      3  N   UNL     1      34.971 -16.423 -22.043  0.00  0.00    -0.148 NA
ATOM      4  C   UNL     1      33.793 -14.440 -21.386  0.00  0.00    +0.094 C 
ATOM      5  C   UNL     1      32.360 -13.203 -22.863  0.00  0.00    +0.152 C 
ATOM      6  C   UNL     1      32.716 -13.766 -20.543  0.00  0.00    +0.024 C 
ATOM      7  C   UNL     1      32.235 -12.634 -21.447  0.00  0.00    +0.031 C 
ATOM      8  C   UNL     1      34.074 -15.875 -20.995  0.00  0.00    +0.116 C 
ATOM      9  C   UNL     1      33.493 -15.263 -23.736  0.00  0.00    +0.244 C 
ATOM     10  C   UNL     1      34.323 -16.469 -23.373  0.00  0.00    +0.180 C 
ENDROOT
BRANCH   5  13
ATOM     11  O   UNL     1      33.210 -12.465 -24.965  0.00  0.00    -0.273 OA
ATOM     12  N   UNL     1      33.348 -11.040 -23.130  0.00  0.00    -0.303 N 
ATOM     13  C   UNL     1      33.007 -12.213 -23.781  0.00  0.00    +0.241 C 
ATOM     14  H   UNL     1      33.131 -10.954 -22.173  0.00  0.00    +0.149 HD
BRANCH  12  15
ATOM     15  C   UNL     1      34.005  -9.933 -23.787  0.00  0.00    +0.089 C 
BRANCH  15  18
ATOM     16  N   UNL     1      32.188  -6.604 -21.796  0.00  0.00    -0.279 N 
ATOM     17  N   UNL     1      32.843  -6.194 -19.667  0.00  0.00    -0.370 N 
ATOM     18  C   UNL     1      33.261  -8.621 -23.553  0.00  0.00    +0.023 C 
ATOM     19  C   UNL     1      31.983  -8.855 -22.734  0.00  0.00    +0.023 C 
ATOM     20  C   UNL     1      34.162  -7.600 -22.844  0.00  0.00    +0.023 C 
ATOM     21  C   UNL     1      31.266  -7.539 -22.437  0.00  0.00    +0.094 C 
ATOM     22  C   UNL     1      33.406  -6.306 -22.545  0.00  0.00    +0.094 C 
ATOM     23  C   UNL     1      31.889  -5.984 -20.632  0.00  0.00    +0.215 C 
ATOM     24  H   UNL     1      33.633  -6.745 -19.868  0.00  0.00    +0.159 HD
ATOM     25  H   UNL     1      32.736  -5.792 -18.774  0.00  0.00    +0.159 HD
BRANCH  23  26
ATOM     26  N   UNL     1      30.831  -5.255 -20.390  0.00  0.00    -0.101 NA
BRANCH  26  27
ATOM     27  O   UNL     1      30.971  -3.992 -20.972  0.00  0.00    -0.263 OA
ATOM     28  H   UNL     1      30.665  -3.840 -21.844  0.00  0.00    +0.247 HD
ENDBRANCH  26  27
ENDBRANCH  23  26
ENDBRANCH  15  18
ENDBRANCH  12  15
ENDBRANCH   5  13
BRANCH   3  29
ATOM     29  S   UNL     1      35.871 -17.811 -21.608  0.00  0.00    +0.049 S 
ATOM     30  O   UNL     1      35.983 -17.862 -20.166  0.00  0.00    -0.157 OA
ATOM     31  O   UNL     1      37.035 -17.900 -22.464  0.00  0.00    -0.157 OA
BRANCH  29  32
ATOM     32  C   UNL     1      34.722 -19.066 -22.112  0.00  0.00    +0.195 C 
BRANCH  32  33
ATOM     33  C   UNL     1      34.386 -19.888 -20.906  0.00  0.00    +0.003 C 
ATOM     34  C   UNL     1      33.065 -19.964 -20.461  0.00  0.00    -0.003 C 
ATOM     35  C   UNL     1      35.391 -20.576 -20.228  0.00  0.00    -0.003 C 
ATOM     36  C   UNL     1      32.752 -20.729 -19.338  0.00  0.00    -0.000 C 
ATOM     37  C   UNL     1      35.077 -21.342 -19.105  0.00  0.00    -0.000 C 
ATOM     38  C   UNL     1      33.757 -21.418 -18.659  0.00  0.00    -0.000 C 
ENDBRANCH  32  33
ENDBRANCH  29  32
ENDBRANCH   3  29
TORSDOF 8
ENDMDL
MODEL 2
REMARK VINA RESULT:     -11.6      3.200     11.456
REMARK  Name = 5326608
REMARK  8 active torsions:
REMARK  status: ('A' for Active; 'I' for Inactive)
REMARK    1  A    between atoms: N_3  and  S_29
REMARK    2  A    between atoms: C_5  and  C_13
REMARK    3  A    between atoms: N_12  and  C_15
REMARK    4  A    between atoms: C_15  and  C_19
REMARK    5  A    between atoms: N_18  and  C_24
REMARK    6  A    between atoms: N_18  and  O_27
REMARK    7  A    between atoms: S_29  and  C_32
REMARK    8  A    between atoms: C_32  and  C_33
REMARK                            x       y       z     vdW  Elec       q    Type
REMARK                         _______ _______ _______ _____ _____    ______ ____
ROOT
ATOM      1  O   UNL     1      34.388 -10.545 -23.748  0.00  0.00    -0.273 OA
ATOM      2  N   UNL     1      32.473 -10.928 -22.523  0.00  0.00    -0.272 N 
ATOM      3  N   UNL     1      31.483  -8.405 -23.144  0.00  0.00    -0.148 NA
ATOM      4  C   UNL     1      31.205 -10.480 -21.974  0.00  0.00    +0.094 C 
ATOM      5  C   UNL     1      32.822 -12.254 -22.026  0.00  0.00    +0.152 C 
ATOM      6  C   UNL     1      31.104 -11.248 -20.662  0.00  0.00    +0.024 C 
ATOM      7  C   UNL     1      31.733 -12.596 -21.007  0.00  0.00    +0.031 C 
ATOM      8  C   UNL     1      31.156  -8.975 -21.814  0.00  0.00    +0.116 C 
ATOM      9  C   UNL     1      33.305 -10.152 -23.306  0.00  0.00    +0.244 C 
ATOM     10  C   UNL     1      32.859  -8.737 -23.579  0.00  0.00    +0.180 C 
ENDROOT
BRANCH   5  13
ATOM     11  O   UNL     1      32.080 -12.968 -24.178  0.00  0.00    -0.273 OA
ATOM     12  N   UNL     1      33.574 -14.307 -22.999  0.00  0.00    -0.303 N 
ATOM     13  C   UNL     1      32.776 -13.193 -23.192  0.00  0.00    +0.241 C 
ATOM     14  H   UNL     1      34.090 -14.376 -22.163  0.00  0.00    +0.149 HD
BRANCH  12  15
ATOM     15  C   UNL     1      33.687 -15.375 -23.966  0.00  0.00    +0.089 C 
BRANCH  15  18
ATOM     16  N   UNL     1      34.717 -18.795 -21.601  0.00  0.00    -0.279 N 
ATOM     17  N   UNL     1      33.016 -19.904 -20.596  0.00  0.00    -0.370 N 
ATOM     18  C   UNL     1      34.469 -16.560 -23.403  0.00  0.00    +0.023 C 
ATOM     19  C   UNL     1      34.751 -16.368 -21.906  0.00  0.00    +0.023 C 
ATOM     20  C   UNL     1      33.708 -17.875 -23.632  0.00  0.00    +0.023 C 
ATOM     21  C   UNL     1      35.474 -17.578 -21.318  0.00  0.00    +0.094 C 
ATOM     22  C   UNL     1      34.450 -19.059 -23.013  0.00  0.00    +0.094 C 
ATOM     23  C   UNL     1      34.368 -19.668 -20.629  0.00  0.00    +0.215 C 
ATOM     24  H   UNL     1      32.422 -19.454 -21.240  0.00  0.00    +0.159 HD
ATOM     25  H   UNL     1      32.640 -20.523 -19.929  0.00  0.00    +0.159 HD
BRANCH  23  26
ATOM     26  N   UNL     1      35.177 -20.253 -19.785  0.00  0.00    -0.101 NA
BRANCH  26  27
ATOM     27  O   UNL     1      34.720 -21.540 -19.490  0.00  0.00    -0.263 OA
ATOM     28  H   UNL     1      33.859 -21.804 -19.751  0.00  0.00    +0.247 HD
ENDBRANCH  26  27
ENDBRANCH  23  26
ENDBRANCH  15  18
ENDBRANCH  12  15
ENDBRANCH   5  13
BRANCH   3  29
ATOM     29  S   UNL     1      30.993  -6.787 -23.407  0.00  0.00    +0.049 S 
ATOM     30  O   UNL     1      29.878  -6.490 -22.534  0.00  0.00    -0.157 OA
ATOM     31  O   UNL     1      30.927  -6.545 -24.832  0.00  0.00    -0.157 OA
BRANCH  29  32
ATOM     32  C   UNL     1      32.423  -5.949 -22.774  0.00  0.00    +0.195 C 
BRANCH  32  33
ATOM     33  C   UNL     1      32.879  -4.974 -23.816  0.00  0.00    +0.003 C 
ATOM     34  C   UNL     1      32.153  -3.804 -24.042  0.00  0.00    -0.003 C 
ATOM     35  C   UNL     1      34.029  -5.237 -24.560  0.00  0.00    -0.003 C 
ATOM     36  C   UNL     1      32.579  -2.897 -25.012  0.00  0.00    -0.000 C 
ATOM     37  C   UNL     1      34.453  -4.329 -25.531  0.00  0.00    -0.000 C 
ATOM     38  C   UNL     1      33.728  -3.159 -25.757  0.00  0.00    -0.000 C 
ENDBRANCH  32  33
ENDBRANCH  29  32
ENDBRANCH   3  29
TORSDOF 8
ENDMDL
MODEL 3
REMARK VINA RESULT:     -11.5      1.771      2.445
REMARK  Name = 5326608
REMARK  8 active torsions:
REMARK  status: ('A' for Active; 'I' for Inactive)
REMARK    1  A    between atoms: N_3  and  S_29
REMARK    2  A    between atoms: C_5  and  C_13
REMARK    3  A    between atoms: N_12  and  C_15
REMARK    4  A    between atoms: C_15  and  C_19
REMARK    5  A    between atoms: N_18  and  C_24
REMARK    6  A    between atoms: N_18  and  O_27
REMARK    7  A    between atoms: S_29  and  C_32
REMARK    8  A    between atoms: C_32  and  C_33
REMARK                            x       y       z     vdW  Elec       q    Type
REMARK                         _______ _______ _______ _____ _____    ______ ____
ROOT
ATOM      1  O   UNL     1      34.551 -13.394 -21.485  0.00  0.00    -0.273 OA
ATOM      2  N   UNL     1      33.531 -13.948 -23.476  0.00  0.00    -0.272 N 
ATOM      3  N   UNL     1      33.826 -16.664 -22.956  0.00  0.00    -0.148 NA
ATOM      4  C   UNL     1      33.095 -14.935 -24.449  0.00  0.00    +0.094 C 
ATOM      5  C   UNL     1      33.330 -12.593 -23.975  0.00  0.00    +0.152 C 
ATOM      6  C   UNL     1      33.230 -14.197 -25.776  0.00  0.00    +0.024 C 
ATOM      7  C   UNL     1      32.834 -12.768 -25.413  0.00  0.00    +0.031 C 
ATOM      8  C   UNL     1      33.908 -16.210 -24.367  0.00  0.00    +0.116 C 
ATOM      9  C   UNL     1      34.172 -14.248 -22.290  0.00  0.00    +0.244 C 
ATOM     10  C   UNL     1      34.451 -15.706 -22.017  0.00  0.00    +0.180 C 
ENDROOT
BRANCH   5  13
ATOM     11  O   UNL     1      31.436 -12.621 -22.525  0.00  0.00    -0.273 OA
ATOM     12  N   UNL     1      32.371 -10.573 -23.120  0.00  0.00    -0.303 N 
ATOM     13  C   UNL     1      32.278 -11.954 -23.122  0.00  0.00    +0.241 C 
ATOM     14  H   UNL     1      33.093 -10.151 -23.639  0.00  0.00    +0.149 HD
BRANCH  12  15
ATOM     15  C   UNL     1      31.459  -9.721 -22.392  0.00  0.00    +0.089 C 
BRANCH  15  18
ATOM     16  N   UNL     1      31.063  -5.456 -22.385  0.00  0.00    -0.279 N 
ATOM     17  N   UNL     1      30.219  -4.502 -20.511  0.00  0.00    -0.370 N 
ATOM     18  C   UNL     1      31.652  -8.252 -22.760  0.00  0.00    +0.023 C 
ATOM     19  C   UNL     1      30.332  -7.629 -23.238  0.00  0.00    +0.023 C 
ATOM     20  C   UNL     1      32.208  -7.458 -21.568  0.00  0.00    +0.023 C 
ATOM     21  C   UNL     1      30.499  -6.142 -23.545  0.00  0.00    +0.094 C 
ATOM     22  C   UNL     1      32.341  -5.973 -21.905  0.00  0.00    +0.094 C 
ATOM     23  C   UNL     1      30.486  -4.355 -21.850  0.00  0.00    +0.215 C 
ATOM     24  H   UNL     1      30.448  -5.342 -20.053  0.00  0.00    +0.159 HD
ATOM     25  H   UNL     1      29.798  -3.766 -20.010  0.00  0.00    +0.159 HD
BRANCH  23  26
ATOM     26  N   UNL     1      30.192  -3.249 -22.482  0.00  0.00    -0.101 NA
BRANCH  26  27
ATOM     27  O   UNL     1      29.844  -2.249 -21.569  0.00  0.00    -0.263 OA
ATOM     28  H   UNL     1      30.281  -2.195 -20.743  0.00  0.00    +0.247 HD
ENDBRANCH  26  27
ENDBRANCH  23  26
ENDBRANCH  15  18
ENDBRANCH  12  15
ENDBRANCH   5  13
BRANCH   3  29
ATOM     29  S   UNL     1      34.181 -18.314 -22.678  0.00  0.00    +0.049 S 
ATOM     30  O   UNL     1      35.363 -18.670 -23.434  0.00  0.00    -0.157 OA
ATOM     31  O   UNL     1      32.957 -19.078 -22.777  0.00  0.00    -0.157 OA
BRANCH  29  32
ATOM     32  C   UNL     1      34.634 -18.223 -20.965  0.00  0.00    +0.195 C 
BRANCH  32  33
ATOM     33  C   UNL     1      34.316 -19.546 -20.338  0.00  0.00    +0.003 C 
ATOM     34  C   UNL     1      32.986 -19.929 -20.156  0.00  0.00    -0.003 C 
ATOM     35  C   UNL     1      35.347 -20.394 -19.937  0.00  0.00    -0.003 C 
ATOM     36  C   UNL     1      32.690 -21.160 -19.572  0.00  0.00    -0.000 C 
ATOM     37  C   UNL     1      35.050 -21.626 -19.353  0.00  0.00    -0.000 C 
ATOM     38  C   UNL     1      33.721 -22.009 -19.170  0.00  0.00    -0.000 C 
ENDBRANCH  32  33
ENDBRANCH  29  32
ENDBRANCH   3  29
TORSDOF 8
ENDMDL
MODEL 4
REMARK VINA RESULT:     -11.3      9.131     14.142
REMARK  Name = 5326608
REMARK  8 active torsions:
REMARK  status: ('A' for Active; 'I' for Inactive)
REMARK    1  A    between atoms: N_3  and  S_29
REMARK    2  A    between atoms: C_5  and  C_13
REMARK    3  A    between atoms: N_12  and  C_15
REMARK    4  A    between atoms: C_15  and  C_19
REMARK    5  A    between atoms: N_18  and  C_24
REMARK    6  A    between atoms: N_18  and  O_27
REMARK    7  A    between atoms: S_29  and  C_32
REMARK    8  A    between atoms: C_32  and  C_33
REMARK                            x       y       z     vdW  Elec       q    Type
REMARK                         _______ _______ _______ _____ _____    ______ ____
ROOT
ATOM      1  O   UNL     1      35.197 -21.960 -14.450  0.00  0.00    -0.273 OA
ATOM      2  N   UNL     1      33.071 -22.561 -15.109  0.00  0.00    -0.272 N 
ATOM      3  N   UNL     1      33.805 -22.488 -17.791  0.00  0.00    -0.148 NA
ATOM      4  C   UNL     1      32.089 -22.821 -16.148  0.00  0.00    +0.094 C 
ATOM      5  C   UNL     1      32.460 -22.599 -13.786  0.00  0.00    +0.152 C 
ATOM      6  C   UNL     1      30.779 -22.382 -15.505  0.00  0.00    +0.024 C 
ATOM      7  C   UNL     1      30.964 -22.790 -14.045  0.00  0.00    +0.031 C 
ATOM      8  C   UNL     1      32.419 -22.094 -17.435  0.00  0.00    +0.116 C 
ATOM      9  C   UNL     1      34.382 -22.195 -15.346  0.00  0.00    +0.244 C 
ATOM     10  C   UNL     1      34.796 -22.037 -16.788  0.00  0.00    +0.180 C 
ENDROOT
BRANCH   5  13
ATOM     11  O   UNL     1      32.697 -24.931 -13.341  0.00  0.00    -0.273 OA
ATOM     12  N   UNL     1      33.928 -23.411 -12.079  0.00  0.00    -0.303 N 
ATOM     13  C   UNL     1      33.031 -23.781 -13.065  0.00  0.00    +0.241 C 
ATOM     14  H   UNL     1      34.117 -22.453 -11.953  0.00  0.00    +0.149 HD
BRANCH  12  15
ATOM     15  C   UNL     1      34.602 -24.363 -11.225  0.00  0.00    +0.089 C 
BRANCH  15  18
ATOM     16  N   UNL     1      38.373 -24.291 -13.255  0.00  0.00    -0.279 N 
ATOM     17  N   UNL     1      38.392 -23.471 -15.367  0.00  0.00    -0.370 N 
ATOM     18  C   UNL     1      36.108 -24.371 -11.475  0.00  0.00    +0.023 C 
ATOM     19  C   UNL     1      36.515 -25.583 -12.326  0.00  0.00    +0.023 C 
ATOM     20  C   UNL     1      36.556 -23.072 -12.161  0.00  0.00    +0.023 C 
ATOM     21  C   UNL     1      38.010 -25.565 -12.639  0.00  0.00    +0.094 C 
ATOM     22  C   UNL     1      38.051 -23.098 -12.476  0.00  0.00    +0.094 C 
ATOM     23  C   UNL     1      39.048 -24.225 -14.425  0.00  0.00    +0.215 C 
ATOM     24  H   UNL     1      37.528 -23.053 -15.147  0.00  0.00    +0.159 HD
ATOM     25  H   UNL     1      38.786 -23.349 -16.261  0.00  0.00    +0.159 HD
BRANCH  23  26
ATOM     26  N   UNL     1      40.196 -24.790 -14.692  0.00  0.00    -0.101 NA
BRANCH  26  27
ATOM     27  O   UNL     1      40.071 -25.644 -15.791  0.00  0.00    -0.263 OA
ATOM     28  H   UNL     1      39.465 -26.358 -15.764  0.00  0.00    +0.247 HD
ENDBRANCH  26  27
ENDBRANCH  23  26
ENDBRANCH  15  18
ENDBRANCH  12  15
ENDBRANCH   5  13
BRANCH   3  29
ATOM     29  S   UNL     1      34.251 -22.264 -19.427  0.00  0.00    +0.049 S 
ATOM     30  O   UNL     1      33.666 -23.323 -20.220  0.00  0.00    -0.157 OA
ATOM     31  O   UNL     1      35.664 -21.961 -19.488  0.00  0.00    -0.157 OA
BRANCH  29  32
ATOM     32  C   UNL     1      33.354 -20.770 -19.764  0.00  0.00    +0.195 C 
BRANCH  32  33
ATOM     33  C   UNL     1      34.242 -19.880 -20.581  0.00  0.00    +0.003 C 
ATOM     34  C   UNL     1      35.525 -19.570 -20.127  0.00  0.00    -0.003 C 
ATOM     35  C   UNL     1      33.785 -19.361 -21.792  0.00  0.00    -0.003 C 
ATOM     36  C   UNL     1      36.350 -18.741 -20.887  0.00  0.00    -0.000 C 
ATOM     37  C   UNL     1      34.611 -18.532 -22.550  0.00  0.00    -0.000 C 
ATOM     38  C   UNL     1      35.894 -18.222 -22.098  0.00  0.00    -0.000 C 
ENDBRANCH  32  33
ENDBRANCH  29  32
ENDBRANCH   3  29
TORSDOF 8
ENDMDL
MODEL 5
REMARK VINA RESULT:     -11.3      2.081      3.052
REMARK  Name = 5326608
REMARK  8 active torsions:
REMARK  status: ('A' for Active; 'I' for Inactive)
REMARK    1  A    between atoms: N_3  and  S_29
REMARK    2  A    between atoms: C_5  and  C_13
REMARK    3  A    between atoms: N_12  and  C_15
REMARK    4  A    between atoms: C_15  and  C_19
REMARK    5  A    between atoms: N_18  and  C_24
REMARK    6  A    between atoms: N_18  and  O_27
REMARK    7  A    between atoms: S_29  and  C_32
REMARK    8  A    between atoms: C_32  and  C_33
REMARK                            x       y       z     vdW  Elec       q    Type
REMARK                         _______ _______ _______ _____ _____    ______ ____
ROOT
ATOM      1  O   UNL     1      34.356 -13.391 -21.140  0.00  0.00    -0.273 OA
ATOM      2  N   UNL     1      33.481 -13.901 -23.210  0.00  0.00    -0.272 N 
ATOM      3  N   UNL     1      33.947 -16.615 -22.819  0.00  0.00    -0.148 NA
ATOM      4  C   UNL     1      33.168 -14.860 -24.256  0.00  0.00    +0.094 C 
ATOM      5  C   UNL     1      33.207 -12.537 -23.647  0.00  0.00    +0.152 C 
ATOM      6  C   UNL     1      33.315 -14.040 -25.533  0.00  0.00    +0.024 C 
ATOM      7  C   UNL     1      32.798 -12.665 -25.116  0.00  0.00    +0.031 C 
ATOM      8  C   UNL     1      34.067 -16.077 -24.197  0.00  0.00    +0.116 C 
ATOM      9  C   UNL     1      34.082 -14.222 -22.009  0.00  0.00    +0.244 C 
ATOM     10  C   UNL     1      34.453 -15.670 -21.798  0.00  0.00    +0.180 C 
ENDROOT
BRANCH   5  13
ATOM     11  O   UNL     1      31.305 -12.782 -22.228  0.00  0.00    -0.273 OA
ATOM     12  N   UNL     1      31.993 -10.642 -22.833  0.00  0.00    -0.303 N 
ATOM     13  C   UNL     1      32.069 -12.024 -22.819  0.00  0.00    +0.241 C 
ATOM     14  H   UNL     1      32.667 -10.140 -23.345  0.00  0.00    +0.149 HD
BRANCH  12  15
ATOM     15  C   UNL     1      30.971  -9.900 -22.131  0.00  0.00    +0.089 C 
BRANCH  15  18
ATOM     16  N   UNL     1      31.996  -5.989 -23.546  0.00  0.00    -0.279 N 
ATOM     17  N   UNL     1      31.831  -5.623 -25.775  0.00  0.00    -0.370 N 
ATOM     18  C   UNL     1      31.254  -8.400 -22.152  0.00  0.00    +0.023 C 
ATOM     19  C   UNL     1      32.703  -8.122 -22.578  0.00  0.00    +0.023 C 
ATOM     20  C   UNL     1      30.280  -7.673 -23.092  0.00  0.00    +0.023 C 
ATOM     21  C   UNL     1      32.977  -6.622 -22.667  0.00  0.00    +0.094 C 
ATOM     22  C   UNL     1      30.597  -6.180 -23.172  0.00  0.00    +0.094 C 
ATOM     23  C   UNL     1      32.361  -5.200 -24.581  0.00  0.00    +0.215 C 
ATOM     24  H   UNL     1      31.255  -6.421 -25.802  0.00  0.00    +0.159 HD
ATOM     25  H   UNL     1      32.026  -5.128 -26.604  0.00  0.00    +0.159 HD
BRANCH  23  26
ATOM     26  N   UNL     1      33.129  -4.144 -24.519  0.00  0.00    -0.101 NA
BRANCH  26  27
ATOM     27  O   UNL     1      34.443  -4.480 -24.854  0.00  0.00    -0.263 OA
ATOM     28  H   UNL     1      34.951  -5.019 -24.280  0.00  0.00    +0.247 HD
ENDBRANCH  26  27
ENDBRANCH  23  26
ENDBRANCH  15  18
ENDBRANCH  12  15
ENDBRANCH   5  13
BRANCH   3  29
ATOM     29  S   UNL     1      34.408 -18.249 -22.610  0.00  0.00    +0.049 S 
ATOM     30  O   UNL     1      35.652 -18.476 -23.313  0.00  0.00    -0.157 OA
ATOM     31  O   UNL     1      33.251 -19.091 -22.821  0.00  0.00    -0.157 OA
BRANCH  29  32
ATOM     32  C   UNL     1      34.759 -18.225 -20.871  0.00  0.00    +0.195 C 
BRANCH  32  33
ATOM     33  C   UNL     1      34.354 -19.552 -20.305  0.00  0.00    +0.003 C 
ATOM     34  C   UNL     1      35.330 -20.478 -19.933  0.00  0.00    -0.003 C 
ATOM     35  C   UNL     1      33.003 -19.862 -20.152  0.00  0.00    -0.003 C 
ATOM     36  C   UNL     1      34.952 -21.713 -19.406  0.00  0.00    -0.000 C 
ATOM     37  C   UNL     1      32.627 -21.098 -19.625  0.00  0.00    -0.000 C 
ATOM     38  C   UNL     1      33.601 -22.024 -19.252  0.00  0.00    -0.000 C 
ENDBRANCH  32  33
ENDBRANCH  29  32
ENDBRANCH   3  29
TORSDOF 8
ENDMDL
MODEL 6
REMARK VINA RESULT:     -10.6      6.803     12.263
REMARK  Name = 5326608
REMARK  8 active torsions:
REMARK  status: ('A' for Active; 'I' for Inactive)
REMARK    1  A    between atoms: N_3  and  S_29
REMARK    2  A    between atoms: C_5  and  C_13
REMARK    3  A    between atoms: N_12  and  C_15
REMARK    4  A    between atoms: C_15  and  C_19
REMARK    5  A    between atoms: N_18  and  C_24
REMARK    6  A    between atoms: N_18  and  O_27
REMARK    7  A    between atoms: S_29  and  C_32
REMARK    8  A    between atoms: C_32  and  C_33
REMARK                            x       y       z     vdW  Elec       q    Type
REMARK                         _______ _______ _______ _____ _____    ______ ____
ROOT
ATOM      1  O   UNL     1      33.189 -23.396 -17.956  0.00  0.00    -0.273 OA
ATOM      2  N   UNL     1      34.986 -22.077 -17.367  0.00  0.00    -0.272 N 
ATOM      3  N   UNL     1      34.561 -20.399 -19.544  0.00  0.00    -0.148 NA
ATOM      4  C   UNL     1      35.884 -20.965 -17.625  0.00  0.00    +0.094 C 
ATOM      5  C   UNL     1      35.424 -22.851 -16.212  0.00  0.00    +0.152 C 
ATOM      6  C   UNL     1      37.204 -21.440 -17.029  0.00  0.00    +0.024 C 
ATOM      7  C   UNL     1      36.759 -22.226 -15.798  0.00  0.00    +0.031 C 
ATOM      8  C   UNL     1      35.958 -20.626 -19.099  0.00  0.00    +0.116 C 
ATOM      9  C   UNL     1      33.930 -22.436 -18.182  0.00  0.00    +0.244 C 
ATOM     10  C   UNL     1      33.728 -21.618 -19.434  0.00  0.00    +0.180 C 
ENDROOT
BRANCH   5  13
ATOM     11  O   UNL     1      34.371 -21.672 -14.427  0.00  0.00    -0.273 OA
ATOM     12  N   UNL     1      33.535 -23.752 -15.052  0.00  0.00    -0.303 N 
ATOM     13  C   UNL     1      34.396 -22.672 -15.138  0.00  0.00    +0.241 C 
ATOM     14  H   UNL     1      33.655 -24.499 -15.681  0.00  0.00    +0.149 HD
BRANCH  12  15
ATOM     15  C   UNL     1      32.467 -23.836 -14.082  0.00  0.00    +0.089 C 
BRANCH  15  18
ATOM     16  N   UNL     1      28.773 -22.753 -15.963  0.00  0.00    -0.279 N 
ATOM     17  N   UNL     1      27.427 -24.444 -16.640  0.00  0.00    -0.370 N 
ATOM     18  C   UNL     1      31.252 -23.019 -14.516  0.00  0.00    +0.023 C 
ATOM     19  C   UNL     1      31.217 -22.859 -16.043  0.00  0.00    +0.023 C 
ATOM     20  C   UNL     1      29.951 -23.671 -14.024  0.00  0.00    +0.023 C 
ATOM     21  C   UNL     1      29.969 -22.102 -16.493  0.00  0.00    +0.094 C 
ATOM     22  C   UNL     1      28.725 -22.898 -14.510  0.00  0.00    +0.094 C 
ATOM     23  C   UNL     1      27.739 -23.111 -16.756  0.00  0.00    +0.215 C 
ATOM     24  H   UNL     1      27.941 -25.018 -16.028  0.00  0.00    +0.159 HD
ATOM     25  H   UNL     1      26.689 -24.824 -17.169  0.00  0.00    +0.159 HD
BRANCH  23  26
ATOM     26  N   UNL     1      27.071 -22.328 -17.562  0.00  0.00    -0.101 NA
BRANCH  26  27
ATOM     27  O   UNL     1      26.629 -21.193 -16.877  0.00  0.00    -0.263 OA
ATOM     28  H   UNL     1      26.978 -20.350 -17.092  0.00  0.00    +0.247 HD
ENDBRANCH  26  27
ENDBRANCH  23  26
ENDBRANCH  15  18
ENDBRANCH  12  15
ENDBRANCH   5  13
BRANCH   3  29
ATOM     29  S   UNL     1      34.370 -19.498 -20.985  0.00  0.00    +0.049 S 
ATOM     30  O   UNL     1      32.995 -19.058 -21.081  0.00  0.00    -0.157 OA
ATOM     31  O   UNL     1      35.019 -20.206 -22.067  0.00  0.00    -0.157 OA
BRANCH  29  32
ATOM     32  C   UNL     1      35.368 -18.089 -20.574  0.00  0.00    +0.195 C 
BRANCH  32  33
ATOM     33  C   UNL     1      34.858 -16.923 -21.365  0.00  0.00    +0.003 C 
ATOM     34  C   UNL     1      34.914 -16.948 -22.759  0.00  0.00    -0.003 C 
ATOM     35  C   UNL     1      34.328 -15.813 -20.708  0.00  0.00    -0.003 C 
ATOM     36  C   UNL     1      34.440 -15.862 -23.495  0.00  0.00    -0.000 C 
ATOM     37  C   UNL     1      33.854 -14.728 -21.445  0.00  0.00    -0.000 C 
ATOM     38  C   UNL     1      33.910 -14.752 -22.838  0.00  0.00    -0.000 C 
ENDBRANCH  32  33
ENDBRANCH  29  32
ENDBRANCH   3  29
TORSDOF 8
ENDMDL
MODEL 7
REMARK VINA RESULT:     -10.6      8.350     12.219
REMARK  Name = 5326608
REMARK  8 active torsions:
REMARK  status: ('A' for Active; 'I' for Inactive)
REMARK    1  A    between atoms: N_3  and  S_29
REMARK    2  A    between atoms: C_5  and  C_13
REMARK    3  A    between atoms: N_12  and  C_15
REMARK    4  A    between atoms: C_15  and  C_19
REMARK    5  A    between atoms: N_18  and  C_24
REMARK    6  A    between atoms: N_18  and  O_27
REMARK    7  A    between atoms: S_29  and  C_32
REMARK    8  A    between atoms: C_32  and  C_33
REMARK                            x       y       z     vdW  Elec       q    Type
REMARK                         _______ _______ _______ _____ _____    ______ ____
ROOT
ATOM      1  O   UNL     1      34.552 -23.141 -16.445  0.00  0.00    -0.273 OA
ATOM      2  N   UNL     1      33.059 -23.550 -14.738  0.00  0.00    -0.272 N 
ATOM      3  N   UNL     1      35.025 -23.121 -12.818  0.00  0.00    -0.148 NA
ATOM      4  C   UNL     1      32.757 -23.712 -13.326  0.00  0.00    +0.094 C 
ATOM      5  C   UNL     1      31.902 -23.874 -15.564  0.00  0.00    +0.152 C 
ATOM      6  C   UNL     1      31.633 -24.741 -13.328  0.00  0.00    +0.024 C 
ATOM      7  C   UNL     1      30.842 -24.380 -14.583  0.00  0.00    +0.031 C 
ATOM      8  C   UNL     1      33.975 -24.129 -12.529  0.00  0.00    +0.116 C 
ATOM      9  C   UNL     1      34.311 -23.256 -15.241  0.00  0.00    +0.244 C 
ATOM     10  C   UNL     1      35.433 -23.122 -14.241  0.00  0.00    +0.180 C 
ENDROOT
BRANCH   5  13
ATOM     11  O   UNL     1      30.630 -21.861 -15.702  0.00  0.00    -0.273 OA
ATOM     12  N   UNL     1      32.060 -22.414 -17.454  0.00  0.00    -0.303 N 
ATOM     13  C   UNL     1      31.456 -22.606 -16.224  0.00  0.00    +0.241 C 
ATOM     14  H   UNL     1      32.710 -23.084 -17.767  0.00  0.00    +0.149 HD
BRANCH  12  15
ATOM     15  C   UNL     1      31.783 -21.277 -18.302  0.00  0.00    +0.089 C 
BRANCH  15  18
ATOM     16  N   UNL     1      34.980 -19.898 -20.797  0.00  0.00    -0.279 N 
ATOM     17  N   UNL     1      36.509 -18.522 -19.848  0.00  0.00    -0.370 N 
ATOM     18  C   UNL     1      32.777 -21.185 -19.457  0.00  0.00    +0.023 C 
ATOM     19  C   UNL     1      32.601 -19.868 -20.227  0.00  0.00    +0.023 C 
ATOM     20  C   UNL     1      34.221 -21.308 -18.948  0.00  0.00    +0.023 C 
ATOM     21  C   UNL     1      33.635 -19.735 -21.344  0.00  0.00    +0.094 C 
ATOM     22  C   UNL     1      35.226 -21.150 -20.088  0.00  0.00    +0.094 C 
ATOM     23  C   UNL     1      35.959 -18.991 -21.016  0.00  0.00    +0.215 C 
ATOM     24  H   UNL     1      36.179 -18.853 -18.981  0.00  0.00    +0.159 HD
ATOM     25  H   UNL     1      37.233 -17.855 -19.878  0.00  0.00    +0.159 HD
BRANCH  23  26
ATOM     26  N   UNL     1      36.379 -18.567 -22.179  0.00  0.00    -0.101 NA
BRANCH  26  27
ATOM     27  O   UNL     1      37.630 -17.958 -22.049  0.00  0.00    -0.263 OA
ATOM     28  H   UNL     1      38.217 -18.230 -21.371  0.00  0.00    +0.247 HD
ENDBRANCH  26  27
ENDBRANCH  23  26
ENDBRANCH  15  18
ENDBRANCH  12  15
ENDBRANCH   5  13
BRANCH   3  29
ATOM     29  S   UNL     1      36.299 -23.020 -11.681  0.00  0.00    +0.049 S 
ATOM     30  O   UNL     1      35.755 -22.605 -10.406  0.00  0.00    -0.157 OA
ATOM     31  O   UNL     1      37.415 -22.330 -12.292  0.00  0.00    -0.157 OA
BRANCH  29  32
ATOM     32  C   UNL     1      36.715 -24.741 -11.565  0.00  0.00    +0.195 C 
BRANCH  32  33
ATOM     33  C   UNL     1      37.640 -25.064 -12.699  0.00  0.00    +0.003 C 
ATOM     34  C   UNL     1      38.900 -24.467 -12.763  0.00  0.00    -0.003 C 
ATOM     35  C   UNL     1      37.241 -25.961 -13.690  0.00  0.00    -0.003 C 
ATOM     36  C   UNL     1      39.760 -24.769 -13.818  0.00  0.00    -0.000 C 
ATOM     37  C   UNL     1      38.103 -26.261 -14.745  0.00  0.00    -0.000 C 
ATOM     38  C   UNL     1      39.363 -25.665 -14.809  0.00  0.00    -0.000 C 
ENDBRANCH  32  33
ENDBRANCH  29  32
ENDBRANCH   3  29
TORSDOF 8
ENDMDL
MODEL 8
REMARK VINA RESULT:     -10.5      4.122      7.171
REMARK  Name = 5326608
REMARK  8 active torsions:
REMARK  status: ('A' for Active; 'I' for Inactive)
REMARK    1  A    between atoms: N_3  and  S_29
REMARK    2  A    between atoms: C_5  and  C_13
REMARK    3  A    between atoms: N_12  and  C_15
REMARK    4  A    between atoms: C_15  and  C_19
REMARK    5  A    between atoms: N_18  and  C_24
REMARK    6  A    between atoms: N_18  and  O_27
REMARK    7  A    between atoms: S_29  and  C_32
REMARK    8  A    between atoms: C_32  and  C_33
REMARK                            x       y       z     vdW  Elec       q    Type
REMARK                         _______ _______ _______ _____ _____    ______ ____
ROOT
ATOM      1  O   UNL     1      36.698 -20.862 -19.951  0.00  0.00    -0.273 OA
ATOM      2  N   UNL     1      34.438 -20.450 -19.765  0.00  0.00    -0.272 N 
ATOM      3  N   UNL     1      34.336 -21.720 -17.293  0.00  0.00    -0.148 NA
ATOM      4  C   UNL     1      33.175 -20.590 -19.061  0.00  0.00    +0.094 C 
ATOM      5  C   UNL     1      34.251 -19.803 -21.058  0.00  0.00    +0.152 C 
ATOM      6  C   UNL     1      32.150 -20.614 -20.190  0.00  0.00    +0.024 C 
ATOM      7  C   UNL     1      32.737 -19.634 -21.203  0.00  0.00    +0.031 C 
ATOM      8  C   UNL     1      33.150 -21.821 -18.179  0.00  0.00    +0.116 C 
ATOM      9  C   UNL     1      35.638 -20.976 -19.330  0.00  0.00    +0.244 C 
ATOM     10  C   UNL     1      35.610 -21.768 -18.045  0.00  0.00    +0.180 C 
ENDROOT
BRANCH   5  13
ATOM     11  O   UNL     1      35.810 -18.232 -20.168  0.00  0.00    -0.273 OA
ATOM     12  N   UNL     1      34.441 -17.584 -21.935  0.00  0.00    -0.303 N 
ATOM     13  C   UNL     1      34.932 -18.471 -20.993  0.00  0.00    +0.241 C 
ATOM     14  H   UNL     1      33.734 -17.893 -22.547  0.00  0.00    +0.149 HD
BRANCH  12  15
ATOM     15  C   UNL     1      34.916 -16.226 -22.065  0.00  0.00    +0.089 C 
BRANCH  15  18
ATOM     16  N   UNL     1      32.758 -12.578 -22.686  0.00  0.00    -0.279 N 
ATOM     17  N   UNL     1      33.907 -10.839 -23.574  0.00  0.00    -0.370 N 
ATOM     18  C   UNL     1      33.762 -15.245 -22.257  0.00  0.00    +0.023 C 
ATOM     19  C   UNL     1      33.744 -14.195 -21.137  0.00  0.00    +0.023 C 
ATOM     20  C   UNL     1      33.853 -14.554 -23.626  0.00  0.00    +0.023 C 
ATOM     21  C   UNL     1      32.634 -13.169 -21.356  0.00  0.00    +0.094 C 
ATOM     22  C   UNL     1      32.739 -13.521 -23.801  0.00  0.00    +0.094 C 
ATOM     23  C   UNL     1      32.793 -11.240 -22.878  0.00  0.00    +0.215 C 
ATOM     24  H   UNL     1      34.567 -11.505 -23.871  0.00  0.00    +0.159 HD
ATOM     25  H   UNL     1      34.044  -9.885 -23.776  0.00  0.00    +0.159 HD
BRANCH  23  26
ATOM     26  N   UNL     1      31.901 -10.374 -22.472  0.00  0.00    -0.101 NA
BRANCH  26  27
ATOM     27  O   UNL     1      31.950  -9.223 -23.263  0.00  0.00    -0.263 OA
ATOM     28  H   UNL     1      32.081  -9.294 -24.188  0.00  0.00    +0.247 HD
ENDBRANCH  26  27
ENDBRANCH  23  26
ENDBRANCH  15  18
ENDBRANCH  12  15
ENDBRANCH   5  13
BRANCH   3  29
ATOM     29  S   UNL     1      34.284 -22.657 -15.863  0.00  0.00    +0.049 S 
ATOM     30  O   UNL     1      34.455 -24.051 -16.211  0.00  0.00    -0.157 OA
ATOM     31  O   UNL     1      33.174 -22.208 -15.050  0.00  0.00    -0.157 OA
BRANCH  29  32
ATOM     32  C   UNL     1      35.785 -22.096 -15.100  0.00  0.00    +0.195 C 
BRANCH  32  33
ATOM     33  C   UNL     1      36.255 -23.173 -14.170  0.00  0.00    +0.003 C 
ATOM     34  C   UNL     1      35.567 -23.416 -12.981  0.00  0.00    -0.003 C 
ATOM     35  C   UNL     1      37.379 -23.931 -14.494  0.00  0.00    -0.003 C 
ATOM     36  C   UNL     1      36.004 -24.418 -12.116  0.00  0.00    -0.000 C 
ATOM     37  C   UNL     1      37.816 -24.934 -13.627  0.00  0.00    -0.000 C 
ATOM     38  C   UNL     1      37.129 -25.177 -12.438  0.00  0.00    -0.000 C 
ENDBRANCH  32  33
ENDBRANCH  29  32
ENDBRANCH   3  29
TORSDOF 8
ENDMDL
MODEL 9
REMARK VINA RESULT:     -10.5      3.362     11.160
REMARK  Name = 5326608
REMARK  8 active torsions:
REMARK  status: ('A' for Active; 'I' for Inactive)
REMARK    1  A    between atoms: N_3  and  S_29
REMARK    2  A    between atoms: C_5  and  C_13
REMARK    3  A    between atoms: N_12  and  C_15
REMARK    4  A    between atoms: C_15  and  C_19
REMARK    5  A    between atoms: N_18  and  C_24
REMARK    6  A    between atoms: N_18  and  O_27
REMARK    7  A    between atoms: S_29  and  C_32
REMARK    8  A    between atoms: C_32  and  C_33
REMARK                            x       y       z     vdW  Elec       q    Type
REMARK                         _______ _______ _______ _____ _____    ______ ____
ROOT
ATOM      1  O   UNL     1      31.618 -13.556 -20.345  0.00  0.00    -0.273 OA
ATOM      2  N   UNL     1      32.591 -12.890 -22.326  0.00  0.00    -0.272 N 
ATOM      3  N   UNL     1      32.119 -10.212 -21.742  0.00  0.00    -0.148 NA
ATOM      4  C   UNL     1      32.956 -11.854 -23.277  0.00  0.00    +0.094 C 
ATOM      5  C   UNL     1      32.879 -14.217 -22.857  0.00  0.00    +0.152 C 
ATOM      6  C   UNL     1      32.865 -12.569 -24.620  0.00  0.00    +0.024 C 
ATOM      7  C   UNL     1      33.356 -13.976 -24.291  0.00  0.00    +0.031 C 
ATOM      8  C   UNL     1      32.061 -10.638 -23.162  0.00  0.00    +0.116 C 
ATOM      9  C   UNL     1      31.937 -12.660 -21.132  0.00  0.00    +0.244 C 
ATOM     10  C   UNL     1      31.563 -11.231 -20.823  0.00  0.00    +0.180 C 
ENDROOT
BRANCH   5  13
ATOM     11  O   UNL     1      34.271 -14.339 -20.924  0.00  0.00    -0.273 OA
ATOM     12  N   UNL     1      34.590 -15.876 -22.643  0.00  0.00    -0.303 N 
ATOM     13  C   UNL     1      33.975 -14.804 -22.021  0.00  0.00    +0.241 C 
ATOM     14  H   UNL     1      34.262 -16.158 -23.526  0.00  0.00    +0.149 HD
BRANCH  12  15
ATOM     15  C   UNL     1      35.692 -16.604 -22.055  0.00  0.00    +0.089 C 
BRANCH  15  18
ATOM     16  N   UNL     1      33.892 -20.223 -20.636  0.00  0.00    -0.279 N 
ATOM     17  N   UNL     1      31.913 -20.033 -19.551  0.00  0.00    -0.370 N 
ATOM     18  C   UNL     1      35.361 -18.086 -21.893  0.00  0.00    +0.023 C 
ATOM     19  C   UNL     1      35.685 -18.566 -20.471  0.00  0.00    +0.023 C 
ATOM     20  C   UNL     1      33.884 -18.355 -22.217  0.00  0.00    +0.023 C 
ATOM     21  C   UNL     1      35.296 -20.031 -20.277  0.00  0.00    +0.094 C 
ATOM     22  C   UNL     1      33.527 -19.824 -21.993  0.00  0.00    +0.094 C 
ATOM     23  C   UNL     1      33.012 -20.818 -19.800  0.00  0.00    +0.215 C 
ATOM     24  H   UNL     1      31.838 -19.145 -19.968  0.00  0.00    +0.159 HD
ATOM     25  H   UNL     1      31.200 -20.360 -18.955  0.00  0.00    +0.159 HD
BRANCH  23  26
ATOM     26  N   UNL     1      33.135 -22.001 -19.258  0.00  0.00    -0.101 NA
BRANCH  26  27
ATOM     27  O   UNL     1      32.195 -22.166 -18.237  0.00  0.00    -0.263 OA
ATOM     28  H   UNL     1      32.440 -22.586 -17.436  0.00  0.00    +0.247 HD
ENDBRANCH  26  27
ENDBRANCH  23  26
ENDBRANCH  15  18
ENDBRANCH  12  15
ENDBRANCH   5  13
BRANCH   3  29
ATOM     29  S   UNL     1      31.656  -8.596 -21.425  0.00  0.00    +0.049 S 
ATOM     30  O   UNL     1      32.762  -7.721 -21.750  0.00  0.00    -0.157 OA
ATOM     31  O   UNL     1      30.999  -8.543 -20.136  0.00  0.00    -0.157 OA
BRANCH  29  32
ATOM     32  C   UNL     1      30.418  -8.403 -22.680  0.00  0.00    +0.195 C 
BRANCH  32  33
ATOM     33  C   UNL     1      30.597  -7.047 -23.292  0.00  0.00    +0.003 C 
ATOM     34  C   UNL     1      30.259  -5.904 -22.566  0.00  0.00    -0.003 C 
ATOM     35  C   UNL     1      31.099  -6.927 -24.587  0.00  0.00    -0.003 C 
ATOM     36  C   UNL     1      30.426  -4.642 -23.136  0.00  0.00    -0.000 C 
ATOM     37  C   UNL     1      31.265  -5.664 -25.157  0.00  0.00    -0.000 C 
ATOM     38  C   UNL     1      30.928  -4.521 -24.431  0.00  0.00    -0.000 C 
ENDBRANCH  32  33
ENDBRANCH  29  32
ENDBRANCH   3  29
TORSDOF 8
ENDMDL
