MODEL 1
REMARK VINA RESULT:     -12.5      0.000      0.000
REMARK  Name = 447733
REMARK  5 active torsions:
REMARK  status: ('A' for Active; 'I' for Inactive)
REMARK    1  A    between atoms: C_3  and  C_19
REMARK    2  A    between atoms: C_9  and  C_13
REMARK    3  A    between atoms: N_18  and  C_21
REMARK    4  A    between atoms: C_22  and  C_27
REMARK    5  A    between atoms: C_27  and  N_28
REMARK                            x       y       z     vdW  Elec       q    Type
REMARK                         _______ _______ _______ _____ _____    ______ ____
ROOT
ATOM      1  C   UNL     1      35.696 -21.819 -17.107  0.00  0.00    +0.000 C 
ATOM      2  C   UNL     1      34.752 -22.668 -16.481  0.00  0.00    +0.000 C 
ATOM      3  C   UNL     1      34.004 -21.145 -18.719  0.00  0.00    +0.054 C 
ATOM      4  C   UNL     1      35.307 -21.065 -18.226  0.00  0.00    +0.005 C 
ATOM      5  C   UNL     1      33.445 -22.735 -16.992  0.00  0.00    +0.000 C 
ATOM      6  C   UNL     1      35.142 -23.422 -15.363  0.00  0.00    +0.003 C 
ATOM      7  C   UNL     1      37.003 -21.751 -16.597  0.00  0.00    +0.000 C 
ATOM      8  C   UNL     1      33.076 -21.979 -18.104  0.00  0.00    +0.005 C 
ATOM      9  C   UNL     1      36.445 -23.343 -14.869  0.00  0.00    +0.031 C 
ATOM     10  C   UNL     1      37.373 -22.508 -15.485  0.00  0.00    +0.003 C 
ENDROOT
BRANCH   9  13
ATOM     11  N   UNL     1      36.006 -25.129 -13.201  0.00  0.00    -0.343 N 
ATOM     12  N   UNL     1      37.990 -23.898 -13.115  0.00  0.00    -0.285 NA
ATOM     13  C   UNL     1      36.833 -24.130 -13.710  0.00  0.00    +0.117 C 
ATOM     14  H   UNL     1      36.289 -25.649 -12.415  0.00  0.00    +0.144 HD
ATOM     15  H   UNL     1      35.138 -25.315 -13.628  0.00  0.00    +0.144 HD
ATOM     16  H   UNL     1      38.255 -24.430 -12.330  0.00  0.00    +0.188 HD
ENDBRANCH   9  13
BRANCH   3  19
ATOM     17  O   UNL     1      32.489 -20.521 -20.370  0.00  0.00    -0.270 OA
ATOM     18  N   UNL     1      34.570 -19.438 -20.339  0.00  0.00    -0.280 N 
ATOM     19  C   UNL     1      33.617 -20.357 -19.878  0.00  0.00    +0.249 C 
ATOM     20  H   UNL     1      35.422 -19.422 -19.847  0.00  0.00    +0.155 HD
BRANCH  18  21
ATOM     21  C   UNL     1      34.468 -18.529 -21.422  0.00  0.00    +0.051 C 
ATOM     22  C   UNL     1      34.267 -16.752 -23.534  0.00  0.00    -0.044 C 
ATOM     23  C   UNL     1      34.793 -17.199 -21.219  0.00  0.00    +0.014 C 
ATOM     24  C   UNL     1      34.042 -18.992 -22.656  0.00  0.00    +0.014 C 
ATOM     25  C   UNL     1      34.692 -16.303 -22.285  0.00  0.00    -0.005 C 
ATOM     26  C   UNL     1      33.942 -18.096 -23.720  0.00  0.00    -0.005 C 
BRANCH  22  27
ATOM     27  C   UNL     1      34.159 -15.795 -24.673  0.00  0.00    -0.059 C 
BRANCH  27  28
ATOM     28  N   UNL     1      32.955 -14.967 -24.594  0.00  0.00    +0.383 N 
ATOM     29  H   UNL     1      32.709 -14.817 -23.615  0.00  0.00    -0.089 HD
ATOM     30  H   UNL     1      32.185 -15.439 -25.069  0.00  0.00    -0.089 HD
ATOM     31  H   UNL     1      33.131 -14.067 -25.042  0.00  0.00    -0.089 HD
ENDBRANCH  27  28
ENDBRANCH  22  27
ENDBRANCH  18  21
ENDBRANCH   3  19
TORSDOF 5
ENDMDL
MODEL 2
REMARK VINA RESULT:     -12.1      1.851      9.290
REMARK  Name = 447733
REMARK  5 active torsions:
REMARK  status: ('A' for Active; 'I' for Inactive)
REMARK    1  A    between atoms: C_3  and  C_19
REMARK    2  A    between atoms: C_9  and  C_13
REMARK    3  A    between atoms: N_18  and  C_21
REMARK    4  A    between atoms: C_22  and  C_27
REMARK    5  A    between atoms: C_27  and  N_28
REMARK                            x       y       z     vdW  Elec       q    Type
REMARK                         _______ _______ _______ _____ _____    ______ ____
ROOT
ATOM      1  C   UNL     1      35.088 -19.725 -20.351  0.00  0.00    +0.000 C 
ATOM      2  C   UNL     1      33.772 -19.584 -20.853  0.00  0.00    +0.000 C 
ATOM      3  C   UNL     1      34.269 -21.283 -18.673  0.00  0.00    +0.054 C 
ATOM      4  C   UNL     1      35.320 -20.578 -19.260  0.00  0.00    +0.005 C 
ATOM      5  C   UNL     1      32.727 -20.303 -20.250  0.00  0.00    +0.000 C 
ATOM      6  C   UNL     1      33.541 -18.731 -21.944  0.00  0.00    +0.003 C 
ATOM      7  C   UNL     1      36.133 -19.007 -20.955  0.00  0.00    +0.000 C 
ATOM      8  C   UNL     1      32.975 -21.145 -19.167  0.00  0.00    +0.005 C 
ATOM      9  C   UNL     1      34.591 -18.025 -22.532  0.00  0.00    +0.031 C 
ATOM     10  C   UNL     1      35.886 -18.163 -22.038  0.00  0.00    +0.003 C 
ENDROOT
BRANCH   9  13
ATOM     11  N   UNL     1      34.823 -15.840 -23.690  0.00  0.00    -0.343 N 
ATOM     12  N   UNL     1      33.623 -17.581 -24.685  0.00  0.00    -0.285 NA
ATOM     13  C   UNL     1      34.336 -17.145 -23.661  0.00  0.00    +0.117 C 
ATOM     14  H   UNL     1      34.636 -15.262 -24.464  0.00  0.00    +0.144 HD
ATOM     15  H   UNL     1      35.353 -15.496 -22.934  0.00  0.00    +0.144 HD
ATOM     16  H   UNL     1      33.449 -16.987 -25.451  0.00  0.00    +0.188 HD
ENDBRANCH   9  13
BRANCH   3  19
ATOM     17  O   UNL     1      33.829 -23.181 -17.400  0.00  0.00    -0.270 OA
ATOM     18  N   UNL     1      35.582 -21.786 -16.703  0.00  0.00    -0.280 N 
ATOM     19  C   UNL     1      34.525 -22.162 -17.544  0.00  0.00    +0.249 C 
ATOM     20  H   UNL     1      36.043 -20.950 -16.944  0.00  0.00    +0.155 HD
BRANCH  18  21
ATOM     21  C   UNL     1      36.074 -22.450 -15.552  0.00  0.00    +0.051 C 
ATOM     22  C   UNL     1      37.034 -23.746 -13.302  0.00  0.00    -0.044 C 
ATOM     23  C   UNL     1      35.246 -22.598 -14.452  0.00  0.00    +0.014 C 
ATOM     24  C   UNL     1      37.371 -22.934 -15.553  0.00  0.00    +0.014 C 
ATOM     25  C   UNL     1      35.730 -23.251 -13.318  0.00  0.00    -0.005 C 
ATOM     26  C   UNL     1      37.855 -23.587 -14.420  0.00  0.00    -0.005 C 
BRANCH  22  27
ATOM     27  C   UNL     1      37.551 -24.445 -12.091  0.00  0.00    -0.059 C 
BRANCH  27  28
ATOM     28  N   UNL     1      37.743 -25.878 -12.313  0.00  0.00    +0.383 N 
ATOM     29  H   UNL     1      37.015 -26.399 -11.823  0.00  0.00    -0.089 HD
ATOM     30  H   UNL     1      38.658 -26.158 -11.958  0.00  0.00    -0.089 HD
ATOM     31  H   UNL     1      37.690 -26.078 -13.312  0.00  0.00    -0.089 HD
ENDBRANCH  27  28
ENDBRANCH  22  27
ENDBRANCH  18  21
ENDBRANCH   3  19
TORSDOF 5
ENDMDL
MODEL 3
REMARK VINA RESULT:     -11.9      0.749      1.755
REMARK  Name = 447733
REMARK  5 active torsions:
REMARK  status: ('A' for Active; 'I' for Inactive)
REMARK    1  A    between atoms: C_3  and  C_19
REMARK    2  A    between atoms: C_9  and  C_13
REMARK    3  A    between atoms: N_18  and  C_21
REMARK    4  A    between atoms: C_22  and  C_27
REMARK    5  A    between atoms: C_27  and  N_28
REMARK                            x       y       z     vdW  Elec       q    Type
REMARK                         _______ _______ _______ _____ _____    ______ ____
ROOT
ATOM      1  C   UNL     1      34.208 -22.469 -16.770  0.00  0.00    +0.000 C 
ATOM      2  C   UNL     1      35.583 -22.389 -16.443  0.00  0.00    +0.000 C 
ATOM      3  C   UNL     1      34.591 -21.028 -18.691  0.00  0.00    +0.054 C 
ATOM      4  C   UNL     1      33.727 -21.782 -17.896  0.00  0.00    +0.005 C 
ATOM      5  C   UNL     1      36.437 -21.625 -17.256  0.00  0.00    +0.000 C 
ATOM      6  C   UNL     1      36.063 -23.076 -15.317  0.00  0.00    +0.003 C 
ATOM      7  C   UNL     1      33.353 -23.233 -15.958  0.00  0.00    +0.000 C 
ATOM      8  C   UNL     1      35.943 -20.949 -18.371  0.00  0.00    +0.005 C 
ATOM      9  C   UNL     1      35.200 -23.831 -14.521  0.00  0.00    +0.031 C 
ATOM     10  C   UNL     1      33.847 -23.909 -14.842  0.00  0.00    +0.003 C 
ENDROOT
BRANCH   9  13
ATOM     11  N   UNL     1      36.970 -25.135 -13.369  0.00  0.00    -0.343 N 
ATOM     12  N   UNL     1      34.975 -24.623 -12.265  0.00  0.00    -0.285 NA
ATOM     13  C   UNL     1      35.712 -24.537 -13.358  0.00  0.00    +0.117 C 
ATOM     14  H   UNL     1      37.296 -25.609 -12.570  0.00  0.00    +0.144 HD
ATOM     15  H   UNL     1      37.533 -25.084 -14.175  0.00  0.00    +0.144 HD
ATOM     16  H   UNL     1      35.320 -25.101 -11.476  0.00  0.00    +0.188 HD
ENDBRANCH   9  13
BRANCH   3  19
ATOM     17  O   UNL     1      32.960 -20.625 -20.300  0.00  0.00    -0.270 OA
ATOM     18  N   UNL     1      34.904 -19.314 -20.371  0.00  0.00    -0.280 N 
ATOM     19  C   UNL     1      34.078 -20.322 -19.854  0.00  0.00    +0.249 C 
ATOM     20  H   UNL     1      35.765 -19.188 -19.911  0.00  0.00    +0.155 HD
BRANCH  18  21
ATOM     21  C   UNL     1      34.662 -18.452 -21.471  0.00  0.00    +0.051 C 
ATOM     22  C   UNL     1      34.189 -16.770 -23.617  0.00  0.00    -0.044 C 
ATOM     23  C   UNL     1      34.855 -17.090 -21.317  0.00  0.00    +0.014 C 
ATOM     24  C   UNL     1      34.236 -18.993 -22.672  0.00  0.00    +0.014 C 
ATOM     25  C   UNL     1      34.617 -16.242 -22.399  0.00  0.00    -0.005 C 
ATOM     26  C   UNL     1      33.999 -18.145 -23.753  0.00  0.00    -0.005 C 
BRANCH  22  27
ATOM     27  C   UNL     1      33.935 -15.863 -24.773  0.00  0.00    -0.059 C 
BRANCH  27  28
ATOM     28  N   UNL     1      33.002 -14.785 -24.442  0.00  0.00    +0.383 N 
ATOM     29  H   UNL     1      32.283 -15.139 -23.811  0.00  0.00    -0.089 HD
ATOM     30  H   UNL     1      32.563 -14.440 -25.296  0.00  0.00    -0.089 HD
ATOM     31  H   UNL     1      33.509 -14.024 -23.989  0.00  0.00    -0.089 HD
ENDBRANCH  27  28
ENDBRANCH  22  27
ENDBRANCH  18  21
ENDBRANCH   3  19
TORSDOF 5
ENDMDL
MODEL 4
REMARK VINA RESULT:     -11.7      6.757     10.568
REMARK  Name = 447733
REMARK  5 active torsions:
REMARK  status: ('A' for Active; 'I' for Inactive)
REMARK    1  A    between atoms: C_3  and  C_19
REMARK    2  A    between atoms: C_9  and  C_13
REMARK    3  A    between atoms: N_18  and  C_21
REMARK    4  A    between atoms: C_22  and  C_27
REMARK    5  A    between atoms: C_27  and  N_28
REMARK                            x       y       z     vdW  Elec       q    Type
REMARK                         _______ _______ _______ _____ _____    ______ ____
ROOT
ATOM      1  C   UNL     1      33.398 -14.230 -21.466  0.00  0.00    +0.000 C 
ATOM      2  C   UNL     1      33.705 -14.572 -22.805  0.00  0.00    +0.000 C 
ATOM      3  C   UNL     1      32.313 -12.198 -22.247  0.00  0.00    +0.054 C 
ATOM      4  C   UNL     1      32.703 -13.038 -21.203  0.00  0.00    +0.005 C 
ATOM      5  C   UNL     1      33.304 -13.714 -23.842  0.00  0.00    +0.000 C 
ATOM      6  C   UNL     1      34.401 -15.764 -23.066  0.00  0.00    +0.003 C 
ATOM      7  C   UNL     1      33.798 -15.088 -20.429  0.00  0.00    +0.000 C 
ATOM      8  C   UNL     1      32.614 -12.534 -23.563  0.00  0.00    +0.005 C 
ATOM      9  C   UNL     1      34.791 -16.605 -22.024  0.00  0.00    +0.031 C 
ATOM     10  C   UNL     1      34.489 -16.267 -20.707  0.00  0.00    +0.003 C 
ENDROOT
BRANCH   9  13
ATOM     11  N   UNL     1      36.857 -17.982 -21.983  0.00  0.00    -0.343 N 
ATOM     12  N   UNL     1      34.886 -18.839 -22.901  0.00  0.00    -0.285 NA
ATOM     13  C   UNL     1      35.511 -17.835 -22.312  0.00  0.00    +0.117 C 
ATOM     14  H   UNL     1      37.324 -18.823 -22.188  0.00  0.00    +0.144 HD
ATOM     15  H   UNL     1      37.340 -17.243 -21.547  0.00  0.00    +0.144 HD
ATOM     16  H   UNL     1      35.372 -19.673 -23.097  0.00  0.00    +0.188 HD
ENDBRANCH   9  13
BRANCH   3  19
ATOM     17  O   UNL     1      30.618 -11.004 -21.192  0.00  0.00    -0.270 OA
ATOM     18  N   UNL     1      32.093  -9.809 -22.570  0.00  0.00    -0.280 N 
ATOM     19  C   UNL     1      31.594 -10.968 -21.958  0.00  0.00    +0.249 C 
ATOM     20  H   UNL     1      32.875  -9.937 -23.154  0.00  0.00    +0.155 HD
BRANCH  18  21
ATOM     21  C   UNL     1      31.620  -8.478 -22.458  0.00  0.00    +0.051 C 
ATOM     22  C   UNL     1      30.695  -5.878 -22.240  0.00  0.00    -0.044 C 
ATOM     23  C   UNL     1      30.930  -7.915 -23.518  0.00  0.00    +0.014 C 
ATOM     24  C   UNL     1      31.859  -7.771 -21.291  0.00  0.00    +0.014 C 
ATOM     25  C   UNL     1      30.463  -6.604 -23.408  0.00  0.00    -0.005 C 
ATOM     26  C   UNL     1      31.393  -6.461 -21.182  0.00  0.00    -0.005 C 
BRANCH  22  27
ATOM     27  C   UNL     1      30.197  -4.477 -22.123  0.00  0.00    -0.059 C 
BRANCH  27  28
ATOM     28  N   UNL     1      30.460  -3.900 -20.804  0.00  0.00    +0.383 N 
ATOM     29  H   UNL     1      31.167  -4.458 -20.324  0.00  0.00    -0.089 HD
ATOM     30  H   UNL     1      29.600  -3.898 -20.256  0.00  0.00    -0.089 HD
ATOM     31  H   UNL     1      30.797  -2.944 -20.912  0.00  0.00    -0.089 HD
ENDBRANCH  27  28
ENDBRANCH  22  27
ENDBRANCH  18  21
ENDBRANCH   3  19
TORSDOF 5
ENDMDL
MODEL 5
REMARK VINA RESULT:     -11.6      1.647      2.579
REMARK  Name = 447733
REMARK  5 active torsions:
REMARK  status: ('A' for Active; 'I' for Inactive)
REMARK    1  A    between atoms: C_3  and  C_19
REMARK    2  A    between atoms: C_9  and  C_13
REMARK    3  A    between atoms: N_18  and  C_21
REMARK    4  A    between atoms: C_22  and  C_27
REMARK    5  A    between atoms: C_27  and  N_28
REMARK                            x       y       z     vdW  Elec       q    Type
REMARK                         _______ _______ _______ _____ _____    ______ ____
ROOT
ATOM      1  C   UNL     1      33.499 -22.259 -17.097  0.00  0.00    +0.000 C 
ATOM      2  C   UNL     1      34.578 -22.456 -16.203  0.00  0.00    +0.000 C 
ATOM      3  C   UNL     1      34.999 -21.135 -18.645  0.00  0.00    +0.054 C 
ATOM      4  C   UNL     1      33.725 -21.596 -18.314  0.00  0.00    +0.005 C 
ATOM      5  C   UNL     1      35.854 -21.985 -16.555  0.00  0.00    +0.000 C 
ATOM      6  C   UNL     1      34.351 -23.119 -14.986  0.00  0.00    +0.003 C 
ATOM      7  C   UNL     1      32.223 -22.731 -16.746  0.00  0.00    +0.000 C 
ATOM      8  C   UNL     1      36.061 -21.328 -17.767  0.00  0.00    +0.005 C 
ATOM      9  C   UNL     1      33.077 -23.581 -14.654  0.00  0.00    +0.031 C 
ATOM     10  C   UNL     1      32.015 -23.387 -15.533  0.00  0.00    +0.003 C 
ENDROOT
BRANCH   9  13
ATOM     11  N   UNL     1      31.670 -24.945 -13.129  0.00  0.00    -0.343 N 
ATOM     12  N   UNL     1      33.797 -24.245 -12.460  0.00  0.00    -0.285 NA
ATOM     13  C   UNL     1      32.858 -24.266 -13.390  0.00  0.00    +0.117 C 
ATOM     14  H   UNL     1      31.543 -25.401 -12.266  0.00  0.00    +0.144 HD
ATOM     15  H   UNL     1      30.957 -24.969 -13.808  0.00  0.00    +0.144 HD
ATOM     16  H   UNL     1      33.650 -24.708 -11.604  0.00  0.00    +0.188 HD
ENDBRANCH   9  13
BRANCH   3  19
ATOM     17  O   UNL     1      36.094 -20.871 -20.682  0.00  0.00    -0.270 OA
ATOM     18  N   UNL     1      34.379 -19.355 -20.164  0.00  0.00    -0.280 N 
ATOM     19  C   UNL     1      35.217 -20.450 -19.909  0.00  0.00    +0.249 C 
ATOM     20  H   UNL     1      33.730 -19.139 -19.456  0.00  0.00    +0.155 HD
BRANCH  18  21
ATOM     21  C   UNL     1      34.343 -18.519 -21.308  0.00  0.00    +0.051 C 
ATOM     22  C   UNL     1      34.271 -16.886 -23.541  0.00  0.00    -0.044 C 
ATOM     23  C   UNL     1      34.786 -17.212 -21.204  0.00  0.00    +0.014 C 
ATOM     24  C   UNL     1      33.863 -19.029 -22.503  0.00  0.00    +0.014 C 
ATOM     25  C   UNL     1      34.750 -16.388 -22.330  0.00  0.00    -0.005 C 
ATOM     26  C   UNL     1      33.827 -18.206 -23.628  0.00  0.00    -0.005 C 
BRANCH  22  27
ATOM     27  C   UNL     1      34.233 -16.005 -24.745  0.00  0.00    -0.059 C 
BRANCH  27  28
ATOM     28  N   UNL     1      33.110 -15.067 -24.714  0.00  0.00    +0.383 N 
ATOM     29  H   UNL     1      32.397 -15.367 -25.379  0.00  0.00    -0.089 HD
ATOM     30  H   UNL     1      33.439 -14.135 -24.966  0.00  0.00    -0.089 HD
ATOM     31  H   UNL     1      32.711 -15.045 -23.775  0.00  0.00    -0.089 HD
ENDBRANCH  27  28
ENDBRANCH  22  27
ENDBRANCH  18  21
ENDBRANCH   3  19
TORSDOF 5
ENDMDL
MODEL 6
REMARK VINA RESULT:     -11.6      1.578      2.702
REMARK  Name = 447733
REMARK  5 active torsions:
REMARK  status: ('A' for Active; 'I' for Inactive)
REMARK    1  A    between atoms: C_3  and  C_19
REMARK    2  A    between atoms: C_9  and  C_13
REMARK    3  A    between atoms: N_18  and  C_21
REMARK    4  A    between atoms: C_22  and  C_27
REMARK    5  A    between atoms: C_27  and  N_28
REMARK                            x       y       z     vdW  Elec       q    Type
REMARK                         _______ _______ _______ _____ _____    ______ ____
ROOT
ATOM      1  C   UNL     1      34.955 -22.898 -15.282  0.00  0.00    +0.000 C 
ATOM      2  C   UNL     1      36.291 -22.676 -14.870  0.00  0.00    +0.000 C 
ATOM      3  C   UNL     1      35.452 -21.852 -17.421  0.00  0.00    +0.054 C 
ATOM      4  C   UNL     1      34.551 -22.480 -16.560  0.00  0.00    +0.005 C 
ATOM      5  C   UNL     1      37.184 -22.043 -15.751  0.00  0.00    +0.000 C 
ATOM      6  C   UNL     1      36.695 -23.095 -13.592  0.00  0.00    +0.003 C 
ATOM      7  C   UNL     1      34.063 -23.532 -14.402  0.00  0.00    +0.000 C 
ATOM      8  C   UNL     1      36.765 -21.634 -17.017  0.00  0.00    +0.005 C 
ATOM      9  C   UNL     1      35.795 -23.722 -12.731  0.00  0.00    +0.031 C 
ATOM     10  C   UNL     1      34.480 -23.940 -13.135  0.00  0.00    +0.003 C 
ENDROOT
BRANCH   9  13
ATOM     11  N   UNL     1      36.291 -23.257 -10.343  0.00  0.00    -0.343 N 
ATOM     12  N   UNL     1      36.576 -25.408 -11.209  0.00  0.00    -0.285 NA
ATOM     13  C   UNL     1      36.228 -24.150 -11.410  0.00  0.00    +0.117 C 
ATOM     14  H   UNL     1      36.589 -23.568  -9.458  0.00  0.00    +0.144 HD
ATOM     15  H   UNL     1      36.039 -22.314 -10.474  0.00  0.00    +0.144 HD
ATOM     16  H   UNL     1      36.870 -25.700 -10.316  0.00  0.00    +0.188 HD
ENDBRANCH   9  13
BRANCH   3  19
ATOM     17  O   UNL     1      34.293 -22.177 -19.412  0.00  0.00    -0.270 OA
ATOM     18  N   UNL     1      35.448 -20.153 -19.145  0.00  0.00    -0.280 N 
ATOM     19  C   UNL     1      35.018 -21.425 -18.741  0.00  0.00    +0.249 C 
ATOM     20  H   UNL     1      36.021 -19.672 -18.504  0.00  0.00    +0.155 HD
BRANCH  18  21
ATOM     21  C   UNL     1      35.168 -19.469 -20.354  0.00  0.00    +0.051 C 
ATOM     22  C   UNL     1      34.619 -18.134 -22.715  0.00  0.00    -0.044 C 
ATOM     23  C   UNL     1      33.958 -19.688 -20.989  0.00  0.00    +0.014 C 
ATOM     24  C   UNL     1      36.111 -18.598 -20.872  0.00  0.00    +0.014 C 
ATOM     25  C   UNL     1      33.681 -19.015 -22.179  0.00  0.00    -0.005 C 
ATOM     26  C   UNL     1      35.835 -17.925 -22.062  0.00  0.00    -0.005 C 
BRANCH  22  27
ATOM     27  C   UNL     1      34.324 -17.414 -23.988  0.00  0.00    -0.059 C 
BRANCH  27  28
ATOM     28  N   UNL     1      34.608 -15.981 -23.896  0.00  0.00    +0.383 N 
ATOM     29  H   UNL     1      34.431 -15.659 -22.944  0.00  0.00    -0.089 HD
ATOM     30  H   UNL     1      34.004 -15.473 -24.544  0.00  0.00    -0.089 HD
ATOM     31  H   UNL     1      35.584 -15.811 -24.137  0.00  0.00    -0.089 HD
ENDBRANCH  27  28
ENDBRANCH  22  27
ENDBRANCH  18  21
ENDBRANCH   3  19
TORSDOF 5
ENDMDL
MODEL 7
REMARK VINA RESULT:     -11.6      6.046      9.698
REMARK  Name = 447733
REMARK  5 active torsions:
REMARK  status: ('A' for Active; 'I' for Inactive)
REMARK    1  A    between atoms: C_3  and  C_19
REMARK    2  A    between atoms: C_9  and  C_13
REMARK    3  A    between atoms: N_18  and  C_21
REMARK    4  A    between atoms: C_22  and  C_27
REMARK    5  A    between atoms: C_27  and  N_28
REMARK                            x       y       z     vdW  Elec       q    Type
REMARK                         _______ _______ _______ _____ _____    ______ ____
ROOT
ATOM      1  C   UNL     1      34.047 -15.073 -22.859  0.00  0.00    +0.000 C 
ATOM      2  C   UNL     1      34.106 -15.137 -21.446  0.00  0.00    +0.000 C 
ATOM      3  C   UNL     1      33.272 -12.772 -22.710  0.00  0.00    +0.054 C 
ATOM      4  C   UNL     1      33.626 -13.883 -23.476  0.00  0.00    +0.005 C 
ATOM      5  C   UNL     1      33.746 -14.008 -20.692  0.00  0.00    +0.000 C 
ATOM      6  C   UNL     1      34.527 -16.327 -20.830  0.00  0.00    +0.003 C 
ATOM      7  C   UNL     1      34.408 -16.201 -23.614  0.00  0.00    +0.000 C 
ATOM      8  C   UNL     1      33.330 -12.835 -21.322  0.00  0.00    +0.005 C 
ATOM      9  C   UNL     1      34.882 -17.439 -21.595  0.00  0.00    +0.031 C 
ATOM     10  C   UNL     1      34.823 -17.375 -22.985  0.00  0.00    +0.003 C 
ENDROOT
BRANCH   9  13
ATOM     11  N   UNL     1      34.480 -19.775 -20.857  0.00  0.00    -0.343 N 
ATOM     12  N   UNL     1      36.523 -18.732 -20.410  0.00  0.00    -0.285 NA
ATOM     13  C   UNL     1      35.315 -18.663 -20.942  0.00  0.00    +0.117 C 
ATOM     14  H   UNL     1      34.794 -20.593 -20.409  0.00  0.00    +0.144 HD
ATOM     15  H   UNL     1      33.575 -19.742 -21.244  0.00  0.00    +0.144 HD
ATOM     16  H   UNL     1      36.818 -19.561 -19.968  0.00  0.00    +0.188 HD
ENDBRANCH   9  13
BRANCH   3  19
ATOM     17  O   UNL     1      32.685 -11.542 -24.596  0.00  0.00    -0.270 OA
ATOM     18  N   UNL     1      32.601 -10.454 -22.520  0.00  0.00    -0.280 N 
ATOM     19  C   UNL     1      32.838 -11.548 -23.364  0.00  0.00    +0.249 C 
ATOM     20  H   UNL     1      32.768 -10.609 -21.562  0.00  0.00    +0.155 HD
BRANCH  18  21
ATOM     21  C   UNL     1      32.154  -9.154 -22.864  0.00  0.00    +0.051 C 
ATOM     22  C   UNL     1      31.283  -6.614 -23.535  0.00  0.00    -0.044 C 
ATOM     23  C   UNL     1      33.071  -8.223 -23.321  0.00  0.00    +0.014 C 
ATOM     24  C   UNL     1      30.811  -8.844 -22.732  0.00  0.00    +0.014 C 
ATOM     25  C   UNL     1      32.632  -6.943 -23.660  0.00  0.00    -0.005 C 
ATOM     26  C   UNL     1      30.372  -7.564 -23.071  0.00  0.00    -0.005 C 
BRANCH  22  27
ATOM     27  C   UNL     1      30.813  -5.246 -23.897  0.00  0.00    -0.059 C 
BRANCH  27  28
ATOM     28  N   UNL     1      30.054  -4.613 -22.817  0.00  0.00    +0.383 N 
ATOM     29  H   UNL     1      29.768  -5.322 -22.142  0.00  0.00    -0.089 HD
ATOM     30  H   UNL     1      29.226  -4.158 -23.204  0.00  0.00    -0.089 HD
ATOM     31  H   UNL     1      30.639  -3.917 -22.353  0.00  0.00    -0.089 HD
ENDBRANCH  27  28
ENDBRANCH  22  27
ENDBRANCH  18  21
ENDBRANCH   3  19
TORSDOF 5
ENDMDL
MODEL 8
REMARK VINA RESULT:     -11.2      7.082     13.133
REMARK  Name = 447733
REMARK  5 active torsions:
REMARK  status: ('A' for Active; 'I' for Inactive)
REMARK    1  A    between atoms: C_3  and  C_19
REMARK    2  A    between atoms: C_9  and  C_13
REMARK    3  A    between atoms: N_18  and  C_21
REMARK    4  A    between atoms: C_22  and  C_27
REMARK    5  A    between atoms: C_27  and  N_28
REMARK                            x       y       z     vdW  Elec       q    Type
REMARK                         _______ _______ _______ _____ _____    ______ ____
ROOT
ATOM      1  C   UNL     1      31.544  -9.046 -22.188  0.00  0.00    +0.000 C 
ATOM      2  C   UNL     1      31.214  -8.390 -20.978  0.00  0.00    +0.000 C 
ATOM      3  C   UNL     1      31.809 -11.135 -20.973  0.00  0.00    +0.054 C 
ATOM      4  C   UNL     1      31.840 -10.418 -22.169  0.00  0.00    +0.005 C 
ATOM      5  C   UNL     1      31.188  -9.129 -19.783  0.00  0.00    +0.000 C 
ATOM      6  C   UNL     1      30.918  -7.018 -20.998  0.00  0.00    +0.003 C 
ATOM      7  C   UNL     1      31.569  -8.308 -23.383  0.00  0.00    +0.000 C 
ATOM      8  C   UNL     1      31.484 -10.492 -19.782  0.00  0.00    +0.005 C 
ATOM      9  C   UNL     1      30.949  -6.300 -22.194  0.00  0.00    +0.031 C 
ATOM     10  C   UNL     1      31.274  -6.944 -23.384  0.00  0.00    +0.003 C 
ENDROOT
BRANCH   9  13
ATOM     11  N   UNL     1      30.203  -4.235 -23.353  0.00  0.00    -0.343 N 
ATOM     12  N   UNL     1      30.779  -4.173 -21.089  0.00  0.00    -0.285 NA
ATOM     13  C   UNL     1      30.640  -4.879 -22.198  0.00  0.00    +0.117 C 
ATOM     14  H   UNL     1      30.000  -3.272 -23.333  0.00  0.00    +0.144 HD
ATOM     15  H   UNL     1      30.096  -4.743 -24.189  0.00  0.00    +0.144 HD
ATOM     16  H   UNL     1      30.571  -3.211 -21.090  0.00  0.00    +0.188 HD
ENDBRANCH   9  13
BRANCH   3  19
ATOM     17  O   UNL     1      31.347 -13.341 -20.394  0.00  0.00    -0.270 OA
ATOM     18  N   UNL     1      33.281 -12.931 -21.657  0.00  0.00    -0.280 N 
ATOM     19  C   UNL     1      32.118 -12.556 -20.970  0.00  0.00    +0.249 C 
ATOM     20  H   UNL     1      33.793 -12.195 -22.063  0.00  0.00    +0.155 HD
BRANCH  18  21
ATOM     21  C   UNL     1      33.818 -14.229 -21.842  0.00  0.00    +0.051 C 
ATOM     22  C   UNL     1      34.866 -16.765 -22.203  0.00  0.00    -0.044 C 
ATOM     23  C   UNL     1      34.031 -15.036 -20.737  0.00  0.00    +0.014 C 
ATOM     24  C   UNL     1      34.118 -14.660 -23.123  0.00  0.00    +0.014 C 
ATOM     25  C   UNL     1      34.559 -16.315 -20.919  0.00  0.00    -0.005 C 
ATOM     26  C   UNL     1      34.645 -15.938 -23.305  0.00  0.00    -0.005 C 
BRANCH  22  27
ATOM     27  C   UNL     1      35.430 -18.132 -22.397  0.00  0.00    -0.059 C 
BRANCH  27  28
ATOM     28  N   UNL     1      36.844 -18.210 -22.027  0.00  0.00    +0.383 N 
ATOM     29  H   UNL     1      37.420 -18.142 -22.867  0.00  0.00    -0.089 HD
ATOM     30  H   UNL     1      37.026 -19.099 -21.562  0.00  0.00    -0.089 HD
ATOM     31  H   UNL     1      37.073 -17.442 -21.396  0.00  0.00    -0.089 HD
ENDBRANCH  27  28
ENDBRANCH  22  27
ENDBRANCH  18  21
ENDBRANCH   3  19
TORSDOF 5
ENDMDL
MODEL 9
REMARK VINA RESULT:     -11.2      2.240      9.434
REMARK  Name = 447733
REMARK  5 active torsions:
REMARK  status: ('A' for Active; 'I' for Inactive)
REMARK    1  A    between atoms: C_3  and  C_19
REMARK    2  A    between atoms: C_9  and  C_13
REMARK    3  A    between atoms: N_18  and  C_21
REMARK    4  A    between atoms: C_22  and  C_27
REMARK    5  A    between atoms: C_27  and  N_28
REMARK                            x       y       z     vdW  Elec       q    Type
REMARK                         _______ _______ _______ _____ _____    ______ ____
ROOT
ATOM      1  C   UNL     1      35.560 -19.585 -20.282  0.00  0.00    +0.000 C 
ATOM      2  C   UNL     1      34.227 -19.791 -20.710  0.00  0.00    +0.000 C 
ATOM      3  C   UNL     1      35.188 -21.107 -18.423  0.00  0.00    +0.054 C 
ATOM      4  C   UNL     1      36.026 -20.249 -19.136  0.00  0.00    +0.005 C 
ATOM      5  C   UNL     1      33.399 -20.659 -19.979  0.00  0.00    +0.000 C 
ATOM      6  C   UNL     1      33.762 -19.126 -21.856  0.00  0.00    +0.003 C 
ATOM      7  C   UNL     1      36.389 -18.717 -21.013  0.00  0.00    +0.000 C 
ATOM      8  C   UNL     1      33.878 -21.311 -18.843  0.00  0.00    +0.005 C 
ATOM      9  C   UNL     1      34.599 -18.268 -22.570  0.00  0.00    +0.031 C 
ATOM     10  C   UNL     1      35.910 -18.064 -22.149  0.00  0.00    +0.003 C 
ENDROOT
BRANCH   9  13
ATOM     11  N   UNL     1      34.439 -16.262 -24.024  0.00  0.00    -0.343 N 
ATOM     12  N   UNL     1      33.311 -18.226 -24.597  0.00  0.00    -0.285 NA
ATOM     13  C   UNL     1      34.102 -17.586 -23.754  0.00  0.00    +0.117 C 
ATOM     14  H   UNL     1      34.091 -15.820 -24.832  0.00  0.00    +0.144 HD
ATOM     15  H   UNL     1      35.025 -15.767 -23.406  0.00  0.00    +0.144 HD
ATOM     16  H   UNL     1      32.974 -17.767 -25.400  0.00  0.00    +0.188 HD
ENDBRANCH   9  13
BRANCH   3  19
ATOM     17  O   UNL     1      36.877 -22.135 -17.195  0.00  0.00    -0.270 OA
ATOM     18  N   UNL     1      34.755 -21.979 -16.206  0.00  0.00    -0.280 N 
ATOM     19  C   UNL     1      35.685 -21.788 -17.238  0.00  0.00    +0.249 C 
ATOM     20  H   UNL     1      33.844 -21.651 -16.386  0.00  0.00    +0.155 HD
BRANCH  18  21
ATOM     21  C   UNL     1      34.953 -22.583 -14.940  0.00  0.00    +0.051 C 
ATOM     22  C   UNL     1      35.341 -23.764 -12.466  0.00  0.00    -0.044 C 
ATOM     23  C   UNL     1      36.184 -22.462 -14.319  0.00  0.00    +0.014 C 
ATOM     24  C   UNL     1      33.911 -23.282 -14.353  0.00  0.00    +0.014 C 
ATOM     25  C   UNL     1      36.380 -23.057 -13.072  0.00  0.00    -0.005 C 
ATOM     26  C   UNL     1      34.106 -23.876 -13.107  0.00  0.00    -0.005 C 
BRANCH  22  27
ATOM     27  C   UNL     1      35.550 -24.399 -11.133  0.00  0.00    -0.059 C 
BRANCH  27  28
ATOM     28  N   UNL     1      36.089 -23.462 -10.147  0.00  0.00    +0.383 N 
ATOM     29  H   UNL     1      35.630 -22.557 -10.252  0.00  0.00    -0.089 HD
ATOM     30  H   UNL     1      37.092 -23.353 -10.295  0.00  0.00    -0.089 HD
ATOM     31  H   UNL     1      35.920 -23.823  -9.208  0.00  0.00    -0.089 HD
ENDBRANCH  27  28
ENDBRANCH  22  27
ENDBRANCH  18  21
ENDBRANCH   3  19
TORSDOF 5
ENDMDL
