MODEL 1
REMARK VINA RESULT:     -11.6      0.000      0.000
REMARK  Name = 17749735
REMARK  3 active torsions:
REMARK  status: ('A' for Active; 'I' for Inactive)
REMARK    1  A    between atoms: C_1  and  C_11
REMARK    2  A    between atoms: C_4  and  C_19
REMARK    3  A    between atoms: C_22  and  O_25
REMARK                            x       y       z     vdW  Elec       q    Type
REMARK                         _______ _______ _______ _____ _____    ______ ____
ROOT
ATOM      1  C   UNL     1      35.394 -22.656 -15.726  0.00  0.00    -0.002 C 
ATOM      2  C   UNL     1      34.669 -22.182 -16.819  0.00  0.00    -0.002 C 
ATOM      3  C   UNL     1      36.729 -22.285 -15.560  0.00  0.00    -0.002 C 
ATOM      4  C   UNL     1      35.279 -21.335 -17.747  0.00  0.00    -0.000 C 
ATOM      5  C   UNL     1      37.337 -21.438 -16.486  0.00  0.00    -0.000 C 
ATOM      6  C   UNL     1      36.613 -20.964 -17.579  0.00  0.00    -0.000 C 
ENDROOT
BRANCH   1  11
ATOM      7  O   UNL     1      37.487 -23.210 -12.494  0.00  0.00    -0.274 OA
ATOM      8  N   UNL     1      34.872 -25.018 -15.043  0.00  0.00    -0.243 NA
ATOM      9  N   UNL     1      36.917 -25.042 -13.844  0.00  0.00    -0.231 N 
ATOM     10  N   UNL     1      36.127 -26.954 -15.059  0.00  0.00    -0.331 N 
ATOM     11  C   UNL     1      34.724 -23.589 -14.706  0.00  0.00    +0.114 C 
ATOM     12  C   UNL     1      35.236 -23.395 -13.271  0.00  0.00    +0.112 C 
ATOM     13  C   UNL     1      33.208 -23.311 -14.732  0.00  0.00    +0.029 C 
ATOM     14  C   UNL     1      36.673 -23.838 -13.169  0.00  0.00    +0.234 C 
ATOM     15  C   UNL     1      35.940 -25.651 -14.659  0.00  0.00    +0.184 C 
ATOM     16  C   UNL     1      38.224 -25.671 -13.670  0.00  0.00    +0.123 C 
ATOM     17  H   UNL     1      35.455 -27.394 -15.628  0.00  0.00    +0.145 HD
ATOM     18  H   UNL     1      36.931 -27.446 -14.775  0.00  0.00    +0.145 HD
ENDBRANCH   1  11
BRANCH   4  19
ATOM     19  C   UNL     1      34.528 -20.843 -18.881  0.00  0.00    +0.003 C 
ATOM     20  C   UNL     1      35.174 -20.124 -19.886  0.00  0.00    +0.037 C 
ATOM     21  C   UNL     1      33.158 -21.090 -18.970  0.00  0.00    +0.000 C 
ATOM     22  C   UNL     1      34.451 -19.651 -20.980  0.00  0.00    +0.139 C 
ATOM     23  C   UNL     1      32.435 -20.617 -20.065  0.00  0.00    +0.003 C 
ATOM     24  C   UNL     1      33.081 -19.897 -21.069  0.00  0.00    +0.037 C 
BRANCH  22  25
ATOM     25  O   UNL     1      35.081 -18.948 -21.962  0.00  0.00    -0.471 OA
ATOM     26  C   UNL     1      36.226 -18.186 -21.581  0.00  0.00    +0.252 C 
ENDBRANCH  22  25
ENDBRANCH   4  19
TORSDOF 3
ENDMDL
MODEL 2
REMARK VINA RESULT:     -11.3      1.634      2.807
REMARK  Name = 17749735
REMARK  3 active torsions:
REMARK  status: ('A' for Active; 'I' for Inactive)
REMARK    1  A    between atoms: C_1  and  C_11
REMARK    2  A    between atoms: C_4  and  C_19
REMARK    3  A    between atoms: C_22  and  O_25
REMARK                            x       y       z     vdW  Elec       q    Type
REMARK                         _______ _______ _______ _____ _____    ______ ____
ROOT
ATOM      1  C   UNL     1      35.679 -23.048 -15.500  0.00  0.00    -0.002 C 
ATOM      2  C   UNL     1      35.481 -22.278 -16.645  0.00  0.00    -0.002 C 
ATOM      3  C   UNL     1      34.611 -23.747 -14.936  0.00  0.00    -0.002 C 
ATOM      4  C   UNL     1      34.214 -22.206 -17.228  0.00  0.00    -0.000 C 
ATOM      5  C   UNL     1      33.345 -23.675 -15.519  0.00  0.00    -0.000 C 
ATOM      6  C   UNL     1      33.147 -22.905 -16.664  0.00  0.00    -0.000 C 
ENDROOT
BRANCH   1  11
ATOM      7  O   UNL     1      36.308 -26.332 -13.513  0.00  0.00    -0.274 OA
ATOM      8  N   UNL     1      37.177 -22.353 -13.606  0.00  0.00    -0.243 NA
ATOM      9  N   UNL     1      36.431 -24.262 -12.415  0.00  0.00    -0.231 N 
ATOM     10  N   UNL     1      36.822 -22.157 -11.335  0.00  0.00    -0.331 N 
ATOM     11  C   UNL     1      37.073 -23.127 -14.857  0.00  0.00    +0.114 C 
ATOM     12  C   UNL     1      37.526 -24.562 -14.555  0.00  0.00    +0.112 C 
ATOM     13  C   UNL     1      38.080 -22.483 -15.830  0.00  0.00    +0.029 C 
ATOM     14  C   UNL     1      36.670 -25.158 -13.466  0.00  0.00    +0.234 C 
ATOM     15  C   UNL     1      36.821 -22.909 -12.487  0.00  0.00    +0.184 C 
ATOM     16  C   UNL     1      35.770 -24.774 -11.217  0.00  0.00    +0.123 C 
ATOM     17  H   UNL     1      37.091 -21.210 -11.366  0.00  0.00    +0.145 HD
ATOM     18  H   UNL     1      36.555 -22.565 -10.480  0.00  0.00    +0.145 HD
ENDBRANCH   1  11
BRANCH   4  19
ATOM     19  C   UNL     1      34.009 -21.407 -18.416  0.00  0.00    +0.003 C 
ATOM     20  C   UNL     1      35.099 -20.828 -19.065  0.00  0.00    +0.037 C 
ATOM     21  C   UNL     1      32.720 -21.218 -18.915  0.00  0.00    +0.000 C 
ATOM     22  C   UNL     1      34.902 -20.060 -20.212  0.00  0.00    +0.139 C 
ATOM     23  C   UNL     1      32.522 -20.449 -20.062  0.00  0.00    +0.003 C 
ATOM     24  C   UNL     1      33.612 -19.870 -20.710  0.00  0.00    +0.037 C 
BRANCH  22  25
ATOM     25  O   UNL     1      35.966 -19.495 -20.845  0.00  0.00    -0.471 OA
ATOM     26  C   UNL     1      35.795 -18.168 -21.343  0.00  0.00    +0.252 C 
ENDBRANCH  22  25
ENDBRANCH   4  19
TORSDOF 3
ENDMDL
MODEL 3
REMARK VINA RESULT:     -10.7     11.421     15.485
REMARK  Name = 17749735
REMARK  3 active torsions:
REMARK  status: ('A' for Active; 'I' for Inactive)
REMARK    1  A    between atoms: C_1  and  C_11
REMARK    2  A    between atoms: C_4  and  C_19
REMARK    3  A    between atoms: C_22  and  O_25
REMARK                            x       y       z     vdW  Elec       q    Type
REMARK                         _______ _______ _______ _____ _____    ______ ____
ROOT
ATOM      1  C   UNL     1      32.375  -9.049 -22.585  0.00  0.00    -0.002 C 
ATOM      2  C   UNL     1      32.925 -10.302 -22.851  0.00  0.00    -0.002 C 
ATOM      3  C   UNL     1      31.172  -8.949 -21.884  0.00  0.00    -0.002 C 
ATOM      4  C   UNL     1      32.273 -11.457 -22.417  0.00  0.00    -0.000 C 
ATOM      5  C   UNL     1      30.521 -10.104 -21.449  0.00  0.00    -0.000 C 
ATOM      6  C   UNL     1      31.071 -11.357 -21.715  0.00  0.00    -0.000 C 
ENDROOT
BRANCH   1  11
ATOM      7  O   UNL     1      32.026  -6.037 -20.148  0.00  0.00    -0.274 OA
ATOM      8  N   UNL     1      32.330  -7.034 -24.087  0.00  0.00    -0.243 NA
ATOM      9  N   UNL     1      31.231  -5.856 -22.348  0.00  0.00    -0.231 N 
ATOM     10  N   UNL     1      30.652  -5.556 -24.656  0.00  0.00    -0.331 N 
ATOM     11  C   UNL     1      33.092  -7.777 -23.064  0.00  0.00    +0.114 C 
ATOM     12  C   UNL     1      33.423  -6.798 -21.929  0.00  0.00    +0.112 C 
ATOM     13  C   UNL     1      34.404  -8.202 -23.751  0.00  0.00    +0.029 C 
ATOM     14  C   UNL     1      32.155  -6.217 -21.357  0.00  0.00    +0.234 C 
ATOM     15  C   UNL     1      31.432  -6.175 -23.706  0.00  0.00    +0.184 C 
ATOM     16  C   UNL     1      30.040  -5.117 -21.935  0.00  0.00    +0.123 C 
ATOM     17  H   UNL     1      30.779  -5.767 -25.609  0.00  0.00    +0.145 HD
ATOM     18  H   UNL     1      29.968  -4.903 -24.383  0.00  0.00    +0.145 HD
ENDBRANCH   1  11
BRANCH   4  19
ATOM     19  C   UNL     1      32.843 -12.758 -22.692  0.00  0.00    +0.003 C 
ATOM     20  C   UNL     1      33.376 -13.520 -21.653  0.00  0.00    +0.037 C 
ATOM     21  C   UNL     1      32.857 -13.251 -23.997  0.00  0.00    +0.000 C 
ATOM     22  C   UNL     1      33.924 -14.775 -21.918  0.00  0.00    +0.139 C 
ATOM     23  C   UNL     1      33.405 -14.505 -24.262  0.00  0.00    +0.003 C 
ATOM     24  C   UNL     1      33.939 -15.267 -23.223  0.00  0.00    +0.037 C 
BRANCH  22  25
ATOM     25  O   UNL     1      34.445 -15.519 -20.904  0.00  0.00    -0.471 OA
ATOM     26  C   UNL     1      34.807 -16.865 -21.207  0.00  0.00    +0.252 C 
ENDBRANCH  22  25
ENDBRANCH   4  19
TORSDOF 3
ENDMDL
MODEL 4
REMARK VINA RESULT:     -10.6      3.150      5.592
REMARK  Name = 17749735
REMARK  3 active torsions:
REMARK  status: ('A' for Active; 'I' for Inactive)
REMARK    1  A    between atoms: C_1  and  C_11
REMARK    2  A    between atoms: C_4  and  C_19
REMARK    3  A    between atoms: C_22  and  O_25
REMARK                            x       y       z     vdW  Elec       q    Type
REMARK                         _______ _______ _______ _____ _____    ______ ____
ROOT
ATOM      1  C   UNL     1      35.417 -22.307 -15.931  0.00  0.00    -0.002 C 
ATOM      2  C   UNL     1      34.342 -22.788 -15.184  0.00  0.00    -0.002 C 
ATOM      3  C   UNL     1      35.239 -21.969 -17.272  0.00  0.00    -0.002 C 
ATOM      4  C   UNL     1      33.088 -22.931 -15.780  0.00  0.00    -0.000 C 
ATOM      5  C   UNL     1      33.986 -22.111 -17.867  0.00  0.00    -0.000 C 
ATOM      6  C   UNL     1      32.910 -22.593 -17.121  0.00  0.00    -0.000 C 
ENDROOT
BRANCH   1  11
ATOM      7  O   UNL     1      37.086 -25.683 -14.958  0.00  0.00    -0.274 OA
ATOM      8  N   UNL     1      36.724 -21.779 -13.850  0.00  0.00    -0.243 NA
ATOM      9  N   UNL     1      36.635 -24.084 -13.301  0.00  0.00    -0.231 N 
ATOM     10  N   UNL     1      36.429 -22.367 -11.638  0.00  0.00    -0.331 N 
ATOM     11  C   UNL     1      36.799 -22.150 -15.275  0.00  0.00    +0.114 C 
ATOM     12  C   UNL     1      37.672 -23.408 -15.384  0.00  0.00    +0.112 C 
ATOM     13  C   UNL     1      37.524 -20.982 -15.972  0.00  0.00    +0.029 C 
ATOM     14  C   UNL     1      37.083 -24.521 -14.556  0.00  0.00    +0.234 C 
ATOM     15  C   UNL     1      36.600 -22.716 -12.958  0.00  0.00    +0.184 C 
ATOM     16  C   UNL     1      36.212 -25.095 -12.336  0.00  0.00    +0.123 C 
ATOM     17  H   UNL     1      36.402 -21.418 -11.380  0.00  0.00    +0.145 HD
ATOM     18  H   UNL     1      36.335 -23.067 -10.952  0.00  0.00    +0.145 HD
ENDBRANCH   1  11
BRANCH   4  19
ATOM     19  C   UNL     1      31.972 -23.430 -15.006  0.00  0.00    +0.003 C 
ATOM     20  C   UNL     1      30.666 -23.202 -15.439  0.00  0.00    +0.037 C 
ATOM     21  C   UNL     1      32.202 -24.142 -13.829  0.00  0.00    +0.000 C 
ATOM     22  C   UNL     1      29.590 -23.685 -14.695  0.00  0.00    +0.139 C 
ATOM     23  C   UNL     1      31.126 -24.625 -13.085  0.00  0.00    +0.003 C 
ATOM     24  C   UNL     1      29.820 -24.396 -13.517  0.00  0.00    +0.037 C 
BRANCH  22  25
ATOM     25  O   UNL     1      28.315 -23.462 -15.117  0.00  0.00    -0.471 OA
ATOM     26  C   UNL     1      28.117 -22.408 -16.059  0.00  0.00    +0.252 C 
ENDBRANCH  22  25
ENDBRANCH   4  19
TORSDOF 3
ENDMDL
MODEL 5
REMARK VINA RESULT:     -10.3     11.666     15.649
REMARK  Name = 17749735
REMARK  3 active torsions:
REMARK  status: ('A' for Active; 'I' for Inactive)
REMARK    1  A    between atoms: C_1  and  C_11
REMARK    2  A    between atoms: C_4  and  C_19
REMARK    3  A    between atoms: C_22  and  O_25
REMARK                            x       y       z     vdW  Elec       q    Type
REMARK                         _______ _______ _______ _____ _____    ______ ____
ROOT
ATOM      1  C   UNL     1      32.283  -8.881 -22.608  0.00  0.00    -0.002 C 
ATOM      2  C   UNL     1      32.889 -10.137 -22.648  0.00  0.00    -0.002 C 
ATOM      3  C   UNL     1      30.976  -8.752 -22.138  0.00  0.00    -0.002 C 
ATOM      4  C   UNL     1      32.188 -11.264 -22.217  0.00  0.00    -0.000 C 
ATOM      5  C   UNL     1      30.276  -9.880 -21.706  0.00  0.00    -0.000 C 
ATOM      6  C   UNL     1      30.882 -11.135 -21.746  0.00  0.00    -0.000 C 
ENDROOT
BRANCH   1  11
ATOM      7  O   UNL     1      32.022  -5.849 -20.186  0.00  0.00    -0.274 OA
ATOM      8  N   UNL     1      32.334  -6.873 -24.117  0.00  0.00    -0.243 NA
ATOM      9  N   UNL     1      31.260  -5.647 -22.395  0.00  0.00    -0.231 N 
ATOM     10  N   UNL     1      30.721  -5.334 -24.712  0.00  0.00    -0.331 N 
ATOM     11  C   UNL     1      33.054  -7.640 -23.083  0.00  0.00    +0.114 C 
ATOM     12  C   UNL     1      33.410  -6.670 -21.947  0.00  0.00    +0.112 C 
ATOM     13  C   UNL     1      34.357  -8.118 -23.752  0.00  0.00    +0.029 C 
ATOM     14  C   UNL     1      32.158  -6.039 -21.393  0.00  0.00    +0.234 C 
ATOM     15  C   UNL     1      31.465  -5.978 -23.750  0.00  0.00    +0.184 C 
ATOM     16  C   UNL     1      30.094  -4.861 -22.000  0.00  0.00    +0.123 C 
ATOM     17  H   UNL     1      30.851  -5.552 -25.663  0.00  0.00    +0.145 HD
ATOM     18  H   UNL     1      30.059  -4.654 -24.449  0.00  0.00    +0.145 HD
ENDBRANCH   1  11
BRANCH   4  19
ATOM     19  C   UNL     1      32.816 -12.567 -22.258  0.00  0.00    +0.003 C 
ATOM     20  C   UNL     1      32.939 -13.243 -23.471  0.00  0.00    +0.037 C 
ATOM     21  C   UNL     1      33.302 -13.144 -21.084  0.00  0.00    +0.000 C 
ATOM     22  C   UNL     1      33.547 -14.498 -23.512  0.00  0.00    +0.139 C 
ATOM     23  C   UNL     1      33.909 -14.399 -21.125  0.00  0.00    +0.003 C 
ATOM     24  C   UNL     1      34.031 -15.076 -22.338  0.00  0.00    +0.037 C 
BRANCH  22  25
ATOM     25  O   UNL     1      33.667 -15.160 -24.695  0.00  0.00    -0.471 OA
ATOM     26  C   UNL     1      33.783 -16.581 -24.636  0.00  0.00    +0.252 C 
ENDBRANCH  22  25
ENDBRANCH   4  19
TORSDOF 3
ENDMDL
MODEL 6
REMARK VINA RESULT:     -10.2      1.900      3.279
REMARK  Name = 17749735
REMARK  3 active torsions:
REMARK  status: ('A' for Active; 'I' for Inactive)
REMARK    1  A    between atoms: C_1  and  C_11
REMARK    2  A    between atoms: C_4  and  C_19
REMARK    3  A    between atoms: C_22  and  O_25
REMARK                            x       y       z     vdW  Elec       q    Type
REMARK                         _______ _______ _______ _____ _____    ______ ____
ROOT
ATOM      1  C   UNL     1      34.357 -23.475 -13.433  0.00  0.00    -0.002 C 
ATOM      2  C   UNL     1      34.641 -22.933 -14.686  0.00  0.00    -0.002 C 
ATOM      3  C   UNL     1      33.056 -23.874 -13.125  0.00  0.00    -0.002 C 
ATOM      4  C   UNL     1      33.625 -22.791 -15.632  0.00  0.00    -0.000 C 
ATOM      5  C   UNL     1      32.041 -23.733 -14.071  0.00  0.00    -0.000 C 
ATOM      6  C   UNL     1      32.325 -23.191 -15.324  0.00  0.00    -0.000 C 
ENDROOT
BRANCH   1  11
ATOM      7  O   UNL     1      37.927 -22.890 -14.862  0.00  0.00    -0.274 OA
ATOM      8  N   UNL     1      35.818 -25.038 -12.116  0.00  0.00    -0.243 NA
ATOM      9  N   UNL     1      37.379 -24.958 -13.899  0.00  0.00    -0.231 N 
ATOM     10  N   UNL     1      36.929 -26.978 -12.686  0.00  0.00    -0.331 N 
ATOM     11  C   UNL     1      35.475 -23.630 -12.390  0.00  0.00    +0.114 C 
ATOM     12  C   UNL     1      36.772 -22.901 -12.772  0.00  0.00    +0.112 C 
ATOM     13  C   UNL     1      34.961 -23.059 -11.054  0.00  0.00    +0.029 C 
ATOM     14  C   UNL     1      37.402 -23.558 -13.974  0.00  0.00    +0.234 C 
ATOM     15  C   UNL     1      36.684 -25.638 -12.878  0.00  0.00    +0.184 C 
ATOM     16  C   UNL     1      38.118 -25.709 -14.910  0.00  0.00    +0.123 C 
ATOM     17  H   UNL     1      36.452 -27.470 -11.979  0.00  0.00    +0.145 HD
ATOM     18  H   UNL     1      37.582 -27.446 -13.256  0.00  0.00    +0.145 HD
ENDBRANCH   1  11
BRANCH   4  19
ATOM     19  C   UNL     1      33.920 -22.230 -16.932  0.00  0.00    +0.003 C 
ATOM     20  C   UNL     1      32.893 -22.029 -17.854  0.00  0.00    +0.037 C 
ATOM     21  C   UNL     1      35.231 -21.886 -17.263  0.00  0.00    +0.000 C 
ATOM     22  C   UNL     1      33.176 -21.486 -19.107  0.00  0.00    +0.139 C 
ATOM     23  C   UNL     1      35.514 -21.343 -18.516  0.00  0.00    +0.003 C 
ATOM     24  C   UNL     1      34.487 -21.143 -19.438  0.00  0.00    +0.037 C 
BRANCH  22  25
ATOM     25  O   UNL     1      32.174 -21.290 -20.008  0.00  0.00    -0.471 OA
ATOM     26  C   UNL     1      32.077 -19.996 -20.600  0.00  0.00    +0.252 C 
ENDBRANCH  22  25
ENDBRANCH   4  19
TORSDOF 3
ENDMDL
MODEL 7
REMARK VINA RESULT:     -10.1     11.459     15.454
REMARK  Name = 17749735
REMARK  3 active torsions:
REMARK  status: ('A' for Active; 'I' for Inactive)
REMARK    1  A    between atoms: C_1  and  C_11
REMARK    2  A    between atoms: C_4  and  C_19
REMARK    3  A    between atoms: C_22  and  O_25
REMARK                            x       y       z     vdW  Elec       q    Type
REMARK                         _______ _______ _______ _____ _____    ______ ____
ROOT
ATOM      1  C   UNL     1      31.422  -9.005 -22.458  0.00  0.00    -0.002 C 
ATOM      2  C   UNL     1      32.030 -10.194 -22.858  0.00  0.00    -0.002 C 
ATOM      3  C   UNL     1      30.796  -8.926 -21.214  0.00  0.00    -0.002 C 
ATOM      4  C   UNL     1      32.013 -11.306 -22.014  0.00  0.00    -0.000 C 
ATOM      5  C   UNL     1      30.779 -10.036 -20.370  0.00  0.00    -0.000 C 
ATOM      6  C   UNL     1      31.387 -11.226 -20.770  0.00  0.00    -0.000 C 
ENDROOT
BRANCH   1  11
ATOM      7  O   UNL     1      34.242  -6.453 -21.640  0.00  0.00    -0.274 OA
ATOM      8  N   UNL     1      30.426  -6.770 -23.033  0.00  0.00    -0.243 NA
ATOM      9  N   UNL     1      31.996  -5.777 -21.561  0.00  0.00    -0.231 N 
ATOM     10  N   UNL     1      29.735  -4.995 -21.731  0.00  0.00    -0.331 N 
ATOM     11  C   UNL     1      31.440  -7.781 -23.388  0.00  0.00    +0.114 C 
ATOM     12  C   UNL     1      32.802  -7.075 -23.441  0.00  0.00    +0.112 C 
ATOM     13  C   UNL     1      31.073  -8.258 -24.806  0.00  0.00    +0.029 C 
ATOM     14  C   UNL     1      33.106  -6.433 -22.111  0.00  0.00    +0.234 C 
ATOM     15  C   UNL     1      30.712  -5.875 -22.135  0.00  0.00    +0.184 C 
ATOM     16  C   UNL     1      32.206  -4.963 -20.366  0.00  0.00    +0.123 C 
ATOM     17  H   UNL     1      28.833  -5.049 -22.121  0.00  0.00    +0.145 HD
ATOM     18  H   UNL     1      29.938  -4.311 -21.053  0.00  0.00    +0.145 HD
ENDBRANCH   1  11
BRANCH   4  19
ATOM     19  C   UNL     1      32.644 -12.539 -22.429  0.00  0.00    +0.003 C 
ATOM     20  C   UNL     1      33.223 -13.380 -21.478  0.00  0.00    +0.037 C 
ATOM     21  C   UNL     1      32.670 -12.890 -23.779  0.00  0.00    +0.000 C 
ATOM     22  C   UNL     1      33.829 -14.571 -21.877  0.00  0.00    +0.139 C 
ATOM     23  C   UNL     1      33.276 -14.081 -24.177  0.00  0.00    +0.003 C 
ATOM     24  C   UNL     1      33.856 -14.921 -23.227  0.00  0.00    +0.037 C 
BRANCH  22  25
ATOM     25  O   UNL     1      34.395 -15.391 -20.950  0.00  0.00    -0.471 OA
ATOM     26  C   UNL     1      34.786 -16.692 -21.387  0.00  0.00    +0.252 C 
ENDBRANCH  22  25
ENDBRANCH   4  19
TORSDOF 3
ENDMDL
MODEL 8
REMARK VINA RESULT:     -10.1      3.423      5.025
REMARK  Name = 17749735
REMARK  3 active torsions:
REMARK  status: ('A' for Active; 'I' for Inactive)
REMARK    1  A    between atoms: C_1  and  C_11
REMARK    2  A    between atoms: C_4  and  C_19
REMARK    3  A    between atoms: C_22  and  O_25
REMARK                            x       y       z     vdW  Elec       q    Type
REMARK                         _______ _______ _______ _____ _____    ______ ____
ROOT
ATOM      1  C   UNL     1      34.978 -23.175 -14.172  0.00  0.00    -0.002 C 
ATOM      2  C   UNL     1      33.599 -23.378 -14.128  0.00  0.00    -0.002 C 
ATOM      3  C   UNL     1      35.572 -22.670 -15.329  0.00  0.00    -0.002 C 
ATOM      4  C   UNL     1      32.813 -23.076 -15.241  0.00  0.00    -0.000 C 
ATOM      5  C   UNL     1      34.786 -22.367 -16.442  0.00  0.00    -0.000 C 
ATOM      6  C   UNL     1      33.407 -22.570 -16.397  0.00  0.00    -0.000 C 
ENDROOT
BRANCH   1  11
ATOM      7  O   UNL     1      38.788 -23.335 -14.940  0.00  0.00    -0.274 OA
ATOM      8  N   UNL     1      35.852 -24.947 -12.620  0.00  0.00    -0.243 NA
ATOM      9  N   UNL     1      37.687 -25.227 -14.095  0.00  0.00    -0.231 N 
ATOM     10  N   UNL     1      36.646 -27.082 -12.988  0.00  0.00    -0.331 N 
ATOM     11  C   UNL     1      35.844 -23.509 -12.947  0.00  0.00    +0.114 C 
ATOM     12  C   UNL     1      37.304 -23.056 -13.090  0.00  0.00    +0.112 C 
ATOM     13  C   UNL     1      35.225 -22.807 -11.723  0.00  0.00    +0.029 C 
ATOM     14  C   UNL     1      37.995 -23.860 -14.162  0.00  0.00    +0.234 C 
ATOM     15  C   UNL     1      36.704 -25.727 -13.217  0.00  0.00    +0.184 C 
ATOM     16  C   UNL     1      38.431 -26.138 -14.961  0.00  0.00    +0.123 C 
ATOM     17  H   UNL     1      35.966 -27.449 -12.378  0.00  0.00    +0.145 HD
ATOM     18  H   UNL     1      37.285 -27.685 -13.433  0.00  0.00    +0.145 HD
ENDBRANCH   1  11
BRANCH   4  19
ATOM     19  C   UNL     1      31.382 -23.285 -15.196  0.00  0.00    +0.003 C 
ATOM     20  C   UNL     1      30.544 -22.555 -16.037  0.00  0.00    +0.037 C 
ATOM     21  C   UNL     1      30.842 -24.221 -14.314  0.00  0.00    +0.000 C 
ATOM     22  C   UNL     1      29.164 -22.758 -15.996  0.00  0.00    +0.139 C 
ATOM     23  C   UNL     1      29.463 -24.425 -14.272  0.00  0.00    +0.003 C 
ATOM     24  C   UNL     1      28.625 -23.693 -15.112  0.00  0.00    +0.037 C 
BRANCH  22  25
ATOM     25  O   UNL     1      28.345 -22.045 -16.816  0.00  0.00    -0.471 OA
ATOM     26  C   UNL     1      26.955 -22.034 -16.494  0.00  0.00    +0.252 C 
ENDBRANCH  22  25
ENDBRANCH   4  19
TORSDOF 3
ENDMDL
MODEL 9
REMARK VINA RESULT:     -10.1      4.301      7.165
REMARK  Name = 17749735
REMARK  3 active torsions:
REMARK  status: ('A' for Active; 'I' for Inactive)
REMARK    1  A    between atoms: C_1  and  C_11
REMARK    2  A    between atoms: C_4  and  C_19
REMARK    3  A    between atoms: C_22  and  O_25
REMARK                            x       y       z     vdW  Elec       q    Type
REMARK                         _______ _______ _______ _____ _____    ______ ____
ROOT
ATOM      1  C   UNL     1      31.683 -22.750 -15.209  0.00  0.00    -0.002 C 
ATOM      2  C   UNL     1      33.022 -22.978 -14.893  0.00  0.00    -0.002 C 
ATOM      3  C   UNL     1      31.322 -22.410 -16.513  0.00  0.00    -0.002 C 
ATOM      4  C   UNL     1      34.001 -22.867 -15.881  0.00  0.00    -0.000 C 
ATOM      5  C   UNL     1      32.301 -22.299 -17.501  0.00  0.00    -0.000 C 
ATOM      6  C   UNL     1      33.640 -22.527 -17.184  0.00  0.00    -0.000 C 
ENDROOT
BRANCH   1  11
ATOM      7  O   UNL     1      29.527 -25.976 -15.489  0.00  0.00    -0.274 OA
ATOM      8  N   UNL     1      29.409 -22.052 -14.397  0.00  0.00    -0.243 NA
ATOM      9  N   UNL     1      28.499 -23.870 -15.616  0.00  0.00    -0.231 N 
ATOM     10  N   UNL     1      27.397 -21.744 -15.484  0.00  0.00    -0.331 N 
ATOM     11  C   UNL     1      30.604 -22.871 -14.121  0.00  0.00    +0.114 C 
ATOM     12  C   UNL     1      30.135 -24.314 -13.885  0.00  0.00    +0.112 C 
ATOM     13  C   UNL     1      31.192 -22.321 -12.807  0.00  0.00    +0.029 C 
ATOM     14  C   UNL     1      29.387 -24.820 -15.092  0.00  0.00    +0.234 C 
ATOM     15  C   UNL     1      28.465 -22.542 -15.143  0.00  0.00    +0.184 C 
ATOM     16  C   UNL     1      27.585 -24.298 -16.673  0.00  0.00    +0.123 C 
ATOM     17  H   UNL     1      27.357 -20.814 -15.163  0.00  0.00    +0.145 HD
ATOM     18  H   UNL     1      26.675 -22.102 -16.048  0.00  0.00    +0.145 HD
ENDBRANCH   1  11
BRANCH   4  19
ATOM     19  C   UNL     1      35.390 -23.103 -15.553  0.00  0.00    +0.003 C 
ATOM     20  C   UNL     1      35.745 -24.206 -14.776  0.00  0.00    +0.037 C 
ATOM     21  C   UNL     1      36.375 -22.231 -16.018  0.00  0.00    +0.000 C 
ATOM     22  C   UNL     1      37.084 -24.436 -14.462  0.00  0.00    +0.139 C 
ATOM     23  C   UNL     1      37.714 -22.461 -15.704  0.00  0.00    +0.003 C 
ATOM     24  C   UNL     1      38.068 -23.563 -14.926  0.00  0.00    +0.037 C 
BRANCH  22  25
ATOM     25  O   UNL     1      37.431 -25.511 -13.703  0.00  0.00    -0.471 OA
ATOM     26  C   UNL     1      36.825 -25.619 -12.415  0.00  0.00    +0.252 C 
ENDBRANCH  22  25
ENDBRANCH   4  19
TORSDOF 3
ENDMDL
