MODEL 1
REMARK VINA RESULT:     -12.2      0.000      0.000
REMARK  Name = 71616860
REMARK  5 active torsions:
REMARK  status: ('A' for Active; 'I' for Inactive)
REMARK    1  A    between atoms: C_10  and  C_17
REMARK    2  A    between atoms: C_15  and  O_21
REMARK    3  A    between atoms: C_16  and  C_18
REMARK    4  A    between atoms: O_21  and  C_22
REMARK    5  A    between atoms: C_22  and  C_25
REMARK                            x       y       z     vdW  Elec       q    Type
REMARK                         _______ _______ _______ _____ _____    ______ ____
ROOT
ATOM      1  O   UNL     1      37.078 -24.058 -13.379  0.00  0.00    -0.193 OA
ATOM      2  N   UNL     1      35.934 -23.097 -15.147  0.00  0.00    -0.205 N 
ATOM      3  N   UNL     1      34.814 -24.182 -13.321  0.00  0.00    -0.284 NA
ATOM      4  C   UNL     1      37.049 -21.339 -16.495  0.00  0.00    +0.049 C 
ATOM      5  C   UNL     1      35.877 -21.371 -17.436  0.00  0.00    -0.019 C 
ATOM      6  C   UNL     1      37.180 -22.689 -15.804  0.00  0.00    +0.114 C 
ATOM      7  C   UNL     1      34.731 -22.117 -17.088  0.00  0.00    +0.011 C 
ATOM      8  C   UNL     1      34.716 -22.846 -15.788  0.00  0.00    +0.068 C 
ATOM      9  C   UNL     1      35.915 -20.641 -18.632  0.00  0.00    +0.004 C 
ATOM     10  C   UNL     1      34.836 -20.674 -19.511  0.00  0.00    +0.041 C 
ATOM     11  C   UNL     1      33.661 -22.150 -17.997  0.00  0.00    +0.002 C 
ATOM     12  C   UNL     1      33.565 -23.223 -15.209  0.00  0.00    +0.088 C 
ATOM     13  C   UNL     1      33.714 -21.433 -19.196  0.00  0.00    +0.008 C 
ATOM     14  C   UNL     1      36.000 -23.794 -13.917  0.00  0.00    +0.275 C 
ATOM     15  C   UNL     1      33.712 -23.912 -13.927  0.00  0.00    +0.291 C 
ENDROOT
BRANCH  10  17
ATOM     16  C   UNL     1      34.921 -19.312 -21.758  0.00  0.00    -0.087 C 
ATOM     17  C   UNL     1      34.883 -19.934 -20.732  0.00  0.00    -0.064 C 
BRANCH  16  18
ATOM     18  C   UNL     1      34.965 -18.564 -22.988  0.00  0.00    +0.065 C 
ATOM     19  C   UNL     1      34.416 -17.167 -22.999  0.00  0.00    +0.014 C 
ATOM     20  C   UNL     1      33.673 -18.268 -23.695  0.00  0.00    +0.014 C 
ENDBRANCH  16  18
ENDBRANCH  10  17
BRANCH  15  21
ATOM     21  O   UNL     1      32.529 -24.272 -13.380  0.00  0.00    -0.448 OA
BRANCH  21  22
ATOM     22  C   UNL     1      31.737 -23.173 -12.953  0.00  0.00    +0.240 C 
BRANCH  22  25
ATOM     23  O   UNL     1      30.121 -22.497 -14.584  0.00  0.00    -0.347 OA
ATOM     24  O   UNL     1      28.731 -24.929 -14.396  0.00  0.00    -0.348 OA
ATOM     25  C   UNL     1      30.315 -23.362 -13.458  0.00  0.00    +0.188 C 
ATOM     26  C   UNL     1      30.060 -24.807 -13.883  0.00  0.00    +0.175 C 
ATOM     27  C   UNL     1      28.794 -22.623 -15.100  0.00  0.00    +0.174 C 
ATOM     28  C   UNL     1      28.541 -24.062 -15.517  0.00  0.00    +0.174 C 
ENDBRANCH  22  25
ENDBRANCH  21  22
ENDBRANCH  15  21
TORSDOF 5
ENDMDL
MODEL 2
REMARK VINA RESULT:     -11.3      1.891      5.276
REMARK  Name = 71616860
REMARK  5 active torsions:
REMARK  status: ('A' for Active; 'I' for Inactive)
REMARK    1  A    between atoms: C_10  and  C_17
REMARK    2  A    between atoms: C_15  and  O_21
REMARK    3  A    between atoms: C_16  and  C_18
REMARK    4  A    between atoms: O_21  and  C_22
REMARK    5  A    between atoms: C_22  and  C_25
REMARK                            x       y       z     vdW  Elec       q    Type
REMARK                         _______ _______ _______ _____ _____    ______ ____
ROOT
ATOM      1  O   UNL     1      31.212 -23.792 -13.260  0.00  0.00    -0.193 OA
ATOM      2  N   UNL     1      32.629 -23.071 -14.943  0.00  0.00    -0.205 N 
ATOM      3  N   UNL     1      33.411 -24.296 -13.032  0.00  0.00    -0.284 NA
ATOM      4  C   UNL     1      31.690 -22.586 -17.188  0.00  0.00    +0.049 C 
ATOM      5  C   UNL     1      33.037 -22.056 -17.593  0.00  0.00    -0.019 C 
ATOM      6  C   UNL     1      31.525 -22.446 -15.680  0.00  0.00    +0.114 C 
ATOM      7  C   UNL     1      34.138 -22.230 -16.729  0.00  0.00    +0.011 C 
ATOM      8  C   UNL     1      33.931 -22.945 -15.437  0.00  0.00    +0.068 C 
ATOM      9  C   UNL     1      33.199 -21.423 -18.834  0.00  0.00    +0.004 C 
ATOM     10  C   UNL     1      34.441 -20.924 -19.212  0.00  0.00    +0.041 C 
ATOM     11  C   UNL     1      35.379 -21.702 -17.123  0.00  0.00    +0.002 C 
ATOM     12  C   UNL     1      34.956 -23.498 -14.771  0.00  0.00    +0.088 C 
ATOM     13  C   UNL     1      35.528 -21.057 -18.354  0.00  0.00    +0.008 C 
ATOM     14  C   UNL     1      32.355 -23.725 -13.718  0.00  0.00    +0.275 C 
ATOM     15  C   UNL     1      34.593 -24.181 -13.529  0.00  0.00    +0.291 C 
ENDROOT
BRANCH  10  17
ATOM     16  C   UNL     1      34.730 -19.724 -21.533  0.00  0.00    -0.087 C 
ATOM     17  C   UNL     1      34.599 -20.272 -20.473  0.00  0.00    -0.064 C 
BRANCH  16  18
ATOM     18  C   UNL     1      34.885 -19.066 -22.805  0.00  0.00    +0.065 C 
ATOM     19  C   UNL     1      34.560 -17.603 -22.901  0.00  0.00    +0.014 C 
ATOM     20  C   UNL     1      33.652 -18.614 -23.535  0.00  0.00    +0.014 C 
ENDBRANCH  16  18
ENDBRANCH  10  17
BRANCH  15  21
ATOM     21  O   UNL     1      35.654 -24.724 -12.892  0.00  0.00    -0.448 OA
BRANCH  21  22
ATOM     22  C   UNL     1      36.804 -23.890 -12.879  0.00  0.00    +0.240 C 
BRANCH  22  25
ATOM     23  O   UNL     1      39.143 -23.988 -13.372  0.00  0.00    -0.347 OA
ATOM     24  O   UNL     1      38.926 -26.551 -14.496  0.00  0.00    -0.348 OA
ATOM     25  C   UNL     1      37.868 -24.500 -13.778  0.00  0.00    +0.188 C 
ATOM     26  C   UNL     1      37.881 -26.024 -13.675  0.00  0.00    +0.175 C 
ATOM     27  C   UNL     1      40.189 -24.520 -14.189  0.00  0.00    +0.174 C 
ATOM     28  C   UNL     1      40.196 -26.036 -14.089  0.00  0.00    +0.174 C 
ENDBRANCH  22  25
ENDBRANCH  21  22
ENDBRANCH  15  21
TORSDOF 5
ENDMDL
MODEL 3
REMARK VINA RESULT:     -10.7      2.512      4.883
REMARK  Name = 71616860
REMARK  5 active torsions:
REMARK  status: ('A' for Active; 'I' for Inactive)
REMARK    1  A    between atoms: C_10  and  C_17
REMARK    2  A    between atoms: C_15  and  O_21
REMARK    3  A    between atoms: C_16  and  C_18
REMARK    4  A    between atoms: O_21  and  C_22
REMARK    5  A    between atoms: C_22  and  C_25
REMARK                            x       y       z     vdW  Elec       q    Type
REMARK                         _______ _______ _______ _____ _____    ______ ____
ROOT
ATOM      1  O   UNL     1      33.344 -23.663 -15.260  0.00  0.00    -0.193 OA
ATOM      2  N   UNL     1      34.259 -22.341 -16.924  0.00  0.00    -0.205 N 
ATOM      3  N   UNL     1      35.589 -23.350 -15.199  0.00  0.00    -0.284 NA
ATOM      4  C   UNL     1      33.019 -22.045 -19.052  0.00  0.00    +0.049 C 
ATOM      5  C   UNL     1      34.048 -21.031 -19.466  0.00  0.00    -0.019 C 
ATOM      6  C   UNL     1      32.946 -22.100 -17.532  0.00  0.00    +0.114 C 
ATOM      7  C   UNL     1      35.209 -20.863 -18.683  0.00  0.00    +0.011 C 
ATOM      8  C   UNL     1      35.383 -21.709 -17.467  0.00  0.00    +0.068 C 
ATOM      9  C   UNL     1      33.865 -20.282 -20.638  0.00  0.00    +0.004 C 
ATOM     10  C   UNL     1      34.811 -19.336 -21.021  0.00  0.00    +0.041 C 
ATOM     11  C   UNL     1      36.141 -19.891 -19.079  0.00  0.00    +0.002 C 
ATOM     12  C   UNL     1      36.591 -21.905 -16.918  0.00  0.00    +0.088 C 
ATOM     13  C   UNL     1      35.943 -19.136 -20.239  0.00  0.00    +0.008 C 
ATOM     14  C   UNL     1      34.344 -23.148 -15.765  0.00  0.00    +0.275 C 
ATOM     15  C   UNL     1      36.604 -22.774 -15.741  0.00  0.00    +0.291 C 
ENDROOT
BRANCH  10  17
ATOM     16  C   UNL     1      34.453 -17.927 -23.212  0.00  0.00    -0.087 C 
ATOM     17  C   UNL     1      34.616 -18.570 -22.211  0.00  0.00    -0.064 C 
BRANCH  16  18
ATOM     18  C   UNL     1      34.259 -17.158 -24.414  0.00  0.00    +0.065 C 
ATOM     19  C   UNL     1      34.171 -15.663 -24.303  0.00  0.00    +0.014 C 
ATOM     20  C   UNL     1      32.942 -16.463 -24.617  0.00  0.00    +0.014 C 
ENDBRANCH  16  18
ENDBRANCH  10  17
BRANCH  15  21
ATOM     21  O   UNL     1      37.841 -22.945 -15.221  0.00  0.00    -0.448 OA
BRANCH  21  22
ATOM     22  C   UNL     1      38.055 -24.234 -14.665  0.00  0.00    +0.240 C 
BRANCH  22  25
ATOM     23  O   UNL     1      37.451 -22.838 -12.818  0.00  0.00    -0.347 OA
ATOM     24  O   UNL     1      36.813 -25.043 -11.201  0.00  0.00    -0.348 OA
ATOM     25  C   UNL     1      37.924 -24.149 -13.153  0.00  0.00    +0.188 C 
ATOM     26  C   UNL     1      36.944 -25.190 -12.618  0.00  0.00    +0.175 C 
ATOM     27  C   UNL     1      37.315 -22.693 -11.402  0.00  0.00    +0.174 C 
ATOM     28  C   UNL     1      36.344 -23.733 -10.871  0.00  0.00    +0.174 C 
ENDBRANCH  22  25
ENDBRANCH  21  22
ENDBRANCH  15  21
TORSDOF 5
ENDMDL
MODEL 4
REMARK VINA RESULT:     -10.1      9.462     13.703
REMARK  Name = 71616860
REMARK  5 active torsions:
REMARK  status: ('A' for Active; 'I' for Inactive)
REMARK    1  A    between atoms: C_10  and  C_17
REMARK    2  A    between atoms: C_15  and  O_21
REMARK    3  A    between atoms: C_16  and  C_18
REMARK    4  A    between atoms: O_21  and  C_22
REMARK    5  A    between atoms: C_22  and  C_25
REMARK                            x       y       z     vdW  Elec       q    Type
REMARK                         _______ _______ _______ _____ _____    ______ ____
ROOT
ATOM      1  O   UNL     1      31.766 -13.777 -19.859  0.00  0.00    -0.193 OA
ATOM      2  N   UNL     1      32.005 -11.950 -21.260  0.00  0.00    -0.205 N 
ATOM      3  N   UNL     1      33.067 -14.059 -21.695  0.00  0.00    -0.284 NA
ATOM      4  C   UNL     1      30.289 -10.160 -21.213  0.00  0.00    +0.049 C 
ATOM      5  C   UNL     1      31.160  -9.355 -22.138  0.00  0.00    -0.019 C 
ATOM      6  C   UNL     1      31.157 -11.113 -20.404  0.00  0.00    +0.114 C 
ATOM      7  C   UNL     1      32.299  -9.955 -22.712  0.00  0.00    +0.011 C 
ATOM      8  C   UNL     1      32.601 -11.379 -22.389  0.00  0.00    +0.068 C 
ATOM      9  C   UNL     1      30.820  -8.030 -22.447  0.00  0.00    +0.004 C 
ATOM     10  C   UNL     1      31.627  -7.278 -23.295  0.00  0.00    +0.041 C 
ATOM     11  C   UNL     1      33.108  -9.172 -23.552  0.00  0.00    +0.002 C 
ATOM     12  C   UNL     1      33.390 -12.124 -23.178  0.00  0.00    +0.088 C 
ATOM     13  C   UNL     1      32.773  -7.846 -23.841  0.00  0.00    +0.008 C 
ATOM     14  C   UNL     1      32.253 -13.292 -20.882  0.00  0.00    +0.275 C 
ATOM     15  C   UNL     1      33.577 -13.507 -22.740  0.00  0.00    +0.291 C 
ENDROOT
BRANCH  10  17
ATOM     16  C   UNL     1      30.994  -4.789 -23.858  0.00  0.00    -0.087 C 
ATOM     17  C   UNL     1      31.282  -5.925 -23.601  0.00  0.00    -0.064 C 
BRANCH  16  18
ATOM     18  C   UNL     1      30.650  -3.425 -24.166  0.00  0.00    +0.065 C 
ATOM     19  C   UNL     1      31.758  -2.447 -24.435  0.00  0.00    +0.014 C 
ATOM     20  C   UNL     1      30.973  -2.357 -23.160  0.00  0.00    +0.014 C 
ENDBRANCH  16  18
ENDBRANCH  10  17
BRANCH  15  21
ATOM     21  O   UNL     1      34.377 -14.221 -23.563  0.00  0.00    -0.448 OA
BRANCH  21  22
ATOM     22  C   UNL     1      33.689 -15.207 -24.319  0.00  0.00    +0.240 C 
BRANCH  22  25
ATOM     23  O   UNL     1      34.672 -16.614 -22.652  0.00  0.00    -0.347 OA
ATOM     24  O   UNL     1      33.930 -18.955 -24.013  0.00  0.00    -0.348 OA
ATOM     25  C   UNL     1      34.307 -16.567 -24.037  0.00  0.00    +0.188 C 
ATOM     26  C   UNL     1      33.327 -17.699 -24.339  0.00  0.00    +0.175 C 
ATOM     27  C   UNL     1      35.269 -17.872 -22.326  0.00  0.00    +0.174 C 
ATOM     28  C   UNL     1      34.295 -18.996 -22.632  0.00  0.00    +0.174 C 
ENDBRANCH  22  25
ENDBRANCH  21  22
ENDBRANCH  15  21
TORSDOF 5
ENDMDL
MODEL 5
REMARK VINA RESULT:      -9.8      1.873      4.493
REMARK  Name = 71616860
REMARK  5 active torsions:
REMARK  status: ('A' for Active; 'I' for Inactive)
REMARK    1  A    between atoms: C_10  and  C_17
REMARK    2  A    between atoms: C_15  and  O_21
REMARK    3  A    between atoms: C_16  and  C_18
REMARK    4  A    between atoms: O_21  and  C_22
REMARK    5  A    between atoms: C_22  and  C_25
REMARK                            x       y       z     vdW  Elec       q    Type
REMARK                         _______ _______ _______ _____ _____    ______ ____
ROOT
ATOM      1  O   UNL     1      31.410 -23.739 -14.189  0.00  0.00    -0.193 OA
ATOM      2  N   UNL     1      32.757 -22.926 -15.887  0.00  0.00    -0.205 N 
ATOM      3  N   UNL     1      33.540 -24.513 -14.264  0.00  0.00    -0.284 NA
ATOM      4  C   UNL     1      31.698 -21.996 -17.929  0.00  0.00    +0.049 C 
ATOM      5  C   UNL     1      33.061 -21.562 -18.390  0.00  0.00    -0.019 C 
ATOM      6  C   UNL     1      31.681 -22.076 -16.408  0.00  0.00    +0.114 C 
ATOM      7  C   UNL     1      34.202 -21.989 -17.679  0.00  0.00    +0.011 C 
ATOM      8  C   UNL     1      34.018 -22.869 -16.490  0.00  0.00    +0.068 C 
ATOM      9  C   UNL     1      33.194 -20.765 -19.537  0.00  0.00    +0.004 C 
ATOM     10  C   UNL     1      34.453 -20.354 -19.965  0.00  0.00    +0.041 C 
ATOM     11  C   UNL     1      35.460 -21.548 -18.119  0.00  0.00    +0.002 C 
ATOM     12  C   UNL     1      35.019 -23.630 -16.020  0.00  0.00    +0.088 C 
ATOM     13  C   UNL     1      35.583 -20.739 -19.252  0.00  0.00    +0.008 C 
ATOM     14  C   UNL     1      32.510 -23.729 -14.748  0.00  0.00    +0.275 C 
ATOM     15  C   UNL     1      34.680 -24.454 -14.860  0.00  0.00    +0.291 C 
ENDROOT
BRANCH  10  17
ATOM     16  C   UNL     1      34.690 -18.846 -22.105  0.00  0.00    -0.087 C 
ATOM     17  C   UNL     1      34.582 -19.535 -21.128  0.00  0.00    -0.064 C 
BRANCH  16  18
ATOM     18  C   UNL     1      34.819 -18.018 -23.277  0.00  0.00    +0.065 C 
ATOM     19  C   UNL     1      34.253 -16.628 -23.239  0.00  0.00    +0.014 C 
ATOM     20  C   UNL     1      33.582 -17.687 -24.062  0.00  0.00    +0.014 C 
ENDBRANCH  16  18
ENDBRANCH  10  17
BRANCH  15  21
ATOM     21  O   UNL     1      35.716 -25.204 -14.421  0.00  0.00    -0.448 OA
BRANCH  21  22
ATOM     22  C   UNL     1      36.714 -24.460 -13.738  0.00  0.00    +0.240 C 
BRANCH  22  25
ATOM     23  O   UNL     1      35.625 -24.862 -11.645  0.00  0.00    -0.347 OA
ATOM     24  O   UNL     1      36.503 -22.418 -10.578  0.00  0.00    -0.348 OA
ATOM     25  C   UNL     1      36.096 -23.817 -12.506  0.00  0.00    +0.188 C 
ATOM     26  C   UNL     1      37.111 -22.962 -11.752  0.00  0.00    +0.175 C 
ATOM     27  C   UNL     1      35.022 -24.318 -10.468  0.00  0.00    +0.174 C 
ATOM     28  C   UNL     1      36.033 -23.463  -9.723  0.00  0.00    +0.174 C 
ENDBRANCH  22  25
ENDBRANCH  21  22
ENDBRANCH  15  21
TORSDOF 5
ENDMDL
MODEL 6
REMARK VINA RESULT:      -9.8      4.442      9.310
REMARK  Name = 71616860
REMARK  5 active torsions:
REMARK  status: ('A' for Active; 'I' for Inactive)
REMARK    1  A    between atoms: C_10  and  C_17
REMARK    2  A    between atoms: C_15  and  O_21
REMARK    3  A    between atoms: C_16  and  C_18
REMARK    4  A    between atoms: O_21  and  C_22
REMARK    5  A    between atoms: C_22  and  C_25
REMARK                            x       y       z     vdW  Elec       q    Type
REMARK                         _______ _______ _______ _____ _____    ______ ____
ROOT
ATOM      1  O   UNL     1      31.603 -20.712 -20.799  0.00  0.00    -0.193 OA
ATOM      2  N   UNL     1      33.381 -21.035 -19.353  0.00  0.00    -0.205 N 
ATOM      3  N   UNL     1      33.472 -19.488 -21.188  0.00  0.00    -0.284 NA
ATOM      4  C   UNL     1      32.948 -21.962 -17.093  0.00  0.00    +0.049 C 
ATOM      5  C   UNL     1      34.435 -22.039 -16.883  0.00  0.00    -0.019 C 
ATOM      6  C   UNL     1      32.644 -22.043 -18.583  0.00  0.00    +0.114 C 
ATOM      7  C   UNL     1      35.299 -21.448 -17.828  0.00  0.00    +0.011 C 
ATOM      8  C   UNL     1      34.707 -20.754 -19.007  0.00  0.00    +0.068 C 
ATOM      9  C   UNL     1      34.952 -22.667 -15.741  0.00  0.00    +0.004 C 
ATOM     10  C   UNL     1      36.327 -22.749 -15.545  0.00  0.00    +0.041 C 
ATOM     11  C   UNL     1      36.684 -21.557 -17.619  0.00  0.00    +0.002 C 
ATOM     12  C   UNL     1      35.403 -19.845 -19.707  0.00  0.00    +0.088 C 
ATOM     13  C   UNL     1      37.192 -22.200 -16.486  0.00  0.00    +0.008 C 
ATOM     14  C   UNL     1      32.755 -20.425 -20.467  0.00  0.00    +0.275 C 
ATOM     15  C   UNL     1      34.681 -19.236 -20.825  0.00  0.00    +0.291 C 
ENDROOT
BRANCH  10  17
ATOM     16  C   UNL     1      37.285 -23.943 -13.408  0.00  0.00    -0.087 C 
ATOM     17  C   UNL     1      36.849 -23.397 -14.384  0.00  0.00    -0.064 C 
BRANCH  16  18
ATOM     18  C   UNL     1      37.808 -24.598 -12.236  0.00  0.00    +0.065 C 
ATOM     19  C   UNL     1      37.157 -25.870 -11.775  0.00  0.00    +0.014 C 
ATOM     20  C   UNL     1      36.974 -24.607 -10.987  0.00  0.00    +0.014 C 
ENDBRANCH  16  18
ENDBRANCH  10  17
BRANCH  15  21
ATOM     21  O   UNL     1      35.418 -18.326 -21.500  0.00  0.00    -0.448 OA
BRANCH  21  22
ATOM     22  C   UNL     1      34.696 -17.641 -22.513  0.00  0.00    +0.240 C 
BRANCH  22  25
ATOM     23  O   UNL     1      33.938 -15.482 -23.212  0.00  0.00    -0.347 OA
ATOM     24  O   UNL     1      34.190 -14.419 -20.626  0.00  0.00    -0.348 OA
ATOM     25  C   UNL     1      34.733 -16.149 -22.224  0.00  0.00    +0.188 C 
ATOM     26  C   UNL     1      34.181 -15.834 -20.835  0.00  0.00    +0.175 C 
ATOM     27  C   UNL     1      33.941 -14.068 -22.998  0.00  0.00    +0.174 C 
ATOM     28  C   UNL     1      33.397 -13.758 -21.614  0.00  0.00    +0.174 C 
ENDBRANCH  22  25
ENDBRANCH  21  22
ENDBRANCH  15  21
TORSDOF 5
ENDMDL
MODEL 7
REMARK VINA RESULT:      -9.7     11.486     15.622
REMARK  Name = 71616860
REMARK  5 active torsions:
REMARK  status: ('A' for Active; 'I' for Inactive)
REMARK    1  A    between atoms: C_10  and  C_17
REMARK    2  A    between atoms: C_15  and  O_21
REMARK    3  A    between atoms: C_16  and  C_18
REMARK    4  A    between atoms: O_21  and  C_22
REMARK    5  A    between atoms: C_22  and  C_25
REMARK                            x       y       z     vdW  Elec       q    Type
REMARK                         _______ _______ _______ _____ _____    ______ ____
ROOT
ATOM      1  O   UNL     1      31.746  -9.230 -18.239  0.00  0.00    -0.193 OA
ATOM      2  N   UNL     1      31.587  -8.344 -20.372  0.00  0.00    -0.205 N 
ATOM      3  N   UNL     1      31.447 -10.701 -19.939  0.00  0.00    -0.284 NA
ATOM      4  C   UNL     1      30.917  -5.971 -20.647  0.00  0.00    +0.049 C 
ATOM      5  C   UNL     1      31.205  -6.102 -22.117  0.00  0.00    -0.019 C 
ATOM      6  C   UNL     1      31.763  -6.975 -19.875  0.00  0.00    +0.114 C 
ATOM      7  C   UNL     1      31.486  -7.373 -22.657  0.00  0.00    +0.011 C 
ATOM      8  C   UNL     1      31.479  -8.557 -21.750  0.00  0.00    +0.068 C 
ATOM      9  C   UNL     1      31.164  -4.969 -22.944  0.00  0.00    +0.004 C 
ATOM     10  C   UNL     1      31.439  -5.082 -24.304  0.00  0.00    +0.041 C 
ATOM     11  C   UNL     1      31.777  -7.461 -24.028  0.00  0.00    +0.002 C 
ATOM     12  C   UNL     1      31.331  -9.802 -22.225  0.00  0.00    +0.088 C 
ATOM     13  C   UNL     1      31.751  -6.326 -24.843  0.00  0.00    +0.008 C 
ATOM     14  C   UNL     1      31.601  -9.418 -19.450  0.00  0.00    +0.275 C 
ATOM     15  C   UNL     1      31.326 -10.857 -21.211  0.00  0.00    +0.291 C 
ENDROOT
BRANCH  10  17
ATOM     16  C   UNL     1      31.372  -2.953 -25.844  0.00  0.00    -0.087 C 
ATOM     17  C   UNL     1      31.404  -3.925 -25.141  0.00  0.00    -0.064 C 
BRANCH  16  18
ATOM     18  C   UNL     1      31.333  -1.786 -26.687  0.00  0.00    +0.065 C 
ATOM     19  C   UNL     1      30.492  -1.826 -27.930  0.00  0.00    +0.014 C 
ATOM     20  C   UNL     1      31.987  -1.854 -28.038  0.00  0.00    +0.014 C 
ENDBRANCH  16  18
ENDBRANCH  10  17
BRANCH  15  21
ATOM     21  O   UNL     1      31.172 -12.095 -21.733  0.00  0.00    -0.448 OA
BRANCH  21  22
ATOM     22  C   UNL     1      32.043 -12.371 -22.819  0.00  0.00    +0.240 C 
BRANCH  22  25
ATOM     23  O   UNL     1      32.852 -13.787 -21.068  0.00  0.00    -0.347 OA
ATOM     24  O   UNL     1      34.702 -15.041 -22.767  0.00  0.00    -0.348 OA
ATOM     25  C   UNL     1      33.225 -13.182 -22.313  0.00  0.00    +0.188 C 
ATOM     26  C   UNL     1      33.621 -14.273 -23.305  0.00  0.00    +0.175 C 
ATOM     27  C   UNL     1      33.929 -14.560 -20.534  0.00  0.00    +0.174 C 
ATOM     28  C   UNL     1      34.325 -15.641 -21.525  0.00  0.00    +0.174 C 
ENDBRANCH  22  25
ENDBRANCH  21  22
ENDBRANCH  15  21
TORSDOF 5
ENDMDL
MODEL 8
REMARK VINA RESULT:      -9.6     10.342     14.901
REMARK  Name = 71616860
REMARK  5 active torsions:
REMARK  status: ('A' for Active; 'I' for Inactive)
REMARK    1  A    between atoms: C_10  and  C_17
REMARK    2  A    between atoms: C_15  and  O_21
REMARK    3  A    between atoms: C_16  and  C_18
REMARK    4  A    between atoms: O_21  and  C_22
REMARK    5  A    between atoms: C_22  and  C_25
REMARK                            x       y       z     vdW  Elec       q    Type
REMARK                         _______ _______ _______ _____ _____    ______ ____
ROOT
ATOM      1  O   UNL     1      30.316  -9.014 -20.637  0.00  0.00    -0.193 OA
ATOM      2  N   UNL     1      31.720 -10.681 -21.416  0.00  0.00    -0.205 N 
ATOM      3  N   UNL     1      31.669  -8.481 -22.377  0.00  0.00    -0.284 NA
ATOM      4  C   UNL     1      32.309 -12.564 -19.913  0.00  0.00    +0.049 C 
ATOM      5  C   UNL     1      32.999 -13.224 -21.075  0.00  0.00    -0.019 C 
ATOM      6  C   UNL     1      31.213 -11.644 -20.433  0.00  0.00    +0.114 C 
ATOM      7  C   UNL     1      33.171 -12.506 -22.276  0.00  0.00    +0.011 C 
ATOM      8  C   UNL     1      32.668 -11.105 -22.353  0.00  0.00    +0.068 C 
ATOM      9  C   UNL     1      33.492 -14.531 -20.949  0.00  0.00    +0.004 C 
ATOM     10  C   UNL     1      34.124 -15.150 -22.023  0.00  0.00    +0.041 C 
ATOM     11  C   UNL     1      33.796 -13.156 -23.353  0.00  0.00    +0.002 C 
ATOM     12  C   UNL     1      33.135 -10.243 -23.269  0.00  0.00    +0.088 C 
ATOM     13  C   UNL     1      34.269 -14.466 -23.225  0.00  0.00    +0.008 C 
ATOM     14  C   UNL     1      31.187  -9.369 -21.434  0.00  0.00    +0.275 C 
ATOM     15  C   UNL     1      32.559  -8.899 -23.208  0.00  0.00    +0.291 C 
ENDROOT
BRANCH  10  17
ATOM     16  C   UNL     1      35.030 -17.606 -21.784  0.00  0.00    -0.087 C 
ATOM     17  C   UNL     1      34.617 -16.484 -21.893  0.00  0.00    -0.064 C 
BRANCH  16  18
ATOM     18  C   UNL     1      35.523 -18.953 -21.653  0.00  0.00    +0.065 C 
ATOM     19  C   UNL     1      34.808 -19.893 -20.725  0.00  0.00    +0.014 C 
ATOM     20  C   UNL     1      36.161 -19.361 -20.355  0.00  0.00    +0.014 C 
ENDBRANCH  16  18
ENDBRANCH  10  17
BRANCH  15  21
ATOM     21  O   UNL     1      33.059  -8.064 -24.147  0.00  0.00    -0.448 OA
BRANCH  21  22
ATOM     22  C   UNL     1      33.843  -7.007 -23.614  0.00  0.00    +0.240 C 
BRANCH  22  25
ATOM     23  O   UNL     1      32.226  -5.934 -25.014  0.00  0.00    -0.347 OA
ATOM     24  O   UNL     1      31.953  -3.768 -23.250  0.00  0.00    -0.348 OA
ATOM     25  C   UNL     1      33.220  -5.679 -24.014  0.00  0.00    +0.188 C 
ATOM     26  C   UNL     1      32.567  -4.985 -22.820  0.00  0.00    +0.175 C 
ATOM     27  C   UNL     1      31.607  -4.717 -25.439  0.00  0.00    +0.174 C 
ATOM     28  C   UNL     1      30.964  -4.027 -24.249  0.00  0.00    +0.174 C 
ENDBRANCH  22  25
ENDBRANCH  21  22
ENDBRANCH  15  21
TORSDOF 5
ENDMDL
MODEL 9
REMARK VINA RESULT:      -9.5     11.630     15.920
REMARK  Name = 71616860
REMARK  5 active torsions:
REMARK  status: ('A' for Active; 'I' for Inactive)
REMARK    1  A    between atoms: C_10  and  C_17
REMARK    2  A    between atoms: C_15  and  O_21
REMARK    3  A    between atoms: C_16  and  C_18
REMARK    4  A    between atoms: O_21  and  C_22
REMARK    5  A    between atoms: C_22  and  C_25
REMARK                            x       y       z     vdW  Elec       q    Type
REMARK                         _______ _______ _______ _____ _____    ______ ____
ROOT
ATOM      1  O   UNL     1      31.119  -8.115 -18.689  0.00  0.00    -0.193 OA
ATOM      2  N   UNL     1      31.949  -7.579 -20.782  0.00  0.00    -0.205 N 
ATOM      3  N   UNL     1      31.182  -9.784 -20.222  0.00  0.00    -0.284 NA
ATOM      4  C   UNL     1      31.927  -5.211 -21.521  0.00  0.00    +0.049 C 
ATOM      5  C   UNL     1      32.709  -5.624 -22.737  0.00  0.00    -0.019 C 
ATOM      6  C   UNL     1      32.202  -6.189 -20.387  0.00  0.00    +0.114 C 
ATOM      7  C   UNL     1      32.905  -6.996 -23.001  0.00  0.00    +0.011 C 
ATOM      8  C   UNL     1      32.321  -7.998 -22.064  0.00  0.00    +0.068 C 
ATOM      9  C   UNL     1      33.209  -4.651 -23.614  0.00  0.00    +0.004 C 
ATOM     10  C   UNL     1      33.941  -5.027 -24.737  0.00  0.00    +0.041 C 
ATOM     11  C   UNL     1      33.661  -7.351 -24.130  0.00  0.00    +0.002 C 
ATOM     12  C   UNL     1      32.110  -9.268 -22.440  0.00  0.00    +0.088 C 
ATOM     13  C   UNL     1      34.172  -6.375 -24.990  0.00  0.00    +0.008 C 
ATOM     14  C   UNL     1      31.400  -8.476 -19.834  0.00  0.00    +0.275 C 
ATOM     15  C   UNL     1      31.513 -10.127 -21.418  0.00  0.00    +0.291 C 
ENDROOT
BRANCH  10  17
ATOM     16  C   UNL     1      34.890  -3.196 -26.367  0.00  0.00    -0.087 C 
ATOM     17  C   UNL     1      34.456  -4.032 -25.624  0.00  0.00    -0.064 C 
BRANCH  16  18
ATOM     18  C   UNL     1      35.413  -2.194 -27.259  0.00  0.00    +0.065 C 
ATOM     19  C   UNL     1      36.150  -2.640 -28.489  0.00  0.00    +0.014 C 
ATOM     20  C   UNL     1      36.902  -2.019 -27.350  0.00  0.00    +0.014 C 
ENDBRANCH  16  18
ENDBRANCH  10  17
BRANCH  15  21
ATOM     21  O   UNL     1      31.317 -11.397 -21.840  0.00  0.00    -0.448 OA
BRANCH  21  22
ATOM     22  C   UNL     1      32.119 -11.761 -22.953  0.00  0.00    +0.240 C 
BRANCH  22  25
ATOM     23  O   UNL     1      32.796 -13.330 -21.278  0.00  0.00    -0.347 OA
ATOM     24  O   UNL     1      34.575 -14.618 -23.026  0.00  0.00    -0.348 OA
ATOM     25  C   UNL     1      33.231 -12.684 -22.481  0.00  0.00    +0.188 C 
ATOM     26  C   UNL     1      33.562 -13.744 -23.530  0.00  0.00    +0.175 C 
ATOM     27  C   UNL     1      33.807 -14.209 -20.778  0.00  0.00    +0.174 C 
ATOM     28  C   UNL     1      34.138 -15.258 -21.825  0.00  0.00    +0.174 C 
ENDBRANCH  22  25
ENDBRANCH  21  22
ENDBRANCH  15  21
TORSDOF 5
ENDMDL
