MODEL 1
REMARK VINA RESULT:     -12.8      0.000      0.000
REMARK  Name = 57336276
REMARK  5 active torsions:
REMARK  status: ('A' for Active; 'I' for Inactive)
REMARK    1  A    between atoms: C_2  and  C_16
REMARK    2  A    between atoms: C_6  and  O_17
REMARK    3  A    between atoms: O_17  and  C_18
REMARK    4  A    between atoms: C_18  and  C_21
REMARK    5  A    between atoms: C_22  and  C_26
REMARK                            x       y       z     vdW  Elec       q    Type
REMARK                         _______ _______ _______ _____ _____    ______ ____
ROOT
ATOM      1  N   UNL     1      33.719 -12.830 -22.753  0.00  0.00    -0.210 NA
ATOM      2  C   UNL     1      32.165 -10.997 -22.488  0.00  0.00    +0.073 C 
ATOM      3  C   UNL     1      31.462 -11.723 -21.533  0.00  0.00    +0.011 C 
ATOM      4  C   UNL     1      33.278 -11.590 -23.064  0.00  0.00    +0.107 C 
ATOM      5  C   UNL     1      31.887 -13.002 -21.187  0.00  0.00    +0.058 C 
ATOM      6  C   UNL     1      33.011 -13.505 -21.821  0.00  0.00    +0.225 C 
ENDROOT
BRANCH   2  16
ATOM      7  S   UNL     1      31.779  -6.644 -19.770  0.00  0.00    -0.007 S 
ATOM      8  O   UNL     1      32.956  -5.988 -19.234  0.00  0.00    -0.173 OA
ATOM      9  O   UNL     1      30.454  -6.298 -19.293  0.00  0.00    -0.173 OA
ATOM     10  O   UNL     1      31.896  -9.349 -24.058  0.00  0.00    -0.270 OA
ATOM     11  N   UNL     1      31.215  -8.813 -21.884  0.00  0.00    -0.272 N 
ATOM     12  C   UNL     1      31.802  -6.448 -21.544  0.00  0.00    +0.172 C 
ATOM     13  C   UNL     1      31.999  -8.406 -19.582  0.00  0.00    +0.172 C 
ATOM     14  C   UNL     1      30.860  -7.432 -22.221  0.00  0.00    +0.119 C 
ATOM     15  C   UNL     1      31.036  -9.179 -20.471  0.00  0.00    +0.119 C 
ATOM     16  C   UNL     1      31.743  -9.646 -22.874  0.00  0.00    +0.251 C 
ENDBRANCH   2  16
BRANCH   6  17
ATOM     17  O   UNL     1      33.449 -14.762 -21.498  0.00  0.00    -0.455 OA
BRANCH  17  18
ATOM     18  C   UNL     1      34.569 -15.256 -22.221  0.00  0.00    +0.238 C 
BRANCH  18  21
ATOM     19  O   UNL     1      33.247 -17.244 -25.033  0.00  0.00    -0.358 OA
ATOM     20  N   UNL     1      33.631 -18.281 -24.192  0.00  0.00    -0.078 NA
ATOM     21  C   UNL     1      34.101 -16.280 -23.213  0.00  0.00    +0.075 A 
ATOM     22  C   UNL     1      34.138 -17.681 -23.111  0.00  0.00    +0.122 A 
ATOM     23  C   UNL     1      33.531 -16.057 -24.439  0.00  0.00    +0.154 A 
ATOM     24  C   UNL     1      33.186 -14.847 -25.199  0.00  0.00    +0.075 C 
BRANCH  22  26
ATOM     25  F   UNL     1      36.091 -20.712 -18.869  0.00  0.00    -0.204 F 
ATOM     26  C   UNL     1      34.642 -18.464 -22.015  0.00  0.00    +0.021 C 
ATOM     27  C   UNL     1      33.810 -19.377 -21.368  0.00  0.00    +0.004 C 
ATOM     28  C   UNL     1      35.966 -18.312 -21.599  0.00  0.00    +0.004 C 
ATOM     29  C   UNL     1      34.299 -20.137 -20.306  0.00  0.00    +0.030 C 
ATOM     30  C   UNL     1      36.455 -19.071 -20.536  0.00  0.00    +0.030 C 
ATOM     31  C   UNL     1      35.622 -19.983 -19.889  0.00  0.00    +0.140 C 
ENDBRANCH  22  26
ENDBRANCH  18  21
ENDBRANCH  17  18
ENDBRANCH   6  17
TORSDOF 5
ENDMDL
MODEL 2
REMARK VINA RESULT:     -12.6      1.964      2.870
REMARK  Name = 57336276
REMARK  5 active torsions:
REMARK  status: ('A' for Active; 'I' for Inactive)
REMARK    1  A    between atoms: C_2  and  C_16
REMARK    2  A    between atoms: C_6  and  O_17
REMARK    3  A    between atoms: O_17  and  C_18
REMARK    4  A    between atoms: C_18  and  C_21
REMARK    5  A    between atoms: C_22  and  C_26
REMARK                            x       y       z     vdW  Elec       q    Type
REMARK                         _______ _______ _______ _____ _____    ______ ____
ROOT
ATOM      1  N   UNL     1      31.638 -11.176 -22.527  0.00  0.00    -0.210 NA
ATOM      2  C   UNL     1      31.529  -9.628 -20.673  0.00  0.00    +0.073 C 
ATOM      3  C   UNL     1      31.740 -10.672 -19.780  0.00  0.00    +0.011 C 
ATOM      4  C   UNL     1      31.486  -9.930 -22.026  0.00  0.00    +0.107 C 
ATOM      5  C   UNL     1      31.901 -11.968 -20.258  0.00  0.00    +0.058 C 
ATOM      6  C   UNL     1      31.842 -12.165 -21.628  0.00  0.00    +0.225 C 
ENDROOT
BRANCH   2  16
ATOM      7  S   UNL     1      31.429  -5.147 -23.204  0.00  0.00    -0.007 S 
ATOM      8  O   UNL     1      30.357  -4.832 -24.129  0.00  0.00    -0.173 OA
ATOM      9  O   UNL     1      32.660  -4.381 -23.205  0.00  0.00    -0.173 OA
ATOM     10  O   UNL     1      30.730  -8.112 -19.150  0.00  0.00    -0.270 OA
ATOM     11  N   UNL     1      31.897  -7.217 -20.969  0.00  0.00    -0.272 N 
ATOM     12  C   UNL     1      30.754  -5.117 -21.552  0.00  0.00    +0.172 C 
ATOM     13  C   UNL     1      31.843  -6.872 -23.410  0.00  0.00    +0.172 C 
ATOM     14  C   UNL     1      31.672  -5.826 -20.566  0.00  0.00    +0.119 C 
ATOM     15  C   UNL     1      32.643  -7.392 -22.225  0.00  0.00    +0.119 C 
ATOM     16  C   UNL     1      31.356  -8.249 -20.200  0.00  0.00    +0.251 C 
ENDBRANCH   2  16
BRANCH   6  17
ATOM     17  O   UNL     1      31.998 -13.433 -22.124  0.00  0.00    -0.455 OA
BRANCH  17  18
ATOM     18  C   UNL     1      33.330 -13.861 -22.380  0.00  0.00    +0.238 C 
BRANCH  18  21
ATOM     19  O   UNL     1      33.229 -14.971 -25.896  0.00  0.00    -0.358 OA
ATOM     20  N   UNL     1      33.674 -16.148 -25.306  0.00  0.00    -0.078 NA
ATOM     21  C   UNL     1      33.376 -14.551 -23.711  0.00  0.00    +0.075 A 
ATOM     22  C   UNL     1      33.754 -15.873 -24.002  0.00  0.00    +0.122 A 
ATOM     23  C   UNL     1      33.054 -14.028 -24.936  0.00  0.00    +0.154 A 
ATOM     24  C   UNL     1      32.583 -12.712 -25.391  0.00  0.00    +0.075 C 
BRANCH  22  26
ATOM     25  F   UNL     1      35.441 -19.776 -20.407  0.00  0.00    -0.204 F 
ATOM     26  C   UNL     1      34.189 -16.882 -23.073  0.00  0.00    +0.021 C 
ATOM     27  C   UNL     1      34.872 -16.514 -21.913  0.00  0.00    +0.004 C 
ATOM     28  C   UNL     1      33.930 -18.228 -23.331  0.00  0.00    +0.004 C 
ATOM     29  C   UNL     1      35.294 -17.491 -21.013  0.00  0.00    +0.030 C 
ATOM     30  C   UNL     1      34.353 -19.206 -22.430  0.00  0.00    +0.030 C 
ATOM     31  C   UNL     1      35.035 -18.837 -21.272  0.00  0.00    +0.140 C 
ENDBRANCH  22  26
ENDBRANCH  18  21
ENDBRANCH  17  18
ENDBRANCH   6  17
TORSDOF 5
ENDMDL
MODEL 3
REMARK VINA RESULT:     -12.5      1.644      2.190
REMARK  Name = 57336276
REMARK  5 active torsions:
REMARK  status: ('A' for Active; 'I' for Inactive)
REMARK    1  A    between atoms: C_2  and  C_16
REMARK    2  A    between atoms: C_6  and  O_17
REMARK    3  A    between atoms: O_17  and  C_18
REMARK    4  A    between atoms: C_18  and  C_21
REMARK    5  A    between atoms: C_22  and  C_26
REMARK                            x       y       z     vdW  Elec       q    Type
REMARK                         _______ _______ _______ _____ _____    ______ ____
ROOT
ATOM      1  N   UNL     1      33.567 -12.077 -23.487  0.00  0.00    -0.210 NA
ATOM      2  C   UNL     1      31.916 -10.935 -22.140  0.00  0.00    +0.073 C 
ATOM      3  C   UNL     1      32.032 -11.911 -21.158  0.00  0.00    +0.011 C 
ATOM      4  C   UNL     1      32.699 -11.062 -23.277  0.00  0.00    +0.107 C 
ATOM      5  C   UNL     1      32.916 -12.970 -21.338  0.00  0.00    +0.058 C 
ATOM      6  C   UNL     1      33.653 -13.007 -22.510  0.00  0.00    +0.225 C 
ENDROOT
BRANCH   2  16
ATOM      7  S   UNL     1      32.134  -6.091 -23.867  0.00  0.00    -0.007 S 
ATOM      8  O   UNL     1      32.051  -5.796 -25.284  0.00  0.00    -0.173 OA
ATOM      9  O   UNL     1      32.606  -5.093 -22.926  0.00  0.00    -0.173 OA
ATOM     10  O   UNL     1      29.813 -10.093 -21.789  0.00  0.00    -0.270 OA
ATOM     11  N   UNL     1      31.516  -8.512 -22.063  0.00  0.00    -0.272 N 
ATOM     12  C   UNL     1      30.526  -6.649 -23.328  0.00  0.00    +0.172 C 
ATOM     13  C   UNL     1      33.127  -7.561 -23.669  0.00  0.00    +0.172 C 
ATOM     14  C   UNL     1      30.609  -7.364 -21.987  0.00  0.00    +0.119 C 
ATOM     15  C   UNL     1      32.930  -8.178 -22.292  0.00  0.00    +0.119 C 
ATOM     16  C   UNL     1      30.993  -9.805 -21.980  0.00  0.00    +0.251 C 
ENDBRANCH   2  16
BRANCH   6  17
ATOM     17  O   UNL     1      34.530 -14.040 -22.711  0.00  0.00    -0.455 OA
BRANCH  17  18
ATOM     18  C   UNL     1      34.203 -15.285 -22.106  0.00  0.00    +0.238 C 
BRANCH  18  21
ATOM     19  O   UNL     1      33.474 -17.287 -25.117  0.00  0.00    -0.358 OA
ATOM     20  N   UNL     1      33.902 -18.306 -24.274  0.00  0.00    -0.078 NA
ATOM     21  C   UNL     1      33.987 -16.311 -23.179  0.00  0.00    +0.075 A 
ATOM     22  C   UNL     1      34.203 -17.699 -23.123  0.00  0.00    +0.122 A 
ATOM     23  C   UNL     1      33.528 -16.105 -24.454  0.00  0.00    +0.154 A 
ATOM     24  C   UNL     1      33.106 -14.914 -25.205  0.00  0.00    +0.075 C 
BRANCH  22  26
ATOM     25  F   UNL     1      36.083 -20.656 -18.795  0.00  0.00    -0.204 F 
ATOM     26  C   UNL     1      34.689 -18.462 -22.004  0.00  0.00    +0.021 C 
ATOM     27  C   UNL     1      35.990 -18.271 -21.541  0.00  0.00    +0.004 C 
ATOM     28  C   UNL     1      33.858 -19.396 -21.383  0.00  0.00    +0.004 C 
ATOM     29  C   UNL     1      36.461 -19.011 -20.456  0.00  0.00    +0.030 C 
ATOM     30  C   UNL     1      34.329 -20.137 -20.299  0.00  0.00    +0.030 C 
ATOM     31  C   UNL     1      35.630 -19.945 -19.836  0.00  0.00    +0.140 C 
ENDBRANCH  22  26
ENDBRANCH  18  21
ENDBRANCH  17  18
ENDBRANCH   6  17
TORSDOF 5
ENDMDL
MODEL 4
REMARK VINA RESULT:     -12.1      4.356     10.234
REMARK  Name = 57336276
REMARK  5 active torsions:
REMARK  status: ('A' for Active; 'I' for Inactive)
REMARK    1  A    between atoms: C_2  and  C_16
REMARK    2  A    between atoms: C_6  and  O_17
REMARK    3  A    between atoms: O_17  and  C_18
REMARK    4  A    between atoms: C_18  and  C_21
REMARK    5  A    between atoms: C_22  and  C_26
REMARK                            x       y       z     vdW  Elec       q    Type
REMARK                         _______ _______ _______ _____ _____    ______ ____
ROOT
ATOM      1  N   UNL     1      32.809 -11.955 -24.337  0.00  0.00    -0.210 NA
ATOM      2  C   UNL     1      33.137 -14.289 -23.802  0.00  0.00    +0.073 C 
ATOM      3  C   UNL     1      33.051 -13.997 -22.445  0.00  0.00    +0.011 C 
ATOM      4  C   UNL     1      33.010 -13.241 -24.700  0.00  0.00    +0.107 C 
ATOM      5  C   UNL     1      32.844 -12.685 -22.033  0.00  0.00    +0.058 C 
ATOM      6  C   UNL     1      32.731 -11.710 -23.010  0.00  0.00    +0.225 C 
ENDROOT
BRANCH   2  16
ATOM      7  S   UNL     1      34.718 -18.515 -21.325  0.00  0.00    -0.007 S 
ATOM      8  O   UNL     1      33.905 -19.127 -20.293  0.00  0.00    -0.173 OA
ATOM      9  O   UNL     1      36.121 -18.857 -21.467  0.00  0.00    -0.173 OA
ATOM     10  O   UNL     1      32.696 -16.014 -25.246  0.00  0.00    -0.270 OA
ATOM     11  N   UNL     1      34.272 -16.456 -23.574  0.00  0.00    -0.272 N 
ATOM     12  C   UNL     1      33.914 -18.794 -22.894  0.00  0.00    +0.172 C 
ATOM     13  C   UNL     1      34.591 -16.743 -21.146  0.00  0.00    +0.172 C 
ATOM     14  C   UNL     1      34.453 -17.857 -23.966  0.00  0.00    +0.119 C 
ATOM     15  C   UNL     1      35.056 -16.027 -22.405  0.00  0.00    +0.119 C 
ATOM     16  C   UNL     1      33.355 -15.664 -24.268  0.00  0.00    +0.251 C 
ENDBRANCH   2  16
BRANCH   6  17
ATOM     17  O   UNL     1      32.526 -10.409 -22.629  0.00  0.00    -0.455 OA
BRANCH  17  18
ATOM     18  C   UNL     1      31.287 -10.115 -21.996  0.00  0.00    +0.238 C 
BRANCH  18  21
ATOM     19  O   UNL     1      31.615  -7.538 -19.377  0.00  0.00    -0.358 OA
ATOM     20  N   UNL     1      31.765  -6.732 -20.499  0.00  0.00    -0.078 NA
ATOM     21  C   UNL     1      31.452  -8.894 -21.139  0.00  0.00    +0.075 A 
ATOM     22  C   UNL     1      31.663  -7.564 -21.539  0.00  0.00    +0.122 A 
ATOM     23  C   UNL     1      31.429  -8.823 -19.771  0.00  0.00    +0.154 A 
ATOM     24  C   UNL     1      31.252  -9.815 -18.701  0.00  0.00    +0.075 C 
BRANCH  22  26
ATOM     25  F   UNL     1      32.086  -5.622 -26.740  0.00  0.00    -0.204 F 
ATOM     26  C   UNL     1      31.773  -7.062 -22.883  0.00  0.00    +0.021 C 
ATOM     27  C   UNL     1      33.011  -6.653 -23.377  0.00  0.00    +0.004 C 
ATOM     28  C   UNL     1      30.639  -6.984 -23.694  0.00  0.00    +0.004 C 
ATOM     29  C   UNL     1      33.117  -6.167 -24.680  0.00  0.00    +0.030 C 
ATOM     30  C   UNL     1      30.746  -6.497 -24.997  0.00  0.00    +0.030 C 
ATOM     31  C   UNL     1      31.984  -6.089 -25.489  0.00  0.00    +0.140 C 
ENDBRANCH  22  26
ENDBRANCH  18  21
ENDBRANCH  17  18
ENDBRANCH   6  17
TORSDOF 5
ENDMDL
MODEL 5
REMARK VINA RESULT:     -11.8      8.108     13.000
REMARK  Name = 57336276
REMARK  5 active torsions:
REMARK  status: ('A' for Active; 'I' for Inactive)
REMARK    1  A    between atoms: C_2  and  C_16
REMARK    2  A    between atoms: C_6  and  O_17
REMARK    3  A    between atoms: O_17  and  C_18
REMARK    4  A    between atoms: C_18  and  C_21
REMARK    5  A    between atoms: C_22  and  C_26
REMARK                            x       y       z     vdW  Elec       q    Type
REMARK                         _______ _______ _______ _____ _____    ______ ____
ROOT
ATOM      1  N   UNL     1      35.469 -22.267 -16.648  0.00  0.00    -0.210 NA
ATOM      2  C   UNL     1      37.290 -23.021 -15.247  0.00  0.00    +0.073 C 
ATOM      3  C   UNL     1      38.109 -22.024 -15.765  0.00  0.00    +0.011 C 
ATOM      4  C   UNL     1      35.988 -23.100 -15.717  0.00  0.00    +0.107 C 
ATOM      5  C   UNL     1      37.610 -21.148 -16.723  0.00  0.00    +0.058 C 
ATOM      6  C   UNL     1      36.295 -21.311 -17.127  0.00  0.00    +0.225 C 
ENDROOT
BRANCH   2  16
ATOM      7  S   UNL     1      35.580 -24.161 -10.529  0.00  0.00    -0.007 S 
ATOM      8  O   UNL     1      34.304 -24.820 -10.333  0.00  0.00    -0.173 OA
ATOM      9  O   UNL     1      36.258 -23.509  -9.424  0.00  0.00    -0.173 OA
ATOM     10  O   UNL     1      38.423 -24.925 -14.659  0.00  0.00    -0.270 OA
ATOM     11  N   UNL     1      37.500 -23.696 -12.895  0.00  0.00    -0.272 N 
ATOM     12  C   UNL     1      36.704 -25.345 -11.252  0.00  0.00    +0.172 C 
ATOM     13  C   UNL     1      35.388 -22.972 -11.847  0.00  0.00    +0.172 C 
ATOM     14  C   UNL     1      37.913 -24.656 -11.868  0.00  0.00    +0.119 C 
ATOM     15  C   UNL     1      36.738 -22.538 -12.399  0.00  0.00    +0.119 C 
ATOM     16  C   UNL     1      37.788 -23.960 -14.236  0.00  0.00    +0.251 C 
ENDBRANCH   2  16
BRANCH   6  17
ATOM     17  O   UNL     1      35.779 -20.460 -18.070  0.00  0.00    -0.455 OA
BRANCH  17  18
ATOM     18  C   UNL     1      35.475 -21.022 -19.341  0.00  0.00    +0.238 C 
BRANCH  18  21
ATOM     19  O   UNL     1      31.806 -21.391 -19.442  0.00  0.00    -0.358 OA
ATOM     20  N   UNL     1      31.946 -20.338 -20.338  0.00  0.00    -0.078 NA
ATOM     21  C   UNL     1      33.992 -20.966 -19.560  0.00  0.00    +0.075 A 
ATOM     22  C   UNL     1      33.260 -20.101 -20.392  0.00  0.00    +0.122 A 
ATOM     23  C   UNL     1      33.031 -21.756 -18.986  0.00  0.00    +0.154 A 
ATOM     24  C   UNL     1      33.065 -22.866 -18.023  0.00  0.00    +0.075 C 
BRANCH  22  26
ATOM     25  F   UNL     1      35.254 -16.058 -23.660  0.00  0.00    -0.204 F 
ATOM     26  C   UNL     1      33.775 -19.057 -21.236  0.00  0.00    +0.021 C 
ATOM     27  C   UNL     1      34.483 -17.993 -20.677  0.00  0.00    +0.004 C 
ATOM     28  C   UNL     1      33.566 -19.106 -22.615  0.00  0.00    +0.004 C 
ATOM     29  C   UNL     1      34.984 -16.981 -21.496  0.00  0.00    +0.030 C 
ATOM     30  C   UNL     1      34.066 -18.093 -23.434  0.00  0.00    +0.030 C 
ATOM     31  C   UNL     1      34.774 -17.031 -22.874  0.00  0.00    +0.140 C 
ENDBRANCH  22  26
ENDBRANCH  18  21
ENDBRANCH  17  18
ENDBRANCH   6  17
TORSDOF 5
ENDMDL
MODEL 6
REMARK VINA RESULT:     -11.6      2.415      3.169
REMARK  Name = 57336276
REMARK  5 active torsions:
REMARK  status: ('A' for Active; 'I' for Inactive)
REMARK    1  A    between atoms: C_2  and  C_16
REMARK    2  A    between atoms: C_6  and  O_17
REMARK    3  A    between atoms: O_17  and  C_18
REMARK    4  A    between atoms: C_18  and  C_21
REMARK    5  A    between atoms: C_22  and  C_26
REMARK                            x       y       z     vdW  Elec       q    Type
REMARK                         _______ _______ _______ _____ _____    ______ ____
ROOT
ATOM      1  N   UNL     1      31.334 -11.583 -21.504  0.00  0.00    -0.210 NA
ATOM      2  C   UNL     1      31.598  -9.440 -22.592  0.00  0.00    +0.073 C 
ATOM      3  C   UNL     1      32.650  -9.946 -23.347  0.00  0.00    +0.011 C 
ATOM      4  C   UNL     1      30.977 -10.292 -21.691  0.00  0.00    +0.107 C 
ATOM      5  C   UNL     1      33.045 -11.269 -23.182  0.00  0.00    +0.058 C 
ATOM      6  C   UNL     1      32.360 -12.039 -22.255  0.00  0.00    +0.225 C 
ENDROOT
BRANCH   2  16
ATOM      7  S   UNL     1      33.670  -5.470 -25.129  0.00  0.00    -0.007 S 
ATOM      8  O   UNL     1      33.756  -5.468 -26.576  0.00  0.00    -0.173 OA
ATOM      9  O   UNL     1      34.444  -4.534 -24.337  0.00  0.00    -0.173 OA
ATOM     10  O   UNL     1      29.948  -7.849 -22.636  0.00  0.00    -0.270 OA
ATOM     11  N   UNL     1      32.127  -7.076 -22.998  0.00  0.00    -0.272 N 
ATOM     12  C   UNL     1      31.951  -5.290 -24.682  0.00  0.00    +0.172 C 
ATOM     13  C   UNL     1      34.036  -7.122 -24.559  0.00  0.00    +0.172 C 
ATOM     14  C   UNL     1      31.711  -5.690 -23.234  0.00  0.00    +0.119 C 
ATOM     15  C   UNL     1      33.571  -7.325 -23.124  0.00  0.00    +0.119 C 
ATOM     16  C   UNL     1      31.157  -8.048 -22.743  0.00  0.00    +0.251 C 
ENDBRANCH   2  16
BRANCH   6  17
ATOM     17  O   UNL     1      32.730 -13.346 -22.075  0.00  0.00    -0.455 OA
BRANCH  17  18
ATOM     18  C   UNL     1      33.941 -13.760 -22.696  0.00  0.00    +0.238 C 
BRANCH  18  21
ATOM     19  O   UNL     1      32.969 -15.251 -25.927  0.00  0.00    -0.358 OA
ATOM     20  N   UNL     1      33.341 -16.408 -25.255  0.00  0.00    -0.078 NA
ATOM     21  C   UNL     1      33.614 -14.603 -23.894  0.00  0.00    +0.075 A 
ATOM     22  C   UNL     1      33.723 -15.996 -24.042  0.00  0.00    +0.122 A 
ATOM     23  C   UNL     1      33.135 -14.182 -25.107  0.00  0.00    +0.154 A 
ATOM     24  C   UNL     1      32.784 -12.869 -25.665  0.00  0.00    +0.075 C 
BRANCH  22  26
ATOM     25  F   UNL     1      35.493 -19.673 -20.254  0.00  0.00    -0.204 F 
ATOM     26  C   UNL     1      34.180 -16.946 -23.064  0.00  0.00    +0.021 C 
ATOM     27  C   UNL     1      33.911 -18.304 -23.231  0.00  0.00    +0.004 C 
ATOM     28  C   UNL     1      34.893 -16.509 -21.946  0.00  0.00    +0.004 C 
ATOM     29  C   UNL     1      34.355 -19.226 -22.282  0.00  0.00    +0.030 C 
ATOM     30  C   UNL     1      35.336 -17.431 -20.997  0.00  0.00    +0.030 C 
ATOM     31  C   UNL     1      35.067 -18.788 -21.165  0.00  0.00    +0.140 C 
ENDBRANCH  22  26
ENDBRANCH  18  21
ENDBRANCH  17  18
ENDBRANCH   6  17
TORSDOF 5
ENDMDL
MODEL 7
REMARK VINA RESULT:     -10.6      7.003     11.642
REMARK  Name = 57336276
REMARK  5 active torsions:
REMARK  status: ('A' for Active; 'I' for Inactive)
REMARK    1  A    between atoms: C_2  and  C_16
REMARK    2  A    between atoms: C_6  and  O_17
REMARK    3  A    between atoms: O_17  and  C_18
REMARK    4  A    between atoms: C_18  and  C_21
REMARK    5  A    between atoms: C_22  and  C_26
REMARK                            x       y       z     vdW  Elec       q    Type
REMARK                         _______ _______ _______ _____ _____    ______ ____
ROOT
ATOM      1  N   UNL     1      31.818 -20.834 -18.825  0.00  0.00    -0.210 NA
ATOM      2  C   UNL     1      32.350 -22.480 -17.135  0.00  0.00    +0.073 C 
ATOM      3  C   UNL     1      33.458 -22.885 -17.870  0.00  0.00    +0.011 C 
ATOM      4  C   UNL     1      31.568 -21.458 -17.652  0.00  0.00    +0.107 C 
ATOM      5  C   UNL     1      33.748 -22.266 -19.081  0.00  0.00    +0.058 C 
ATOM      6  C   UNL     1      32.903 -21.255 -19.510  0.00  0.00    +0.225 C 
ENDROOT
BRANCH   2  16
ATOM      7  S   UNL     1      35.221 -23.465 -12.980  0.00  0.00    -0.007 S 
ATOM      8  O   UNL     1      35.758 -22.390 -12.167  0.00  0.00    -0.173 OA
ATOM      9  O   UNL     1      35.734 -24.816 -12.857  0.00  0.00    -0.173 OA
ATOM     10  O   UNL     1      30.842 -23.034 -15.500  0.00  0.00    -0.270 OA
ATOM     11  N   UNL     1      33.045 -23.739 -15.144  0.00  0.00    -0.272 N 
ATOM     12  C   UNL     1      33.455 -23.513 -12.728  0.00  0.00    +0.172 C 
ATOM     13  C   UNL     1      35.345 -22.973 -14.691  0.00  0.00    +0.172 C 
ATOM     14  C   UNL     1      32.762 -24.309 -13.824  0.00  0.00    +0.119 C 
ATOM     15  C   UNL     1      34.448 -23.827 -15.576  0.00  0.00    +0.119 C 
ATOM     16  C   UNL     1      32.017 -23.113 -15.854  0.00  0.00    +0.251 C 
ENDBRANCH   2  16
BRANCH   6  17
ATOM     17  O   UNL     1      33.168 -20.629 -20.700  0.00  0.00    -0.455 OA
BRANCH  17  18
ATOM     18  C   UNL     1      33.333 -19.217 -20.659  0.00  0.00    +0.238 C 
BRANCH  18  21
ATOM     19  O   UNL     1      37.006 -18.883 -20.681  0.00  0.00    -0.358 OA
ATOM     20  N   UNL     1      36.691 -17.908 -21.620  0.00  0.00    -0.078 NA
ATOM     21  C   UNL     1      34.784 -18.887 -20.853  0.00  0.00    +0.075 A 
ATOM     22  C   UNL     1      35.359 -17.928 -21.706  0.00  0.00    +0.122 A 
ATOM     23  C   UNL     1      35.862 -19.458 -20.232  0.00  0.00    +0.154 A 
ATOM     24  C   UNL     1      36.016 -20.519 -19.226  0.00  0.00    +0.075 C 
BRANCH  22  26
ATOM     25  F   UNL     1      32.715 -14.459 -25.167  0.00  0.00    -0.204 F 
ATOM     26  C   UNL     1      34.675 -17.032 -22.600  0.00  0.00    +0.021 C 
ATOM     27  C   UNL     1      34.136 -17.513 -23.792  0.00  0.00    +0.004 C 
ATOM     28  C   UNL     1      34.553 -15.680 -22.275  0.00  0.00    +0.004 C 
ATOM     29  C   UNL     1      33.473 -16.645 -24.659  0.00  0.00    +0.030 C 
ATOM     30  C   UNL     1      33.890 -14.812 -23.143  0.00  0.00    +0.030 C 
ATOM     31  C   UNL     1      33.351 -15.294 -24.334  0.00  0.00    +0.140 C 
ENDBRANCH  22  26
ENDBRANCH  18  21
ENDBRANCH  17  18
ENDBRANCH   6  17
TORSDOF 5
ENDMDL
MODEL 8
REMARK VINA RESULT:     -10.2      6.244      9.965
REMARK  Name = 57336276
REMARK  5 active torsions:
REMARK  status: ('A' for Active; 'I' for Inactive)
REMARK    1  A    between atoms: C_2  and  C_16
REMARK    2  A    between atoms: C_6  and  O_17
REMARK    3  A    between atoms: O_17  and  C_18
REMARK    4  A    between atoms: C_18  and  C_21
REMARK    5  A    between atoms: C_22  and  C_26
REMARK                            x       y       z     vdW  Elec       q    Type
REMARK                         _______ _______ _______ _____ _____    ______ ____
ROOT
ATOM      1  N   UNL     1      32.351 -20.596 -19.408  0.00  0.00    -0.210 NA
ATOM      2  C   UNL     1      34.623 -19.991 -19.972  0.00  0.00    +0.073 C 
ATOM      3  C   UNL     1      35.097 -21.096 -19.275  0.00  0.00    +0.011 C 
ATOM      4  C   UNL     1      33.252 -19.786 -20.009  0.00  0.00    +0.107 C 
ATOM      5  C   UNL     1      34.200 -21.951 -18.644  0.00  0.00    +0.058 C 
ATOM      6  C   UNL     1      32.850 -21.659 -18.740  0.00  0.00    +0.225 C 
ENDROOT
BRANCH   2  16
ATOM      7  S   UNL     1      33.911 -16.739 -23.897  0.00  0.00    -0.007 S 
ATOM      8  O   UNL     1      33.047 -15.581 -23.765  0.00  0.00    -0.173 OA
ATOM      9  O   UNL     1      34.333 -17.205 -25.204  0.00  0.00    -0.173 OA
ATOM     10  O   UNL     1      36.491 -18.662 -19.978  0.00  0.00    -0.270 OA
ATOM     11  N   UNL     1      35.273 -18.725 -21.974  0.00  0.00    -0.272 N 
ATOM     12  C   UNL     1      35.369 -16.451 -22.909  0.00  0.00    +0.172 C 
ATOM     13  C   UNL     1      33.138 -18.101 -23.040  0.00  0.00    +0.172 C 
ATOM     14  C   UNL     1      36.127 -17.745 -22.651  0.00  0.00    +0.119 C 
ATOM     15  C   UNL     1      34.136 -19.218 -22.767  0.00  0.00    +0.119 C 
ATOM     16  C   UNL     1      35.543 -19.069 -20.648  0.00  0.00    +0.251 C 
ENDBRANCH   2  16
BRANCH   6  17
ATOM     17  O   UNL     1      31.946 -22.488 -18.127  0.00  0.00    -0.455 OA
BRANCH  17  18
ATOM     18  C   UNL     1      32.476 -23.495 -17.274  0.00  0.00    +0.238 C 
BRANCH  18  21
ATOM     19  O   UNL     1      31.217 -22.521 -13.947  0.00  0.00    -0.358 OA
ATOM     20  N   UNL     1      32.573 -22.606 -13.653  0.00  0.00    -0.078 NA
ATOM     21  C   UNL     1      32.226 -23.110 -15.846  0.00  0.00    +0.075 A 
ATOM     22  C   UNL     1      33.155 -22.959 -14.802  0.00  0.00    +0.122 A 
ATOM     23  C   UNL     1      31.023 -22.823 -15.256  0.00  0.00    +0.154 A 
ATOM     24  C   UNL     1      29.635 -22.780 -15.737  0.00  0.00    +0.075 C 
BRANCH  22  26
ATOM     25  F   UNL     1      38.671 -23.668 -15.057  0.00  0.00    -0.204 F 
ATOM     26  C   UNL     1      34.580 -23.142 -14.868  0.00  0.00    +0.021 C 
ATOM     27  C   UNL     1      35.403 -22.084 -15.252  0.00  0.00    +0.004 C 
ATOM     28  C   UNL     1      35.141 -24.379 -14.548  0.00  0.00    +0.004 C 
ATOM     29  C   UNL     1      36.785 -22.261 -15.315  0.00  0.00    +0.030 C 
ATOM     30  C   UNL     1      36.523 -24.557 -14.612  0.00  0.00    +0.030 C 
ATOM     31  C   UNL     1      37.345 -23.498 -14.996  0.00  0.00    +0.140 C 
ENDBRANCH  22  26
ENDBRANCH  18  21
ENDBRANCH  17  18
ENDBRANCH   6  17
TORSDOF 5
ENDMDL
MODEL 9
REMARK VINA RESULT:     -10.2      5.983     10.629
REMARK  Name = 57336276
REMARK  5 active torsions:
REMARK  status: ('A' for Active; 'I' for Inactive)
REMARK    1  A    between atoms: C_2  and  C_16
REMARK    2  A    between atoms: C_6  and  O_17
REMARK    3  A    between atoms: O_17  and  C_18
REMARK    4  A    between atoms: C_18  and  C_21
REMARK    5  A    between atoms: C_22  and  C_26
REMARK                            x       y       z     vdW  Elec       q    Type
REMARK                         _______ _______ _______ _____ _____    ______ ____
ROOT
ATOM      1  N   UNL     1      35.454 -20.141 -19.948  0.00  0.00    -0.210 NA
ATOM      2  C   UNL     1      33.385 -20.983 -19.022  0.00  0.00    +0.073 C 
ATOM      3  C   UNL     1      32.660 -20.196 -19.909  0.00  0.00    +0.011 C 
ATOM      4  C   UNL     1      34.769 -20.921 -19.081  0.00  0.00    +0.107 C 
ATOM      5  C   UNL     1      33.330 -19.382 -20.817  0.00  0.00    +0.058 C 
ATOM      6  C   UNL     1      34.715 -19.391 -20.795  0.00  0.00    +0.225 C 
ENDROOT
BRANCH   2  16
ATOM      7  S   UNL     1      35.012 -23.082 -14.614  0.00  0.00    -0.007 S 
ATOM      8  O   UNL     1      35.331 -22.259 -13.464  0.00  0.00    -0.173 OA
ATOM      9  O   UNL     1      35.446 -24.464 -14.681  0.00  0.00    -0.173 OA
ATOM     10  O   UNL     1      31.482 -21.758 -18.005  0.00  0.00    -0.270 OA
ATOM     11  N   UNL     1      33.493 -22.699 -17.268  0.00  0.00    -0.272 N 
ATOM     12  C   UNL     1      33.242 -23.041 -14.844  0.00  0.00    +0.172 C 
ATOM     13  C   UNL     1      35.601 -22.239 -16.073  0.00  0.00    +0.172 C 
ATOM     14  C   UNL     1      32.854 -23.520 -16.235  0.00  0.00    +0.119 C 
ATOM     15  C   UNL     1      34.959 -22.804 -17.332  0.00  0.00    +0.119 C 
ATOM     16  C   UNL     1      32.708 -21.852 -18.053  0.00  0.00    +0.251 C 
ENDBRANCH   2  16
BRANCH   6  17
ATOM     17  O   UNL     1      35.398 -18.598 -21.679  0.00  0.00    -0.455 OA
BRANCH  17  18
ATOM     18  C   UNL     1      34.867 -17.300 -21.919  0.00  0.00    +0.238 C 
BRANCH  18  21
ATOM     19  O   UNL     1      33.366 -17.916 -25.232  0.00  0.00    -0.358 OA
ATOM     20  N   UNL     1      33.082 -16.561 -25.110  0.00  0.00    -0.078 NA
ATOM     21  C   UNL     1      34.193 -17.286 -23.259  0.00  0.00    +0.075 A 
ATOM     22  C   UNL     1      33.585 -16.207 -23.925  0.00  0.00    +0.122 A 
ATOM     23  C   UNL     1      34.028 -18.336 -24.124  0.00  0.00    +0.154 A 
ATOM     24  C   UNL     1      34.408 -19.756 -24.088  0.00  0.00    +0.075 C 
BRANCH  22  26
ATOM     25  F   UNL     1      33.140 -10.952 -22.139  0.00  0.00    -0.204 F 
ATOM     26  C   UNL     1      33.470 -14.850 -23.463  0.00  0.00    +0.021 C 
ATOM     27  C   UNL     1      33.019 -13.854 -24.330  0.00  0.00    +0.004 C 
ATOM     28  C   UNL     1      33.810 -14.527 -22.149  0.00  0.00    +0.004 C 
ATOM     29  C   UNL     1      32.906 -12.538 -23.882  0.00  0.00    +0.030 C 
ATOM     30  C   UNL     1      33.698 -13.210 -21.702  0.00  0.00    +0.030 C 
ATOM     31  C   UNL     1      33.247 -12.216 -22.568  0.00  0.00    +0.140 C 
ENDBRANCH  22  26
ENDBRANCH  18  21
ENDBRANCH  17  18
ENDBRANCH   6  17
TORSDOF 5
ENDMDL
