MODEL 1
REMARK VINA RESULT:     -10.8      0.000      0.000
REMARK  Name = 449412
REMARK  8 active torsions:
REMARK  status: ('A' for Active; 'I' for Inactive)
REMARK    1  A    between atoms: C_1  and  C_2
REMARK    2  A    between atoms: C_1  and  N_9
REMARK    3  A    between atoms: C_1  and  C_20
REMARK    4  A    between atoms: C_10  and  O_12
REMARK    5  A    between atoms: O_12  and  C_13
REMARK    6  A    between atoms: C_13  and  C_14
REMARK    7  A    between atoms: C_20  and  C_26
REMARK    8  A    between atoms: C_28  and  S_30
REMARK                            x       y       z     vdW  Elec       q    Type
REMARK                         _______ _______ _______ _____ _____    ______ ____
ROOT
ATOM      1  C   UNL     1      35.987 -23.307 -14.841  0.00  0.00    +0.106 C 
ENDROOT
BRANCH   1   2
ATOM      2  C   UNL     1      37.284 -24.000 -14.476  0.00  0.00    -0.004 C 
ATOM      3  C   UNL     1      37.345 -24.814 -13.345  0.00  0.00    -0.003 C 
ATOM      4  C   UNL     1      38.417 -23.823 -15.270  0.00  0.00    -0.003 C 
ATOM      5  C   UNL     1      38.539 -25.452 -13.008  0.00  0.00    -0.000 C 
ATOM      6  C   UNL     1      39.610 -24.462 -14.933  0.00  0.00    -0.000 C 
ATOM      7  C   UNL     1      39.671 -25.276 -13.802  0.00  0.00    -0.000 C 
ENDBRANCH   1   2
BRANCH   1   9
ATOM      8  O   UNL     1      34.259 -22.550 -17.050  0.00  0.00    -0.226 OA
ATOM      9  N   UNL     1      36.218 -22.282 -15.837  0.00  0.00    -0.268 N 
ATOM     10  C   UNL     1      35.335 -21.994 -16.854  0.00  0.00    +0.402 C 
ATOM     11  H   UNL     1      37.053 -21.763 -15.785  0.00  0.00    +0.153 HD
BRANCH  10  12
ATOM     12  O   UNL     1      35.837 -20.982 -17.624  0.00  0.00    -0.430 OA
BRANCH  12  13
ATOM     13  C   UNL     1      36.116 -21.315 -18.988  0.00  0.00    +0.237 C 
BRANCH  13  14
ATOM     14  C   UNL     1      35.570 -20.237 -19.877  0.00  0.00    +0.021 C 
ATOM     15  C   UNL     1      36.413 -19.238 -20.361  0.00  0.00    -0.001 C 
ATOM     16  C   UNL     1      34.217 -20.235 -20.220  0.00  0.00    -0.001 C 
ATOM     17  C   UNL     1      35.905 -18.235 -21.187  0.00  0.00    -0.000 C 
ATOM     18  C   UNL     1      33.709 -19.233 -21.047  0.00  0.00    -0.000 C 
ATOM     19  C   UNL     1      34.553 -18.233 -21.531  0.00  0.00    -0.000 C 
ENDBRANCH  13  14
ENDBRANCH  12  13
ENDBRANCH  10  12
ENDBRANCH   1   9
BRANCH   1  20
ATOM     20  C   UNL     1      35.258 -22.716 -13.625  0.00  0.00    +0.110 C 
BRANCH  20  26
ATOM     21  S   UNL     1      30.804 -22.656 -15.912  0.00  0.00    -0.024 S 
ATOM     22  O   UNL     1      33.643 -24.056 -12.486  0.00  0.00    -0.275 OA
ATOM     23  N   UNL     1      33.006 -22.933 -14.456  0.00  0.00    -0.263 N 
ATOM     24  N   UNL     1      30.947 -24.057 -13.772  0.00  0.00    -0.125 NA
ATOM     25  N   UNL     1      29.641 -24.180 -14.211  0.00  0.00    -0.133 NA
ATOM     26  C   UNL     1      33.877 -23.331 -13.450  0.00  0.00    +0.230 C 
ATOM     27  C   UNL     1      31.660 -23.290 -14.569  0.00  0.00    +0.189 A 
ATOM     28  C   UNL     1      29.433 -23.498 -15.318  0.00  0.00    +0.157 A 
ATOM     29  H   UNL     1      33.372 -22.344 -15.155  0.00  0.00    +0.157 HD
BRANCH  28  30
ATOM     30  S   UNL     1      27.876 -23.465 -16.104  0.00  0.00    -0.114 S 
ATOM     31  H   UNL     1      27.163 -22.396 -15.656  0.00  0.00    +0.109 HD
ENDBRANCH  28  30
ENDBRANCH  20  26
ENDBRANCH   1  20
TORSDOF 8
ENDMDL
MODEL 2
REMARK VINA RESULT:     -10.6      2.885      6.283
REMARK  Name = 449412
REMARK  8 active torsions:
REMARK  status: ('A' for Active; 'I' for Inactive)
REMARK    1  A    between atoms: C_1  and  C_2
REMARK    2  A    between atoms: C_1  and  N_9
REMARK    3  A    between atoms: C_1  and  C_20
REMARK    4  A    between atoms: C_10  and  O_12
REMARK    5  A    between atoms: O_12  and  C_13
REMARK    6  A    between atoms: C_13  and  C_14
REMARK    7  A    between atoms: C_20  and  C_26
REMARK    8  A    between atoms: C_28  and  S_30
REMARK                            x       y       z     vdW  Elec       q    Type
REMARK                         _______ _______ _______ _____ _____    ______ ____
ROOT
ATOM      1  C   UNL     1      31.987 -23.226 -14.614  0.00  0.00    +0.106 C 
ENDROOT
BRANCH   1   2
ATOM      2  C   UNL     1      30.510 -23.260 -14.949  0.00  0.00    -0.004 C 
ATOM      3  C   UNL     1      29.973 -22.321 -15.829  0.00  0.00    -0.003 C 
ATOM      4  C   UNL     1      29.687 -24.230 -14.377  0.00  0.00    -0.003 C 
ATOM      5  C   UNL     1      28.613 -22.351 -16.137  0.00  0.00    -0.000 C 
ATOM      6  C   UNL     1      28.327 -24.261 -14.686  0.00  0.00    -0.000 C 
ATOM      7  C   UNL     1      27.790 -23.321 -15.566  0.00  0.00    -0.000 C 
ENDBRANCH   1   2
BRANCH   1   9
ATOM      8  O   UNL     1      34.543 -21.902 -15.003  0.00  0.00    -0.226 OA
ATOM      9  N   UNL     1      32.783 -23.172 -15.822  0.00  0.00    -0.268 N 
ATOM     10  C   UNL     1      33.990 -22.514 -15.911  0.00  0.00    +0.402 C 
ATOM     11  H   UNL     1      32.443 -23.630 -16.624  0.00  0.00    +0.153 HD
BRANCH  10  12
ATOM     12  O   UNL     1      34.492 -22.646 -17.175  0.00  0.00    -0.430 OA
BRANCH  12  13
ATOM     13  C   UNL     1      33.550 -22.484 -18.241  0.00  0.00    +0.237 C 
BRANCH  13  14
ATOM     14  C   UNL     1      34.013 -21.376 -19.140  0.00  0.00    +0.021 C 
ATOM     15  C   UNL     1      35.375 -21.108 -19.272  0.00  0.00    -0.001 C 
ATOM     16  C   UNL     1      33.080 -20.613 -19.844  0.00  0.00    -0.001 C 
ATOM     17  C   UNL     1      35.806 -20.078 -20.108  0.00  0.00    -0.000 C 
ATOM     18  C   UNL     1      33.510 -19.583 -20.680  0.00  0.00    -0.000 C 
ATOM     19  C   UNL     1      34.873 -19.315 -20.812  0.00  0.00    -0.000 C 
ENDBRANCH  13  14
ENDBRANCH  12  13
ENDBRANCH  10  12
ENDBRANCH   1   9
BRANCH   1  20
ATOM     20  C   UNL     1      32.431 -24.403 -13.733  0.00  0.00    +0.110 C 
BRANCH  20  26
ATOM     21  S   UNL     1      37.182 -25.706 -14.631  0.00  0.00    -0.024 S 
ATOM     22  O   UNL     1      33.935 -23.493 -12.117  0.00  0.00    -0.275 OA
ATOM     23  N   UNL     1      34.803 -24.813 -13.865  0.00  0.00    -0.263 N 
ATOM     24  N   UNL     1      36.792 -24.242 -12.565  0.00  0.00    -0.125 NA
ATOM     25  N   UNL     1      38.154 -24.482 -12.601  0.00  0.00    -0.133 NA
ATOM     26  C   UNL     1      33.812 -24.165 -13.138  0.00  0.00    +0.230 C 
ATOM     27  C   UNL     1      36.168 -24.824 -13.567  0.00  0.00    +0.189 A 
ATOM     28  C   UNL     1      38.491 -25.232 -13.629  0.00  0.00    +0.157 A 
ATOM     29  H   UNL     1      34.516 -25.309 -14.665  0.00  0.00    +0.157 HD
BRANCH  28  30
ATOM     30  S   UNL     1      40.144 -25.699 -13.931  0.00  0.00    -0.114 S 
ATOM     31  H   UNL     1      40.977 -24.930 -13.178  0.00  0.00    +0.109 HD
ENDBRANCH  28  30
ENDBRANCH  20  26
ENDBRANCH   1  20
TORSDOF 8
ENDMDL
MODEL 3
REMARK VINA RESULT:     -10.1      3.768      7.480
REMARK  Name = 449412
REMARK  8 active torsions:
REMARK  status: ('A' for Active; 'I' for Inactive)
REMARK    1  A    between atoms: C_1  and  C_2
REMARK    2  A    between atoms: C_1  and  N_9
REMARK    3  A    between atoms: C_1  and  C_20
REMARK    4  A    between atoms: C_10  and  O_12
REMARK    5  A    between atoms: O_12  and  C_13
REMARK    6  A    between atoms: C_13  and  C_14
REMARK    7  A    between atoms: C_20  and  C_26
REMARK    8  A    between atoms: C_28  and  S_30
REMARK                            x       y       z     vdW  Elec       q    Type
REMARK                         _______ _______ _______ _____ _____    ______ ____
ROOT
ATOM      1  C   UNL     1      34.656 -21.763 -17.321  0.00  0.00    +0.106 C 
ENDROOT
BRANCH   1   2
ATOM      2  C   UNL     1      35.609 -22.385 -16.321  0.00  0.00    -0.004 C 
ATOM      3  C   UNL     1      36.962 -22.044 -16.343  0.00  0.00    -0.003 C 
ATOM      4  C   UNL     1      35.135 -23.297 -15.380  0.00  0.00    -0.003 C 
ATOM      5  C   UNL     1      37.840 -22.616 -15.422  0.00  0.00    -0.000 C 
ATOM      6  C   UNL     1      36.013 -23.869 -14.459  0.00  0.00    -0.000 C 
ATOM      7  C   UNL     1      37.366 -23.528 -14.480  0.00  0.00    -0.000 C 
ENDBRANCH   1   2
BRANCH   1   9
ATOM      8  O   UNL     1      32.234 -20.998 -18.730  0.00  0.00    -0.226 OA
ATOM      9  N   UNL     1      33.340 -22.355 -17.209  0.00  0.00    -0.268 N 
ATOM     10  C   UNL     1      32.244 -21.921 -17.922  0.00  0.00    +0.402 C 
ATOM     11  H   UNL     1      33.222 -23.110 -16.588  0.00  0.00    +0.153 HD
BRANCH  10  12
ATOM     12  O   UNL     1      31.155 -22.679 -17.597  0.00  0.00    -0.430 OA
BRANCH  12  13
ATOM     13  C   UNL     1      30.290 -22.132 -16.596  0.00  0.00    +0.237 C 
BRANCH  13  14
ATOM     14  C   UNL     1      30.367 -22.983 -15.363  0.00  0.00    +0.021 C 
ATOM     15  C   UNL     1      31.172 -22.591 -14.294  0.00  0.00    -0.001 C 
ATOM     16  C   UNL     1      29.633 -24.167 -15.286  0.00  0.00    -0.001 C 
ATOM     17  C   UNL     1      31.245 -23.382 -13.148  0.00  0.00    -0.000 C 
ATOM     18  C   UNL     1      29.705 -24.958 -14.139  0.00  0.00    -0.000 C 
ATOM     19  C   UNL     1      30.510 -24.566 -13.070  0.00  0.00    -0.000 C 
ENDBRANCH  13  14
ENDBRANCH  12  13
ENDBRANCH  10  12
ENDBRANCH   1   9
BRANCH   1  20
ATOM     20  C   UNL     1      35.161 -21.852 -18.769  0.00  0.00    +0.110 C 
BRANCH  20  26
ATOM     21  S   UNL     1      33.804 -18.828 -22.522  0.00  0.00    -0.024 S 
ATOM     22  O   UNL     1      36.424 -19.826 -18.794  0.00  0.00    -0.275 OA
ATOM     23  N   UNL     1      34.762 -20.153 -20.432  0.00  0.00    -0.263 N 
ATOM     24  N   UNL     1      35.694 -17.971 -21.018  0.00  0.00    -0.125 NA
ATOM     25  N   UNL     1      35.505 -16.990 -21.975  0.00  0.00    -0.133 NA
ATOM     26  C   UNL     1      35.526 -20.481 -19.318  0.00  0.00    +0.230 C 
ATOM     27  C   UNL     1      34.871 -18.984 -21.189  0.00  0.00    +0.189 A 
ATOM     28  C   UNL     1      34.548 -17.311 -22.821  0.00  0.00    +0.157 A 
ATOM     29  H   UNL     1      34.081 -20.805 -20.712  0.00  0.00    +0.157 HD
BRANCH  28  30
ATOM     30  S   UNL     1      34.088 -16.263 -24.138  0.00  0.00    -0.114 S 
ATOM     31  H   UNL     1      32.853 -15.748 -23.897  0.00  0.00    +0.109 HD
ENDBRANCH  28  30
ENDBRANCH  20  26
ENDBRANCH   1  20
TORSDOF 8
ENDMDL
MODEL 4
REMARK VINA RESULT:     -10.0      3.273      7.459
REMARK  Name = 449412
REMARK  8 active torsions:
REMARK  status: ('A' for Active; 'I' for Inactive)
REMARK    1  A    between atoms: C_1  and  C_2
REMARK    2  A    between atoms: C_1  and  N_9
REMARK    3  A    between atoms: C_1  and  C_20
REMARK    4  A    between atoms: C_10  and  O_12
REMARK    5  A    between atoms: O_12  and  C_13
REMARK    6  A    between atoms: C_13  and  C_14
REMARK    7  A    between atoms: C_20  and  C_26
REMARK    8  A    between atoms: C_28  and  S_30
REMARK                            x       y       z     vdW  Elec       q    Type
REMARK                         _______ _______ _______ _____ _____    ______ ____
ROOT
ATOM      1  C   UNL     1      35.360 -21.437 -18.890  0.00  0.00    +0.106 C 
ENDROOT
BRANCH   1   2
ATOM      2  C   UNL     1      35.139 -20.318 -19.888  0.00  0.00    -0.004 C 
ATOM      3  C   UNL     1      36.198 -19.481 -20.242  0.00  0.00    -0.003 C 
ATOM      4  C   UNL     1      33.878 -20.124 -20.452  0.00  0.00    -0.003 C 
ATOM      5  C   UNL     1      35.995 -18.451 -21.160  0.00  0.00    -0.000 C 
ATOM      6  C   UNL     1      33.677 -19.094 -21.370  0.00  0.00    -0.000 C 
ATOM      7  C   UNL     1      34.735 -18.258 -21.724  0.00  0.00    -0.000 C 
ENDBRANCH   1   2
BRANCH   1   9
ATOM      8  O   UNL     1      33.332 -23.503 -19.131  0.00  0.00    -0.226 OA
ATOM      9  N   UNL     1      34.184 -21.626 -18.067  0.00  0.00    -0.268 N 
ATOM     10  C   UNL     1      33.273 -22.641 -18.260  0.00  0.00    +0.402 C 
ATOM     11  H   UNL     1      34.026 -20.994 -17.329  0.00  0.00    +0.153 HD
BRANCH  10  12
ATOM     12  O   UNL     1      32.280 -22.551 -17.325  0.00  0.00    -0.430 OA
BRANCH  12  13
ATOM     13  C   UNL     1      32.697 -22.665 -15.959  0.00  0.00    +0.237 C 
BRANCH  13  14
ATOM     14  C   UNL     1      31.615 -23.344 -15.173  0.00  0.00    +0.021 C 
ATOM     15  C   UNL     1      30.301 -23.334 -15.640  0.00  0.00    -0.001 C 
ATOM     16  C   UNL     1      31.924 -23.988 -13.974  0.00  0.00    -0.001 C 
ATOM     17  C   UNL     1      29.295 -23.966 -14.909  0.00  0.00    -0.000 C 
ATOM     18  C   UNL     1      30.919 -24.620 -13.243  0.00  0.00    -0.000 C 
ATOM     19  C   UNL     1      29.604 -24.609 -13.710  0.00  0.00    -0.000 C 
ENDBRANCH  13  14
ENDBRANCH  12  13
ENDBRANCH  10  12
ENDBRANCH   1   9
BRANCH   1  20
ATOM     20  C   UNL     1      36.600 -21.222 -18.010  0.00  0.00    +0.110 C 
BRANCH  20  26
ATOM     21  S   UNL     1      37.417 -24.745 -14.548  0.00  0.00    -0.024 S 
ATOM     22  O   UNL     1      35.631 -20.655 -15.904  0.00  0.00    -0.275 OA
ATOM     23  N   UNL     1      36.811 -22.684 -16.105  0.00  0.00    -0.263 N 
ATOM     24  N   UNL     1      36.051 -22.717 -13.783  0.00  0.00    -0.125 NA
ATOM     25  N   UNL     1      36.133 -23.548 -12.680  0.00  0.00    -0.133 NA
ATOM     26  C   UNL     1      36.292 -21.471 -16.541  0.00  0.00    +0.230 C 
ATOM     27  C   UNL     1      36.678 -23.223 -14.824  0.00  0.00    +0.189 A 
ATOM     28  C   UNL     1      36.820 -24.641 -12.943  0.00  0.00    +0.157 A 
ATOM     29  H   UNL     1      37.322 -23.211 -16.761  0.00  0.00    +0.157 HD
BRANCH  28  30
ATOM     30  S   UNL     1      37.089 -25.875 -11.739  0.00  0.00    -0.114 S 
ATOM     31  H   UNL     1      36.157 -25.760 -10.755  0.00  0.00    +0.109 HD
ENDBRANCH  28  30
ENDBRANCH  20  26
ENDBRANCH   1  20
TORSDOF 8
ENDMDL
MODEL 5
REMARK VINA RESULT:      -9.9      1.449      1.939
REMARK  Name = 449412
REMARK  8 active torsions:
REMARK  status: ('A' for Active; 'I' for Inactive)
REMARK    1  A    between atoms: C_1  and  C_2
REMARK    2  A    between atoms: C_1  and  N_9
REMARK    3  A    between atoms: C_1  and  C_20
REMARK    4  A    between atoms: C_10  and  O_12
REMARK    5  A    between atoms: O_12  and  C_13
REMARK    6  A    between atoms: C_13  and  C_14
REMARK    7  A    between atoms: C_20  and  C_26
REMARK    8  A    between atoms: C_28  and  S_30
REMARK                            x       y       z     vdW  Elec       q    Type
REMARK                         _______ _______ _______ _____ _____    ______ ____
ROOT
ATOM      1  C   UNL     1      34.453 -24.449 -14.118  0.00  0.00    +0.106 C 
ENDROOT
BRANCH   1   2
ATOM      2  C   UNL     1      35.890 -24.473 -13.639  0.00  0.00    -0.004 C 
ATOM      3  C   UNL     1      36.851 -25.188 -14.354  0.00  0.00    -0.003 C 
ATOM      4  C   UNL     1      36.252 -23.782 -12.483  0.00  0.00    -0.003 C 
ATOM      5  C   UNL     1      38.174 -25.211 -13.913  0.00  0.00    -0.000 C 
ATOM      6  C   UNL     1      37.575 -23.805 -12.043  0.00  0.00    -0.000 C 
ATOM      7  C   UNL     1      38.537 -24.519 -12.759  0.00  0.00    -0.000 C 
ENDBRANCH   1   2
BRANCH   1   9
ATOM      8  O   UNL     1      35.195 -21.838 -15.150  0.00  0.00    -0.226 OA
ATOM      9  N   UNL     1      34.379 -23.983 -15.486  0.00  0.00    -0.268 N 
ATOM     10  C   UNL     1      34.755 -22.718 -15.882  0.00  0.00    +0.402 C 
ATOM     11  H   UNL     1      34.040 -24.603 -16.171  0.00  0.00    +0.153 HD
BRANCH  10  12
ATOM     12  O   UNL     1      34.568 -22.585 -17.230  0.00  0.00    -0.430 OA
BRANCH  12  13
ATOM     13  C   UNL     1      35.478 -21.708 -17.902  0.00  0.00    +0.237 C 
BRANCH  13  14
ATOM     14  C   UNL     1      34.739 -20.967 -18.977  0.00  0.00    +0.021 C 
ATOM     15  C   UNL     1      35.441 -20.193 -19.900  0.00  0.00    -0.001 C 
ATOM     16  C   UNL     1      33.349 -21.053 -19.054  0.00  0.00    -0.001 C 
ATOM     17  C   UNL     1      34.754 -19.504 -20.900  0.00  0.00    -0.000 C 
ATOM     18  C   UNL     1      32.661 -20.366 -20.054  0.00  0.00    -0.000 C 
ATOM     19  C   UNL     1      33.364 -19.591 -20.977  0.00  0.00    -0.000 C 
ENDBRANCH  13  14
ENDBRANCH  12  13
ENDBRANCH  10  12
ENDBRANCH   1   9
BRANCH   1  20
ATOM     20  C   UNL     1      33.533 -23.613 -13.217  0.00  0.00    +0.110 C 
BRANCH  20  26
ATOM     21  S   UNL     1      29.723 -22.254 -16.168  0.00  0.00    -0.024 S 
ATOM     22  O   UNL     1      31.530 -24.808 -12.709  0.00  0.00    -0.275 OA
ATOM     23  N   UNL     1      31.500 -23.226 -14.453  0.00  0.00    -0.263 N 
ATOM     24  N   UNL     1      29.197 -24.042 -14.409  0.00  0.00    -0.125 NA
ATOM     25  N   UNL     1      28.010 -23.822 -15.083  0.00  0.00    -0.133 NA
ATOM     26  C   UNL     1      32.069 -23.971 -13.427  0.00  0.00    +0.230 C 
ATOM     27  C   UNL     1      30.170 -23.288 -14.875  0.00  0.00    +0.189 A 
ATOM     28  C   UNL     1      28.145 -22.913 -16.027  0.00  0.00    +0.157 A 
ATOM     29  H   UNL     1      32.090 -22.596 -14.926  0.00  0.00    +0.157 HD
BRANCH  28  30
ATOM     30  S   UNL     1      26.812 -22.430 -17.043  0.00  0.00    -0.114 S 
ATOM     31  H   UNL     1      27.225 -22.375 -18.338  0.00  0.00    +0.109 HD
ENDBRANCH  28  30
ENDBRANCH  20  26
ENDBRANCH   1  20
TORSDOF 8
ENDMDL
MODEL 6
REMARK VINA RESULT:      -9.8      3.032      6.349
REMARK  Name = 449412
REMARK  8 active torsions:
REMARK  status: ('A' for Active; 'I' for Inactive)
REMARK    1  A    between atoms: C_1  and  C_2
REMARK    2  A    between atoms: C_1  and  N_9
REMARK    3  A    between atoms: C_1  and  C_20
REMARK    4  A    between atoms: C_10  and  O_12
REMARK    5  A    between atoms: O_12  and  C_13
REMARK    6  A    between atoms: C_13  and  C_14
REMARK    7  A    between atoms: C_20  and  C_26
REMARK    8  A    between atoms: C_28  and  S_30
REMARK                            x       y       z     vdW  Elec       q    Type
REMARK                         _______ _______ _______ _____ _____    ______ ____
ROOT
ATOM      1  C   UNL     1      32.100 -22.659 -15.455  0.00  0.00    +0.106 C 
ENDROOT
BRANCH   1   2
ATOM      2  C   UNL     1      30.628 -23.008 -15.531  0.00  0.00    -0.004 C 
ATOM      3  C   UNL     1      29.758 -22.204 -16.267  0.00  0.00    -0.003 C 
ATOM      4  C   UNL     1      30.142 -24.133 -14.864  0.00  0.00    -0.003 C 
ATOM      5  C   UNL     1      28.402 -22.525 -16.337  0.00  0.00    -0.000 C 
ATOM      6  C   UNL     1      28.787 -24.454 -14.935  0.00  0.00    -0.000 C 
ATOM      7  C   UNL     1      27.917 -23.650 -15.672  0.00  0.00    -0.000 C 
ENDBRANCH   1   2
BRANCH   1   9
ATOM      8  O   UNL     1      32.912 -23.846 -17.978  0.00  0.00    -0.226 OA
ATOM      9  N   UNL     1      32.526 -21.978 -16.659  0.00  0.00    -0.268 N 
ATOM     10  C   UNL     1      32.895 -22.630 -17.815  0.00  0.00    +0.402 C 
ATOM     11  H   UNL     1      32.553 -20.994 -16.652  0.00  0.00    +0.153 HD
BRANCH  10  12
ATOM     12  O   UNL     1      33.242 -21.714 -18.768  0.00  0.00    -0.430 OA
BRANCH  12  13
ATOM     13  C   UNL     1      34.641 -21.613 -19.056  0.00  0.00    +0.237 C 
BRANCH  13  14
ATOM     14  C   UNL     1      34.874 -20.424 -19.940  0.00  0.00    +0.021 C 
ATOM     15  C   UNL     1      36.140 -19.844 -20.010  0.00  0.00    -0.001 C 
ATOM     16  C   UNL     1      33.824 -19.898 -20.693  0.00  0.00    -0.001 C 
ATOM     17  C   UNL     1      36.357 -18.738 -20.832  0.00  0.00    -0.000 C 
ATOM     18  C   UNL     1      34.040 -18.793 -21.515  0.00  0.00    -0.000 C 
ATOM     19  C   UNL     1      35.306 -18.212 -21.585  0.00  0.00    -0.000 C 
ENDBRANCH  13  14
ENDBRANCH  12  13
ENDBRANCH  10  12
ENDBRANCH   1   9
BRANCH   1  20
ATOM     20  C   UNL     1      32.994 -23.878 -15.186  0.00  0.00    +0.110 C 
BRANCH  20  26
ATOM     21  S   UNL     1      37.451 -26.051 -14.488  0.00  0.00    -0.024 S 
ATOM     22  O   UNL     1      34.725 -22.280 -14.801  0.00  0.00    -0.275 OA
ATOM     23  N   UNL     1      35.275 -24.570 -14.826  0.00  0.00    -0.263 N 
ATOM     24  N   UNL     1      37.417 -23.493 -14.351  0.00  0.00    -0.125 NA
ATOM     25  N   UNL     1      38.729 -23.861 -14.116  0.00  0.00    -0.133 NA
ATOM     26  C   UNL     1      34.436 -23.467 -14.925  0.00  0.00    +0.230 C 
ATOM     27  C   UNL     1      36.646 -24.539 -14.560  0.00  0.00    +0.189 A 
ATOM     28  C   UNL     1      38.884 -25.168 -14.159  0.00  0.00    +0.157 A 
ATOM     29  H   UNL     1      34.865 -25.455 -14.957  0.00  0.00    +0.157 HD
BRANCH  28  30
ATOM     30  S   UNL     1      40.435 -25.924 -13.899  0.00  0.00    -0.114 S 
ATOM     31  H   UNL     1      41.096 -25.273 -12.904  0.00  0.00    +0.109 HD
ENDBRANCH  28  30
ENDBRANCH  20  26
ENDBRANCH   1  20
TORSDOF 8
ENDMDL
MODEL 7
REMARK VINA RESULT:      -9.8      2.969      6.535
REMARK  Name = 449412
REMARK  8 active torsions:
REMARK  status: ('A' for Active; 'I' for Inactive)
REMARK    1  A    between atoms: C_1  and  C_2
REMARK    2  A    between atoms: C_1  and  N_9
REMARK    3  A    between atoms: C_1  and  C_20
REMARK    4  A    between atoms: C_10  and  O_12
REMARK    5  A    between atoms: O_12  and  C_13
REMARK    6  A    between atoms: C_13  and  C_14
REMARK    7  A    between atoms: C_20  and  C_26
REMARK    8  A    between atoms: C_28  and  S_30
REMARK                            x       y       z     vdW  Elec       q    Type
REMARK                         _______ _______ _______ _____ _____    ______ ____
ROOT
ATOM      1  C   UNL     1      30.613 -23.041 -15.560  0.00  0.00    +0.106 C 
ENDROOT
BRANCH   1   2
ATOM      2  C   UNL     1      29.157 -22.636 -15.673  0.00  0.00    -0.004 C 
ATOM      3  C   UNL     1      28.447 -22.907 -16.843  0.00  0.00    -0.003 C 
ATOM      4  C   UNL     1      28.527 -21.993 -14.608  0.00  0.00    -0.003 C 
ATOM      5  C   UNL     1      27.107 -22.534 -16.947  0.00  0.00    -0.000 C 
ATOM      6  C   UNL     1      27.187 -21.621 -14.713  0.00  0.00    -0.000 C 
ATOM      7  C   UNL     1      26.477 -21.892 -15.883  0.00  0.00    -0.000 C 
ENDBRANCH   1   2
BRANCH   1   9
ATOM      8  O   UNL     1      33.410 -22.465 -16.088  0.00  0.00    -0.226 OA
ATOM      9  N   UNL     1      31.271 -22.944 -16.845  0.00  0.00    -0.268 N 
ATOM     10  C   UNL     1      32.611 -22.664 -16.997  0.00  0.00    +0.402 C 
ATOM     11  H   UNL     1      30.731 -23.086 -17.656  0.00  0.00    +0.153 HD
BRANCH  10  12
ATOM     12  O   UNL     1      32.927 -22.641 -18.327  0.00  0.00    -0.430 OA
BRANCH  12  13
ATOM     13  C   UNL     1      32.464 -21.502 -19.060  0.00  0.00    +0.237 C 
BRANCH  13  14
ATOM     14  C   UNL     1      33.646 -20.756 -19.603  0.00  0.00    +0.021 C 
ATOM     15  C   UNL     1      34.933 -21.080 -19.176  0.00  0.00    -0.001 C 
ATOM     16  C   UNL     1      33.458 -19.736 -20.537  0.00  0.00    -0.001 C 
ATOM     17  C   UNL     1      36.032 -20.386 -19.682  0.00  0.00    -0.000 C 
ATOM     18  C   UNL     1      34.556 -19.042 -21.044  0.00  0.00    -0.000 C 
ATOM     19  C   UNL     1      35.844 -19.367 -20.616  0.00  0.00    -0.000 C 
ENDBRANCH  13  14
ENDBRANCH  12  13
ENDBRANCH  10  12
ENDBRANCH   1   9
BRANCH   1  20
ATOM     20  C   UNL     1      30.802 -24.445 -14.967  0.00  0.00    +0.110 C 
BRANCH  20  26
ATOM     21  S   UNL     1      35.645 -24.107 -13.741  0.00  0.00    -0.024 S 
ATOM     22  O   UNL     1      31.139 -24.512 -12.604  0.00  0.00    -0.275 OA
ATOM     23  N   UNL     1      33.012 -24.289 -14.016  0.00  0.00    -0.263 N 
ATOM     24  N   UNL     1      34.006 -24.340 -11.785  0.00  0.00    -0.125 NA
ATOM     25  N   UNL     1      35.264 -24.279 -11.213  0.00  0.00    -0.133 NA
ATOM     26  C   UNL     1      31.661 -24.410 -13.712  0.00  0.00    +0.230 C 
ATOM     27  C   UNL     1      34.063 -24.261 -13.098  0.00  0.00    +0.189 A 
ATOM     28  C   UNL     1      36.209 -24.157 -12.122  0.00  0.00    +0.157 A 
ATOM     29  H   UNL     1      33.248 -24.217 -14.969  0.00  0.00    +0.157 HD
BRANCH  28  30
ATOM     30  S   UNL     1      37.897 -24.056 -11.694  0.00  0.00    -0.114 S 
ATOM     31  H   UNL     1      38.585 -23.451 -12.699  0.00  0.00    +0.109 HD
ENDBRANCH  28  30
ENDBRANCH  20  26
ENDBRANCH   1  20
TORSDOF 8
ENDMDL
MODEL 8
REMARK VINA RESULT:      -9.6      2.902      6.398
REMARK  Name = 449412
REMARK  8 active torsions:
REMARK  status: ('A' for Active; 'I' for Inactive)
REMARK    1  A    between atoms: C_1  and  C_2
REMARK    2  A    between atoms: C_1  and  N_9
REMARK    3  A    between atoms: C_1  and  C_20
REMARK    4  A    between atoms: C_10  and  O_12
REMARK    5  A    between atoms: O_12  and  C_13
REMARK    6  A    between atoms: C_13  and  C_14
REMARK    7  A    between atoms: C_20  and  C_26
REMARK    8  A    between atoms: C_28  and  S_30
REMARK                            x       y       z     vdW  Elec       q    Type
REMARK                         _______ _______ _______ _____ _____    ______ ____
ROOT
ATOM      1  C   UNL     1      34.476 -22.794 -14.633  0.00  0.00    +0.106 C 
ENDROOT
BRANCH   1   2
ATOM      2  C   UNL     1      35.550 -23.407 -13.757  0.00  0.00    -0.004 C 
ATOM      3  C   UNL     1      36.135 -24.620 -14.118  0.00  0.00    -0.003 C 
ATOM      4  C   UNL     1      35.953 -22.757 -12.591  0.00  0.00    -0.003 C 
ATOM      5  C   UNL     1      37.123 -25.185 -13.312  0.00  0.00    -0.000 C 
ATOM      6  C   UNL     1      36.942 -23.322 -11.786  0.00  0.00    -0.000 C 
ATOM      7  C   UNL     1      37.527 -24.536 -12.146  0.00  0.00    -0.000 C 
ENDBRANCH   1   2
BRANCH   1   9
ATOM      8  O   UNL     1      32.643 -24.821 -13.650  0.00  0.00    -0.226 OA
ATOM      9  N   UNL     1      33.255 -22.596 -13.881  0.00  0.00    -0.268 N 
ATOM     10  C   UNL     1      32.445 -23.626 -13.456  0.00  0.00    +0.402 C 
ATOM     11  H   UNL     1      32.989 -21.674 -13.661  0.00  0.00    +0.153 HD
BRANCH  10  12
ATOM     12  O   UNL     1      31.375 -23.117 -12.775  0.00  0.00    -0.430 OA
BRANCH  12  13
ATOM     13  C   UNL     1      30.174 -23.894 -12.829  0.00  0.00    +0.237 C 
BRANCH  13  14
ATOM     14  C   UNL     1      29.451 -23.590 -14.108  0.00  0.00    +0.021 C 
ATOM     15  C   UNL     1      28.838 -24.617 -14.824  0.00  0.00    -0.001 C 
ATOM     16  C   UNL     1      29.392 -22.278 -14.580  0.00  0.00    -0.001 C 
ATOM     17  C   UNL     1      28.166 -24.334 -16.013  0.00  0.00    -0.000 C 
ATOM     18  C   UNL     1      28.720 -21.995 -15.769  0.00  0.00    -0.000 C 
ATOM     19  C   UNL     1      28.107 -23.023 -16.486  0.00  0.00    -0.000 C 
ENDBRANCH  13  14
ENDBRANCH  12  13
ENDBRANCH  10  12
ENDBRANCH   1   9
BRANCH   1  20
ATOM     20  C   UNL     1      34.195 -23.612 -15.902  0.00  0.00    +0.110 C 
BRANCH  20  26
ATOM     21  S   UNL     1      35.020 -20.660 -19.862  0.00  0.00    -0.024 S 
ATOM     22  O   UNL     1      32.166 -22.773 -16.837  0.00  0.00    -0.275 OA
ATOM     23  N   UNL     1      34.213 -22.169 -17.833  0.00  0.00    -0.263 N 
ATOM     24  N   UNL     1      32.567 -20.981 -19.193  0.00  0.00    -0.125 NA
ATOM     25  N   UNL     1      32.548 -20.131 -20.284  0.00  0.00    -0.133 NA
ATOM     26  C   UNL     1      33.391 -22.812 -16.916  0.00  0.00    +0.230 C 
ATOM     27  C   UNL     1      33.794 -21.332 -18.869  0.00  0.00    +0.189 A 
ATOM     28  C   UNL     1      33.762 -19.883 -20.731  0.00  0.00    +0.157 A 
ATOM     29  H   UNL     1      35.182 -22.319 -17.744  0.00  0.00    +0.157 HD
BRANCH  28  30
ATOM     30  S   UNL     1      34.048 -18.840 -22.100  0.00  0.00    -0.114 S 
ATOM     31  H   UNL     1      34.163 -19.594 -23.227  0.00  0.00    +0.109 HD
ENDBRANCH  28  30
ENDBRANCH  20  26
ENDBRANCH   1  20
TORSDOF 8
ENDMDL
MODEL 9
REMARK VINA RESULT:      -9.6      2.720      6.659
REMARK  Name = 449412
REMARK  8 active torsions:
REMARK  status: ('A' for Active; 'I' for Inactive)
REMARK    1  A    between atoms: C_1  and  C_2
REMARK    2  A    between atoms: C_1  and  N_9
REMARK    3  A    between atoms: C_1  and  C_20
REMARK    4  A    between atoms: C_10  and  O_12
REMARK    5  A    between atoms: O_12  and  C_13
REMARK    6  A    between atoms: C_13  and  C_14
REMARK    7  A    between atoms: C_20  and  C_26
REMARK    8  A    between atoms: C_28  and  S_30
REMARK                            x       y       z     vdW  Elec       q    Type
REMARK                         _______ _______ _______ _____ _____    ______ ____
ROOT
ATOM      1  C   UNL     1      35.499 -22.387 -14.675  0.00  0.00    +0.106 C 
ENDROOT
BRANCH   1   2
ATOM      2  C   UNL     1      36.620 -23.181 -14.036  0.00  0.00    -0.004 C 
ATOM      3  C   UNL     1      37.370 -24.071 -14.804  0.00  0.00    -0.003 C 
ATOM      4  C   UNL     1      36.902 -23.022 -12.679  0.00  0.00    -0.003 C 
ATOM      5  C   UNL     1      38.402 -24.802 -14.216  0.00  0.00    -0.000 C 
ATOM      6  C   UNL     1      37.934 -23.752 -12.092  0.00  0.00    -0.000 C 
ATOM      7  C   UNL     1      38.684 -24.643 -12.860  0.00  0.00    -0.000 C 
ENDBRANCH   1   2
BRANCH   1   9
ATOM      8  O   UNL     1      33.895 -24.766 -14.225  0.00  0.00    -0.226 OA
ATOM      9  N   UNL     1      34.283 -22.503 -13.898  0.00  0.00    -0.268 N 
ATOM     10  C   UNL     1      33.587 -23.682 -13.741  0.00  0.00    +0.402 C 
ATOM     11  H   UNL     1      33.934 -21.695 -13.457  0.00  0.00    +0.153 HD
BRANCH  10  12
ATOM     12  O   UNL     1      32.490 -23.466 -12.955  0.00  0.00    -0.430 OA
BRANCH  12  13
ATOM     13  C   UNL     1      31.583 -22.458 -13.414  0.00  0.00    +0.237 C 
BRANCH  13  14
ATOM     14  C   UNL     1      30.403 -23.119 -14.061  0.00  0.00    +0.021 C 
ATOM     15  C   UNL     1      29.642 -22.425 -15.001  0.00  0.00    -0.001 C 
ATOM     16  C   UNL     1      30.066 -24.431 -13.723  0.00  0.00    -0.001 C 
ATOM     17  C   UNL     1      28.544 -23.040 -15.603  0.00  0.00    -0.000 C 
ATOM     18  C   UNL     1      28.969 -25.047 -14.325  0.00  0.00    -0.000 C 
ATOM     19  C   UNL     1      28.208 -24.352 -15.265  0.00  0.00    -0.000 C 
ENDBRANCH  13  14
ENDBRANCH  12  13
ENDBRANCH  10  12
ENDBRANCH   1   9
BRANCH   1  20
ATOM     20  C   UNL     1      35.239 -22.783 -16.136  0.00  0.00    +0.110 C 
BRANCH  20  26
ATOM     21  S   UNL     1      33.769 -20.472 -20.328  0.00  0.00    -0.024 S 
ATOM     22  O   UNL     1      36.875 -21.237 -16.933  0.00  0.00    -0.275 OA
ATOM     23  N   UNL     1      34.859 -21.478 -18.127  0.00  0.00    -0.263 N 
ATOM     24  N   UNL     1      36.088 -19.829 -19.447  0.00  0.00    -0.125 NA
ATOM     25  N   UNL     1      35.908 -19.086 -20.599  0.00  0.00    -0.133 NA
ATOM     26  C   UNL     1      35.762 -21.730 -17.102  0.00  0.00    +0.230 C 
ATOM     27  C   UNL     1      35.047 -20.593 -19.191  0.00  0.00    +0.189 A 
ATOM     28  C   UNL     1      34.740 -19.326 -21.158  0.00  0.00    +0.157 A 
ATOM     29  H   UNL     1      34.006 -21.970 -18.100  0.00  0.00    +0.157 HD
BRANCH  28  30
ATOM     30  S   UNL     1      34.237 -18.532 -22.627  0.00  0.00    -0.114 S 
ATOM     31  H   UNL     1      32.908 -18.250 -22.558  0.00  0.00    +0.109 HD
ENDBRANCH  28  30
ENDBRANCH  20  26
ENDBRANCH   1  20
TORSDOF 8
ENDMDL
