MODEL 1
REMARK VINA RESULT:     -10.6      0.000      0.000
REMARK  Name = 24755476
REMARK  3 active torsions:
REMARK  status: ('A' for Active; 'I' for Inactive)
REMARK    1  A    between atoms: N_2  and  C_24
REMARK    2  A    between atoms: C_5  and  C_14
REMARK    3  A    between atoms: C_15  and  C_18
REMARK                            x       y       z     vdW  Elec       q    Type
REMARK                         _______ _______ _______ _____ _____    ______ ____
ROOT
ATOM      1  S   UNL     1      33.293 -21.591 -18.738  0.00  0.00    -0.038 S 
ATOM      2  N   UNL     1      34.170 -20.146 -20.785  0.00  0.00    -0.305 N 
ATOM      3  N   UNL     1      35.658 -20.595 -19.007  0.00  0.00    -0.384 NA
ATOM      4  C   UNL     1      34.427 -21.884 -17.472  0.00  0.00    +0.059 C 
ATOM      5  C   UNL     1      35.337 -22.702 -15.402  0.00  0.00    +0.007 C 
ATOM      6  C   UNL     1      35.641 -21.271 -17.795  0.00  0.00    +0.122 C 
ATOM      7  C   UNL     1      34.483 -20.697 -19.583  0.00  0.00    +0.211 C 
ATOM      8  C   UNL     1      34.255 -22.605 -16.279  0.00  0.00    +0.007 C 
ATOM      9  C   UNL     1      36.555 -22.101 -15.702  0.00  0.00    -0.020 C 
ATOM     10  C   UNL     1      36.719 -21.385 -16.891  0.00  0.00    +0.085 C 
ATOM     11  H   UNL     1      33.258 -20.284 -21.129  0.00  0.00    +0.150 HD
ENDROOT
BRANCH   5  14
ATOM     12  O   UNL     1      33.987 -23.306 -13.541  0.00  0.00    -0.323 OA
ATOM     13  N   UNL     1      35.278 -24.695 -12.307  0.00  0.00    -0.241 NA
ATOM     14  C   UNL     1      35.188 -23.439 -14.169  0.00  0.00    +0.179 C 
ATOM     15  C   UNL     1      35.968 -24.282 -13.418  0.00  0.00    +0.090 C 
ATOM     16  C   UNL     1      34.118 -24.089 -12.434  0.00  0.00    +0.272 C 
BRANCH  15  18
ATOM     17  F   UNL     1      36.509 -26.330 -15.250  0.00  0.00    -0.204 F 
ATOM     18  C   UNL     1      37.304 -24.686 -13.726  0.00  0.00    +0.043 C 
ATOM     19  C   UNL     1      37.534 -25.710 -14.646  0.00  0.00    +0.141 C 
ATOM     20  C   UNL     1      38.380 -24.052 -13.106  0.00  0.00    +0.003 C 
ATOM     21  C   UNL     1      38.839 -26.099 -14.945  0.00  0.00    +0.030 C 
ATOM     22  C   UNL     1      39.687 -24.441 -13.405  0.00  0.00    +0.000 C 
ATOM     23  C   UNL     1      39.915 -25.465 -14.324  0.00  0.00    +0.002 C 
ENDBRANCH  15  18
ENDBRANCH   5  14
BRANCH   2  24
ATOM     24  C   UNL     1      35.091 -19.362 -21.600  0.00  0.00    +0.072 C 
ATOM     25  C   UNL     1      34.517 -19.198 -23.002  0.00  0.00    +0.021 C 
ATOM     26  C   UNL     1      35.327 -18.013 -20.936  0.00  0.00    +0.021 C 
ENDBRANCH   2  24
TORSDOF 3
ENDMDL
MODEL 2
REMARK VINA RESULT:     -10.4      1.609      2.144
REMARK  Name = 24755476
REMARK  3 active torsions:
REMARK  status: ('A' for Active; 'I' for Inactive)
REMARK    1  A    between atoms: N_2  and  C_24
REMARK    2  A    between atoms: C_5  and  C_14
REMARK    3  A    between atoms: C_15  and  C_18
REMARK                            x       y       z     vdW  Elec       q    Type
REMARK                         _______ _______ _______ _____ _____    ______ ____
ROOT
ATOM      1  S   UNL     1      32.418 -20.814 -19.660  0.00  0.00    -0.038 S 
ATOM      2  N   UNL     1      33.796 -19.484 -21.498  0.00  0.00    -0.305 N 
ATOM      3  N   UNL     1      34.967 -20.419 -19.673  0.00  0.00    -0.384 NA
ATOM      4  C   UNL     1      33.330 -21.472 -18.353  0.00  0.00    +0.059 C 
ATOM      5  C   UNL     1      33.828 -22.642 -16.311  0.00  0.00    +0.007 C 
ATOM      6  C   UNL     1      34.681 -21.158 -18.534  0.00  0.00    +0.122 C 
ATOM      7  C   UNL     1      33.859 -20.183 -20.334  0.00  0.00    +0.211 C 
ATOM      8  C   UNL     1      32.884 -22.215 -17.248  0.00  0.00    +0.007 C 
ATOM      9  C   UNL     1      35.177 -22.341 -16.470  0.00  0.00    -0.020 C 
ATOM     10  C   UNL     1      35.614 -21.601 -17.573  0.00  0.00    +0.085 C 
ATOM     11  H   UNL     1      32.913 -19.365 -21.915  0.00  0.00    +0.150 HD
ENDROOT
BRANCH   5  14
ATOM     12  O   UNL     1      32.055 -23.417 -14.930  0.00  0.00    -0.323 OA
ATOM     13  N   UNL     1      33.059 -24.673 -13.339  0.00  0.00    -0.241 NA
ATOM     14  C   UNL     1      33.397 -23.407 -15.166  0.00  0.00    +0.179 C 
ATOM     15  C   UNL     1      34.002 -24.170 -14.199  0.00  0.00    +0.090 C 
ATOM     16  C   UNL     1      31.932 -24.196 -13.820  0.00  0.00    +0.272 C 
BRANCH  15  18
ATOM     17  F   UNL     1      35.673 -22.541 -12.649  0.00  0.00    -0.204 F 
ATOM     18  C   UNL     1      35.405 -24.420 -14.084  0.00  0.00    +0.043 C 
ATOM     19  C   UNL     1      36.204 -23.587 -13.301  0.00  0.00    +0.141 C 
ATOM     20  C   UNL     1      35.973 -25.502 -14.755  0.00  0.00    +0.003 C 
ATOM     21  C   UNL     1      37.573 -23.836 -13.190  0.00  0.00    +0.030 C 
ATOM     22  C   UNL     1      37.342 -25.751 -14.645  0.00  0.00    +0.000 C 
ATOM     23  C   UNL     1      38.141 -24.917 -13.863  0.00  0.00    +0.002 C 
ENDBRANCH  15  18
ENDBRANCH   5  14
BRANCH   2  24
ATOM     24  C   UNL     1      34.948 -18.895 -22.172  0.00  0.00    +0.072 C 
ATOM     25  C   UNL     1      34.663 -18.784 -23.664  0.00  0.00    +0.021 C 
ATOM     26  C   UNL     1      35.246 -17.533 -21.560  0.00  0.00    +0.021 C 
ENDBRANCH   2  24
TORSDOF 3
ENDMDL
MODEL 3
REMARK VINA RESULT:     -10.4      3.203      5.446
REMARK  Name = 24755476
REMARK  3 active torsions:
REMARK  status: ('A' for Active; 'I' for Inactive)
REMARK    1  A    between atoms: N_2  and  C_24
REMARK    2  A    between atoms: C_5  and  C_14
REMARK    3  A    between atoms: C_15  and  C_18
REMARK                            x       y       z     vdW  Elec       q    Type
REMARK                         _______ _______ _______ _____ _____    ______ ____
ROOT
ATOM      1  S   UNL     1      35.747 -20.516 -19.760  0.00  0.00    -0.038 S 
ATOM      2  N   UNL     1      35.000 -19.072 -21.858  0.00  0.00    -0.305 N 
ATOM      3  N   UNL     1      33.324 -20.021 -20.491  0.00  0.00    -0.384 NA
ATOM      4  C   UNL     1      34.478 -21.181 -18.801  0.00  0.00    +0.059 C 
ATOM      5  C   UNL     1      33.376 -22.396 -17.043  0.00  0.00    +0.007 C 
ATOM      6  C   UNL     1      33.247 -20.806 -19.350  0.00  0.00    +0.122 C 
ATOM      7  C   UNL     1      34.583 -19.808 -20.794  0.00  0.00    +0.211 C 
ATOM      8  C   UNL     1      34.563 -21.976 -17.647  0.00  0.00    +0.007 C 
ATOM      9  C   UNL     1      32.140 -22.036 -17.570  0.00  0.00    -0.020 C 
ATOM     10  C   UNL     1      32.062 -21.245 -18.720  0.00  0.00    +0.085 C 
ATOM     11  H   UNL     1      35.969 -18.973 -21.995  0.00  0.00    +0.150 HD
ENDROOT
BRANCH   5  14
ATOM     12  O   UNL     1      34.678 -23.623 -15.477  0.00  0.00    -0.323 OA
ATOM     13  N   UNL     1      33.184 -24.449 -13.993  0.00  0.00    -0.241 NA
ATOM     14  C   UNL     1      33.435 -23.213 -15.854  0.00  0.00    +0.179 C 
ATOM     15  C   UNL     1      32.531 -23.716 -14.951  0.00  0.00    +0.090 C 
ATOM     16  C   UNL     1      34.444 -24.358 -14.354  0.00  0.00    +0.272 C 
BRANCH  15  18
ATOM     17  F   UNL     1      31.340 -21.380 -13.967  0.00  0.00    -0.204 F 
ATOM     18  C   UNL     1      31.116 -23.519 -14.983  0.00  0.00    +0.043 C 
ATOM     19  C   UNL     1      30.560 -22.341 -14.484  0.00  0.00    +0.141 C 
ATOM     20  C   UNL     1      30.290 -24.508 -15.516  0.00  0.00    +0.003 C 
ATOM     21  C   UNL     1      29.178 -22.152 -14.518  0.00  0.00    +0.030 C 
ATOM     22  C   UNL     1      28.907 -24.320 -15.550  0.00  0.00    +0.000 C 
ATOM     23  C   UNL     1      28.352 -23.142 -15.051  0.00  0.00    +0.002 C 
ENDBRANCH  15  18
ENDBRANCH   5  14
BRANCH   2  24
ATOM     24  C   UNL     1      34.110 -18.421 -22.812  0.00  0.00    +0.072 C 
ATOM     25  C   UNL     1      34.560 -16.981 -23.026  0.00  0.00    +0.021 C 
ATOM     26  C   UNL     1      34.115 -19.203 -24.119  0.00  0.00    +0.021 C 
ENDBRANCH   2  24
TORSDOF 3
ENDMDL
MODEL 4
REMARK VINA RESULT:     -10.4      4.782     10.387
REMARK  Name = 24755476
REMARK  3 active torsions:
REMARK  status: ('A' for Active; 'I' for Inactive)
REMARK    1  A    between atoms: N_2  and  C_24
REMARK    2  A    between atoms: C_5  and  C_14
REMARK    3  A    between atoms: C_15  and  C_18
REMARK                            x       y       z     vdW  Elec       q    Type
REMARK                         _______ _______ _______ _____ _____    ______ ____
ROOT
ATOM      1  S   UNL     1      33.635 -21.162 -19.221  0.00  0.00    -0.038 S 
ATOM      2  N   UNL     1      35.190 -22.088 -17.279  0.00  0.00    -0.305 N 
ATOM      3  N   UNL     1      36.099 -20.526 -18.799  0.00  0.00    -0.384 NA
ATOM      4  C   UNL     1      34.357 -20.025 -20.298  0.00  0.00    +0.059 C 
ATOM      5  C   UNL     1      34.589 -18.483 -22.129  0.00  0.00    +0.007 C 
ATOM      6  C   UNL     1      35.683 -19.808 -19.911  0.00  0.00    +0.122 C 
ATOM      7  C   UNL     1      35.109 -21.266 -18.358  0.00  0.00    +0.211 C 
ATOM      8  C   UNL     1      33.791 -19.372 -21.405  0.00  0.00    +0.007 C 
ATOM      9  C   UNL     1      35.911 -18.251 -21.763  0.00  0.00    -0.020 C 
ATOM     10  C   UNL     1      36.468 -18.906 -20.661  0.00  0.00    +0.085 C 
ATOM     11  H   UNL     1      34.386 -22.600 -17.031  0.00  0.00    +0.150 HD
ENDROOT
BRANCH   5  14
ATOM     12  O   UNL     1      33.785 -18.569 -24.364  0.00  0.00    -0.323 OA
ATOM     13  N   UNL     1      33.179 -16.445 -24.851  0.00  0.00    -0.241 NA
ATOM     14  C   UNL     1      34.033 -17.797 -23.270  0.00  0.00    +0.179 C 
ATOM     15  C   UNL     1      33.664 -16.509 -23.569  0.00  0.00    +0.090 C 
ATOM     16  C   UNL     1      33.276 -17.688 -25.268  0.00  0.00    +0.272 C 
BRANCH  15  18
ATOM     17  F   UNL     1      33.464 -13.878 -24.509  0.00  0.00    -0.204 F 
ATOM     18  C   UNL     1      33.759 -15.384 -22.692  0.00  0.00    +0.043 C 
ATOM     19  C   UNL     1      33.653 -14.088 -23.198  0.00  0.00    +0.141 C 
ATOM     20  C   UNL     1      33.957 -15.585 -21.326  0.00  0.00    +0.003 C 
ATOM     21  C   UNL     1      33.745 -12.994 -22.337  0.00  0.00    +0.030 C 
ATOM     22  C   UNL     1      34.049 -14.491 -20.465  0.00  0.00    +0.000 C 
ATOM     23  C   UNL     1      33.944 -13.196 -20.971  0.00  0.00    +0.002 C 
ENDBRANCH  15  18
ENDBRANCH   5  14
BRANCH   2  24
ATOM     24  C   UNL     1      36.385 -22.267 -16.463  0.00  0.00    +0.072 C 
ATOM     25  C   UNL     1      37.010 -20.908 -16.171  0.00  0.00    +0.021 C 
ATOM     26  C   UNL     1      36.013 -22.995 -15.179  0.00  0.00    +0.021 C 
ENDBRANCH   2  24
TORSDOF 3
ENDMDL
MODEL 5
REMARK VINA RESULT:     -10.3      1.312      1.987
REMARK  Name = 24755476
REMARK  3 active torsions:
REMARK  status: ('A' for Active; 'I' for Inactive)
REMARK    1  A    between atoms: N_2  and  C_24
REMARK    2  A    between atoms: C_5  and  C_14
REMARK    3  A    between atoms: C_15  and  C_18
REMARK                            x       y       z     vdW  Elec       q    Type
REMARK                         _______ _______ _______ _____ _____    ______ ____
ROOT
ATOM      1  S   UNL     1      36.385 -21.222 -17.285  0.00  0.00    -0.038 S 
ATOM      2  N   UNL     1      35.170 -20.543 -19.545  0.00  0.00    -0.305 N 
ATOM      3  N   UNL     1      33.975 -21.837 -17.972  0.00  0.00    -0.384 NA
ATOM      4  C   UNL     1      35.460 -22.166 -16.178  0.00  0.00    +0.059 C 
ATOM      5  C   UNL     1      34.892 -23.415 -14.203  0.00  0.00    +0.007 C 
ATOM      6  C   UNL     1      34.192 -22.395 -16.720  0.00  0.00    +0.122 C 
ATOM      7  C   UNL     1      35.056 -21.201 -18.362  0.00  0.00    +0.211 C 
ATOM      8  C   UNL     1      35.829 -22.668 -14.919  0.00  0.00    +0.007 C 
ATOM      9  C   UNL     1      33.623 -23.656 -14.721  0.00  0.00    -0.020 C 
ATOM     10  C   UNL     1      33.263 -23.154 -15.976  0.00  0.00    +0.085 C 
ATOM     11  H   UNL     1      36.025 -20.097 -19.741  0.00  0.00    +0.150 HD
ENDROOT
BRANCH   5  14
ATOM     12  O   UNL     1      34.308 -23.788 -11.928  0.00  0.00    -0.323 OA
ATOM     13  N   UNL     1      36.089 -24.858 -11.034  0.00  0.00    -0.241 NA
ATOM     14  C   UNL     1      35.244 -23.942 -12.906  0.00  0.00    +0.179 C 
ATOM     15  C   UNL     1      36.323 -24.592 -12.359  0.00  0.00    +0.090 C 
ATOM     16  C   UNL     1      34.887 -24.362 -10.838  0.00  0.00    +0.272 C 
BRANCH  15  18
ATOM     17  F   UNL     1      36.429 -26.777 -14.109  0.00  0.00    -0.204 F 
ATOM     18  C   UNL     1      37.523 -24.950 -13.048  0.00  0.00    +0.043 C 
ATOM     19  C   UNL     1      37.536 -26.045 -13.913  0.00  0.00    +0.141 C 
ATOM     20  C   UNL     1      38.683 -24.201 -12.855  0.00  0.00    +0.003 C 
ATOM     21  C   UNL     1      38.709 -26.390 -14.584  0.00  0.00    +0.030 C 
ATOM     22  C   UNL     1      39.857 -24.545 -13.526  0.00  0.00    +0.000 C 
ATOM     23  C   UNL     1      39.869 -25.640 -14.390  0.00  0.00    +0.002 C 
ENDBRANCH  15  18
ENDBRANCH   5  14
BRANCH   2  24
ATOM     24  C   UNL     1      34.114 -20.453 -20.547  0.00  0.00    +0.072 C 
ATOM     25  C   UNL     1      32.776 -20.221 -19.857  0.00  0.00    +0.021 C 
ATOM     26  C   UNL     1      34.439 -19.327 -21.520  0.00  0.00    +0.021 C 
ENDBRANCH   2  24
TORSDOF 3
ENDMDL
MODEL 6
REMARK VINA RESULT:      -9.9      2.809      5.227
REMARK  Name = 24755476
REMARK  3 active torsions:
REMARK  status: ('A' for Active; 'I' for Inactive)
REMARK    1  A    between atoms: N_2  and  C_24
REMARK    2  A    between atoms: C_5  and  C_14
REMARK    3  A    between atoms: C_15  and  C_18
REMARK                            x       y       z     vdW  Elec       q    Type
REMARK                         _______ _______ _______ _____ _____    ______ ____
ROOT
ATOM      1  S   UNL     1      35.874 -19.878 -20.267  0.00  0.00    -0.038 S 
ATOM      2  N   UNL     1      34.882 -18.557 -22.345  0.00  0.00    -0.305 N 
ATOM      3  N   UNL     1      33.389 -19.733 -20.943  0.00  0.00    -0.384 NA
ATOM      4  C   UNL     1      34.733 -20.716 -19.282  0.00  0.00    +0.059 C 
ATOM      5  C   UNL     1      33.856 -22.075 -17.503  0.00  0.00    +0.007 C 
ATOM      6  C   UNL     1      33.450 -20.521 -19.803  0.00  0.00    +0.122 C 
ATOM      7  C   UNL     1      34.598 -19.344 -21.273  0.00  0.00    +0.211 C 
ATOM      8  C   UNL     1      34.957 -21.490 -18.132  0.00  0.00    +0.007 C 
ATOM      9  C   UNL     1      32.570 -21.894 -18.001  0.00  0.00    -0.020 C 
ATOM     10  C   UNL     1      32.354 -21.123 -19.147  0.00  0.00    +0.085 C 
ATOM     11  H   UNL     1      35.824 -18.321 -22.503  0.00  0.00    +0.150 HD
ENDROOT
BRANCH   5  14
ATOM     12  O   UNL     1      35.323 -23.333 -16.119  0.00  0.00    -0.323 OA
ATOM     13  N   UNL     1      34.034 -24.067 -14.412  0.00  0.00    -0.241 NA
ATOM     14  C   UNL     1      34.056 -22.874 -16.318  0.00  0.00    +0.179 C 
ATOM     15  C   UNL     1      33.277 -23.321 -15.280  0.00  0.00    +0.090 C 
ATOM     16  C   UNL     1      35.229 -24.038 -14.958  0.00  0.00    +0.272 C 
BRANCH  15  18
ATOM     17  F   UNL     1      32.190 -22.695 -12.775  0.00  0.00    -0.204 F 
ATOM     18  C   UNL     1      31.883 -23.061 -15.105  0.00  0.00    +0.043 C 
ATOM     19  C   UNL     1      31.378 -22.751 -13.842  0.00  0.00    +0.141 C 
ATOM     20  C   UNL     1      31.025 -23.116 -16.204  0.00  0.00    +0.003 C 
ATOM     21  C   UNL     1      30.017 -22.496 -13.678  0.00  0.00    +0.030 C 
ATOM     22  C   UNL     1      29.663 -22.862 -16.040  0.00  0.00    +0.000 C 
ATOM     23  C   UNL     1      29.159 -22.552 -14.777  0.00  0.00    +0.002 C 
ENDBRANCH  15  18
ENDBRANCH   5  14
BRANCH   2  24
ATOM     24  C   UNL     1      33.888 -18.039 -23.278  0.00  0.00    +0.072 C 
ATOM     25  C   UNL     1      34.304 -16.651 -23.747  0.00  0.00    +0.021 C 
ATOM     26  C   UNL     1      33.748 -19.002 -24.449  0.00  0.00    +0.021 C 
ENDBRANCH   2  24
TORSDOF 3
ENDMDL
MODEL 7
REMARK VINA RESULT:      -9.8      2.533      4.623
REMARK  Name = 24755476
REMARK  3 active torsions:
REMARK  status: ('A' for Active; 'I' for Inactive)
REMARK    1  A    between atoms: N_2  and  C_24
REMARK    2  A    between atoms: C_5  and  C_14
REMARK    3  A    between atoms: C_15  and  C_18
REMARK                            x       y       z     vdW  Elec       q    Type
REMARK                         _______ _______ _______ _____ _____    ______ ____
ROOT
ATOM      1  S   UNL     1      32.685 -20.855 -19.806  0.00  0.00    -0.038 S 
ATOM      2  N   UNL     1      33.621 -19.318 -21.757  0.00  0.00    -0.305 N 
ATOM      3  N   UNL     1      35.118 -20.042 -20.080  0.00  0.00    -0.384 NA
ATOM      4  C   UNL     1      33.827 -21.351 -18.613  0.00  0.00    +0.059 C 
ATOM      5  C   UNL     1      34.726 -22.418 -16.654  0.00  0.00    +0.007 C 
ATOM      6  C   UNL     1      35.080 -20.816 -18.929  0.00  0.00    +0.122 C 
ATOM      7  C   UNL     1      33.921 -19.995 -20.618  0.00  0.00    +0.211 C 
ATOM      8  C   UNL     1      33.630 -22.155 -17.478  0.00  0.00    +0.007 C 
ATOM      9  C   UNL     1      35.982 -21.898 -16.948  0.00  0.00    -0.020 C 
ATOM     10  C   UNL     1      36.171 -21.097 -18.079  0.00  0.00    +0.085 C 
ATOM     11  H   UNL     1      32.691 -19.348 -22.077  0.00  0.00    +0.150 HD
ENDROOT
BRANCH   5  14
ATOM     12  O   UNL     1      35.677 -23.845 -15.008  0.00  0.00    -0.323 OA
ATOM     13  N   UNL     1      33.948 -24.436 -13.675  0.00  0.00    -0.241 NA
ATOM     14  C   UNL     1      34.551 -23.242 -15.482  0.00  0.00    +0.179 C 
ATOM     15  C   UNL     1      33.505 -23.603 -14.670  0.00  0.00    +0.090 C 
ATOM     16  C   UNL     1      35.234 -24.541 -13.925  0.00  0.00    +0.272 C 
BRANCH  15  18
ATOM     17  F   UNL     1      32.068 -22.460 -12.555  0.00  0.00    -0.204 F 
ATOM     18  C   UNL     1      32.146 -23.185 -14.819  0.00  0.00    +0.043 C 
ATOM     19  C   UNL     1      31.463 -22.619 -13.742  0.00  0.00    +0.141 C 
ATOM     20  C   UNL     1      31.502 -23.344 -16.046  0.00  0.00    +0.003 C 
ATOM     21  C   UNL     1      30.138 -22.211 -13.893  0.00  0.00    +0.030 C 
ATOM     22  C   UNL     1      30.176 -22.937 -16.197  0.00  0.00    +0.000 C 
ATOM     23  C   UNL     1      29.495 -22.371 -15.121  0.00  0.00    +0.002 C 
ENDBRANCH  15  18
ENDBRANCH   5  14
BRANCH   2  24
ATOM     24  C   UNL     1      34.581 -18.547 -22.539  0.00  0.00    +0.072 C 
ATOM     25  C   UNL     1      33.994 -18.244 -23.911  0.00  0.00    +0.021 C 
ATOM     26  C   UNL     1      34.929 -17.268 -21.789  0.00  0.00    +0.021 C 
ENDBRANCH   2  24
TORSDOF 3
ENDMDL
MODEL 8
REMARK VINA RESULT:      -9.8      3.384      5.610
REMARK  Name = 24755476
REMARK  3 active torsions:
REMARK  status: ('A' for Active; 'I' for Inactive)
REMARK    1  A    between atoms: N_2  and  C_24
REMARK    2  A    between atoms: C_5  and  C_14
REMARK    3  A    between atoms: C_15  and  C_18
REMARK                            x       y       z     vdW  Elec       q    Type
REMARK                         _______ _______ _______ _____ _____    ______ ____
ROOT
ATOM      1  S   UNL     1      35.577 -20.730 -19.497  0.00  0.00    -0.038 S 
ATOM      2  N   UNL     1      35.038 -19.284 -21.657  0.00  0.00    -0.305 N 
ATOM      3  N   UNL     1      33.234 -20.099 -20.370  0.00  0.00    -0.384 NA
ATOM      4  C   UNL     1      34.218 -21.296 -18.601  0.00  0.00    +0.059 C 
ATOM      5  C   UNL     1      32.947 -22.406 -16.887  0.00  0.00    +0.007 C 
ATOM      6  C   UNL     1      33.045 -20.856 -19.223  0.00  0.00    +0.122 C 
ATOM      7  C   UNL     1      34.518 -19.972 -20.606  0.00  0.00    +0.211 C 
ATOM      8  C   UNL     1      34.190 -22.073 -17.431  0.00  0.00    +0.007 C 
ATOM      9  C   UNL     1      31.767 -21.980 -17.487  0.00  0.00    -0.020 C 
ATOM     10  C   UNL     1      31.803 -21.208 -18.653  0.00  0.00    +0.085 C 
ATOM     11  H   UNL     1      36.018 -19.248 -21.741  0.00  0.00    +0.150 HD
ENDROOT
BRANCH   5  14
ATOM     12  O   UNL     1      34.084 -23.663 -15.219  0.00  0.00    -0.323 OA
ATOM     13  N   UNL     1      32.459 -24.388 -13.823  0.00  0.00    -0.241 NA
ATOM     14  C   UNL     1      32.889 -23.202 -15.684  0.00  0.00    +0.179 C 
ATOM     15  C   UNL     1      31.906 -23.644 -14.834  0.00  0.00    +0.090 C 
ATOM     16  C   UNL     1      33.743 -24.364 -14.103  0.00  0.00    +0.272 C 
BRANCH  15  18
ATOM     17  F   UNL     1      30.103 -25.608 -15.695  0.00  0.00    -0.204 F 
ATOM     18  C   UNL     1      30.507 -23.381 -14.962  0.00  0.00    +0.043 C 
ATOM     19  C   UNL     1      29.640 -24.385 -15.393  0.00  0.00    +0.141 C 
ATOM     20  C   UNL     1      30.009 -22.116 -14.653  0.00  0.00    +0.003 C 
ATOM     21  C   UNL     1      28.274 -24.124 -15.514  0.00  0.00    +0.030 C 
ATOM     22  C   UNL     1      28.643 -21.853 -14.774  0.00  0.00    +0.000 C 
ATOM     23  C   UNL     1      27.777 -22.858 -15.205  0.00  0.00    +0.002 C 
ENDBRANCH  15  18
ENDBRANCH   5  14
BRANCH   2  24
ATOM     24  C   UNL     1      34.245 -18.597 -22.669  0.00  0.00    +0.072 C 
ATOM     25  C   UNL     1      34.755 -17.171 -22.834  0.00  0.00    +0.021 C 
ATOM     26  C   UNL     1      34.324 -19.369 -23.979  0.00  0.00    +0.021 C 
ENDBRANCH   2  24
TORSDOF 3
ENDMDL
MODEL 9
REMARK VINA RESULT:      -9.6      1.855      2.790
REMARK  Name = 24755476
REMARK  3 active torsions:
REMARK  status: ('A' for Active; 'I' for Inactive)
REMARK    1  A    between atoms: N_2  and  C_24
REMARK    2  A    between atoms: C_5  and  C_14
REMARK    3  A    between atoms: C_15  and  C_18
REMARK                            x       y       z     vdW  Elec       q    Type
REMARK                         _______ _______ _______ _____ _____    ______ ____
ROOT
ATOM      1  S   UNL     1      35.470 -21.063 -19.128  0.00  0.00    -0.038 S 
ATOM      2  N   UNL     1      35.034 -19.572 -21.280  0.00  0.00    -0.305 N 
ATOM      3  N   UNL     1      33.174 -20.296 -20.019  0.00  0.00    -0.384 NA
ATOM      4  C   UNL     1      34.071 -21.561 -18.250  0.00  0.00    +0.059 C 
ATOM      5  C   UNL     1      32.724 -22.613 -16.559  0.00  0.00    +0.007 C 
ATOM      6  C   UNL     1      32.931 -21.052 -18.880  0.00  0.00    +0.122 C 
ATOM      7  C   UNL     1      34.466 -20.238 -20.241  0.00  0.00    +0.211 C 
ATOM      8  C   UNL     1      33.988 -22.344 -17.088  0.00  0.00    +0.007 C 
ATOM      9  C   UNL     1      31.575 -22.118 -17.168  0.00  0.00    -0.020 C 
ATOM     10  C   UNL     1      31.665 -21.339 -18.326  0.00  0.00    +0.085 C 
ATOM     11  H   UNL     1      36.015 -19.589 -21.354  0.00  0.00    +0.150 HD
ENDROOT
BRANCH   5  14
ATOM     12  O   UNL     1      31.343 -23.766 -15.005  0.00  0.00    -0.323 OA
ATOM     13  N   UNL     1      32.774 -24.644 -13.489  0.00  0.00    -0.241 NA
ATOM     14  C   UNL     1      32.609 -23.415 -15.365  0.00  0.00    +0.179 C 
ATOM     15  C   UNL     1      33.474 -23.950 -14.443  0.00  0.00    +0.090 C 
ATOM     16  C   UNL     1      31.525 -24.501 -13.873  0.00  0.00    +0.272 C 
BRANCH  15  18
ATOM     17  F   UNL     1      35.152 -26.073 -15.165  0.00  0.00    -0.204 F 
ATOM     18  C   UNL     1      34.898 -23.818 -14.454  0.00  0.00    +0.043 C 
ATOM     19  C   UNL     1      35.700 -24.898 -14.820  0.00  0.00    +0.141 C 
ATOM     20  C   UNL     1      35.484 -22.604 -14.097  0.00  0.00    +0.003 C 
ATOM     21  C   UNL     1      37.089 -24.764 -14.831  0.00  0.00    +0.030 C 
ATOM     22  C   UNL     1      36.873 -22.469 -14.108  0.00  0.00    +0.000 C 
ATOM     23  C   UNL     1      37.674 -23.549 -14.474  0.00  0.00    +0.002 C 
ENDBRANCH  15  18
ENDBRANCH   5  14
BRANCH   2  24
ATOM     24  C   UNL     1      34.291 -18.833 -22.294  0.00  0.00    +0.072 C 
ATOM     25  C   UNL     1      34.737 -17.377 -22.293  0.00  0.00    +0.021 C 
ATOM     26  C   UNL     1      34.516 -19.481 -23.654  0.00  0.00    +0.021 C 
ENDBRANCH   2  24
TORSDOF 3
ENDMDL
