MODEL 1
REMARK VINA RESULT:     -12.8      0.000      0.000
REMARK  Name = 2361
REMARK  1 active torsions:
REMARK  status: ('A' for Active; 'I' for Inactive)
REMARK    1  A    between atoms: C_8  and  C_16
REMARK                            x       y       z     vdW  Elec       q    Type
REMARK                         _______ _______ _______ _____ _____    ______ ____
ROOT
ATOM      1  O   UNL     1      34.322 -16.938 -20.877  0.00  0.00    -0.453 OA
ATOM      2  O   UNL     1      33.618 -17.293 -24.862  0.00  0.00    -0.286 OA
ATOM      3  C   UNL     1      33.805 -15.804 -22.988  0.00  0.00    +0.074 C 
ATOM      4  C   UNL     1      33.539 -14.570 -23.668  0.00  0.00    +0.006 C 
ATOM      5  C   UNL     1      34.055 -15.808 -21.609  0.00  0.00    +0.148 C 
ATOM      6  C   UNL     1      33.535 -13.374 -22.897  0.00  0.00    +0.000 C 
ATOM      7  C   UNL     1      33.832 -17.130 -23.669  0.00  0.00    +0.202 C 
ATOM      8  C   UNL     1      34.364 -18.154 -21.525  0.00  0.00    +0.148 C 
ATOM      9  C   UNL     1      34.045 -14.622 -20.881  0.00  0.00    +0.038 C 
ATOM     10  C   UNL     1      33.787 -13.417 -21.521  0.00  0.00    +0.003 C 
ATOM     11  C   UNL     1      33.275 -14.419 -25.057  0.00  0.00    +0.000 C 
ATOM     12  C   UNL     1      34.136 -18.309 -22.834  0.00  0.00    +0.080 C 
ATOM     13  C   UNL     1      33.280 -12.130 -23.499  0.00  0.00    +0.000 C 
ATOM     14  C   UNL     1      33.023 -13.174 -25.641  0.00  0.00    +0.000 C 
ATOM     15  C   UNL     1      33.026 -12.029 -24.862  0.00  0.00    +0.000 C 
ENDROOT
BRANCH   8  16
ATOM     16  C   UNL     1      34.662 -19.299 -20.641  0.00  0.00    +0.035 C 
ATOM     17  C   UNL     1      33.629 -20.128 -20.192  0.00  0.00    +0.003 C 
ATOM     18  C   UNL     1      35.977 -19.559 -20.246  0.00  0.00    +0.003 C 
ATOM     19  C   UNL     1      33.909 -21.209 -19.358  0.00  0.00    +0.000 C 
ATOM     20  C   UNL     1      36.258 -20.641 -19.411  0.00  0.00    +0.000 C 
ATOM     21  C   UNL     1      35.223 -21.465 -18.967  0.00  0.00    +0.000 C 
ENDBRANCH   8  16
TORSDOF 1
ENDMDL
MODEL 2
REMARK VINA RESULT:     -12.4      3.900      9.278
REMARK  Name = 2361
REMARK  1 active torsions:
REMARK  status: ('A' for Active; 'I' for Inactive)
REMARK    1  A    between atoms: C_8  and  C_16
REMARK                            x       y       z     vdW  Elec       q    Type
REMARK                         _______ _______ _______ _____ _____    ______ ____
ROOT
ATOM      1  O   UNL     1      35.889 -20.503 -18.692  0.00  0.00    -0.453 OA
ATOM      2  O   UNL     1      32.534 -22.635 -17.856  0.00  0.00    -0.286 OA
ATOM      3  C   UNL     1      34.751 -22.038 -17.157  0.00  0.00    +0.074 C 
ATOM      4  C   UNL     1      34.807 -22.805 -15.946  0.00  0.00    +0.006 C 
ATOM      5  C   UNL     1      35.853 -21.268 -17.553  0.00  0.00    +0.148 C 
ATOM      6  C   UNL     1      36.007 -22.755 -15.182  0.00  0.00    +0.000 C 
ATOM      7  C   UNL     1      33.563 -22.005 -18.056  0.00  0.00    +0.202 C 
ATOM      8  C   UNL     1      34.774 -20.466 -19.503  0.00  0.00    +0.148 C 
ATOM      9  C   UNL     1      37.014 -21.238 -16.786  0.00  0.00    +0.038 C 
ATOM     10  C   UNL     1      37.088 -21.975 -15.612  0.00  0.00    +0.003 C 
ATOM     11  C   UNL     1      33.768 -23.622 -15.423  0.00  0.00    +0.000 C 
ATOM     12  C   UNL     1      33.653 -21.155 -19.260  0.00  0.00    +0.080 C 
ATOM     13  C   UNL     1      36.130 -23.481 -13.986  0.00  0.00    +0.000 C 
ATOM     14  C   UNL     1      33.906 -24.340 -14.231  0.00  0.00    +0.000 C 
ATOM     15  C   UNL     1      35.088 -24.270 -13.513  0.00  0.00    +0.000 C 
ENDROOT
BRANCH   8  16
ATOM     16  C   UNL     1      34.924 -19.609 -20.696  0.00  0.00    +0.035 C 
ATOM     17  C   UNL     1      36.096 -18.872 -20.890  0.00  0.00    +0.003 C 
ATOM     18  C   UNL     1      33.895 -19.530 -21.638  0.00  0.00    +0.003 C 
ATOM     19  C   UNL     1      36.237 -18.064 -22.017  0.00  0.00    +0.000 C 
ATOM     20  C   UNL     1      34.036 -18.722 -22.766  0.00  0.00    +0.000 C 
ATOM     21  C   UNL     1      35.208 -17.988 -22.955  0.00  0.00    +0.000 C 
ENDBRANCH   8  16
TORSDOF 1
ENDMDL
MODEL 3
REMARK VINA RESULT:     -12.1      3.849      9.104
REMARK  Name = 2361
REMARK  1 active torsions:
REMARK  status: ('A' for Active; 'I' for Inactive)
REMARK    1  A    between atoms: C_8  and  C_16
REMARK                            x       y       z     vdW  Elec       q    Type
REMARK                         _______ _______ _______ _____ _____    ______ ____
ROOT
ATOM      1  O   UNL     1      35.637 -20.590 -18.904  0.00  0.00    -0.453 OA
ATOM      2  O   UNL     1      32.055 -22.247 -17.941  0.00  0.00    -0.286 OA
ATOM      3  C   UNL     1      34.360 -21.969 -17.329  0.00  0.00    +0.074 C 
ATOM      4  C   UNL     1      34.357 -22.747 -16.125  0.00  0.00    +0.006 C 
ATOM      5  C   UNL     1      35.541 -21.354 -17.767  0.00  0.00    +0.148 C 
ATOM      6  C   UNL     1      35.582 -22.871 -15.411  0.00  0.00    +0.000 C 
ATOM      7  C   UNL     1      33.152 -21.764 -18.180  0.00  0.00    +0.202 C 
ATOM      8  C   UNL     1      34.507 -20.392 -19.668  0.00  0.00    +0.148 C 
ATOM      9  C   UNL     1      36.724 -21.492 -17.048  0.00  0.00    +0.038 C 
ATOM     10  C   UNL     1      36.742 -22.243 -15.881  0.00  0.00    +0.003 C 
ATOM     11  C   UNL     1      33.236 -23.419 -15.564  0.00  0.00    +0.000 C 
ATOM     12  C   UNL     1      33.312 -20.923 -19.383  0.00  0.00    +0.080 C 
ATOM     13  C   UNL     1      35.651 -23.619 -14.224  0.00  0.00    +0.000 C 
ATOM     14  C   UNL     1      33.322 -24.160 -14.382  0.00  0.00    +0.000 C 
ATOM     15  C   UNL     1      34.529 -24.261 -13.712  0.00  0.00    +0.000 C 
ENDROOT
BRANCH   8  16
ATOM     16  C   UNL     1      34.726 -19.553 -20.864  0.00  0.00    +0.035 C 
ATOM     17  C   UNL     1      33.762 -19.507 -21.876  0.00  0.00    +0.003 C 
ATOM     18  C   UNL     1      35.897 -18.802 -20.990  0.00  0.00    +0.003 C 
ATOM     19  C   UNL     1      33.969 -18.714 -23.004  0.00  0.00    +0.000 C 
ATOM     20  C   UNL     1      36.104 -18.009 -22.119  0.00  0.00    +0.000 C 
ATOM     21  C   UNL     1      35.139 -17.966 -23.127  0.00  0.00    +0.000 C 
ENDBRANCH   8  16
TORSDOF 1
ENDMDL
MODEL 4
REMARK VINA RESULT:     -11.6      2.311      7.540
REMARK  Name = 2361
REMARK  1 active torsions:
REMARK  status: ('A' for Active; 'I' for Inactive)
REMARK    1  A    between atoms: C_8  and  C_16
REMARK                            x       y       z     vdW  Elec       q    Type
REMARK                         _______ _______ _______ _____ _____    ______ ____
ROOT
ATOM      1  O   UNL     1      32.729 -13.110 -23.364  0.00  0.00    -0.453 OA
ATOM      2  O   UNL     1      34.008 -14.574 -19.797  0.00  0.00    -0.286 OA
ATOM      3  C   UNL     1      33.763 -14.973 -22.151  0.00  0.00    +0.074 C 
ATOM      4  C   UNL     1      34.327 -16.290 -22.205  0.00  0.00    +0.006 C 
ATOM      5  C   UNL     1      33.281 -14.366 -23.319  0.00  0.00    +0.148 C 
ATOM      6  C   UNL     1      34.370 -16.944 -23.469  0.00  0.00    +0.000 C 
ATOM      7  C   UNL     1      33.648 -14.177 -20.896  0.00  0.00    +0.202 C 
ATOM      8  C   UNL     1      32.648 -12.378 -22.198  0.00  0.00    +0.148 C 
ATOM      9  C   UNL     1      33.336 -15.029 -24.541  0.00  0.00    +0.038 C 
ATOM     10  C   UNL     1      33.876 -16.306 -24.613  0.00  0.00    +0.003 C 
ATOM     11  C   UNL     1      34.856 -17.020 -21.106  0.00  0.00    +0.000 C 
ATOM     12  C   UNL     1      33.058 -12.828 -21.006  0.00  0.00    +0.080 C 
ATOM     13  C   UNL     1      34.907 -18.236 -23.593  0.00  0.00    +0.000 C 
ATOM     14  C   UNL     1      35.387 -18.306 -21.246  0.00  0.00    +0.000 C 
ATOM     15  C   UNL     1      35.413 -18.914 -22.490  0.00  0.00    +0.000 C 
ENDROOT
BRANCH   8  16
ATOM     16  C   UNL     1      32.041 -11.042 -22.364  0.00  0.00    +0.035 C 
ATOM     17  C   UNL     1      30.874 -10.710 -21.669  0.00  0.00    +0.003 C 
ATOM     18  C   UNL     1      32.628 -10.104 -23.217  0.00  0.00    +0.003 C 
ATOM     19  C   UNL     1      30.301  -9.449 -21.826  0.00  0.00    +0.000 C 
ATOM     20  C   UNL     1      32.054  -8.842 -23.373  0.00  0.00    +0.000 C 
ATOM     21  C   UNL     1      30.890  -8.515 -22.678  0.00  0.00    +0.000 C 
ENDBRANCH   8  16
TORSDOF 1
ENDMDL
MODEL 5
REMARK VINA RESULT:     -11.5      2.384      7.494
REMARK  Name = 2361
REMARK  1 active torsions:
REMARK  status: ('A' for Active; 'I' for Inactive)
REMARK    1  A    between atoms: C_8  and  C_16
REMARK                            x       y       z     vdW  Elec       q    Type
REMARK                         _______ _______ _______ _____ _____    ______ ____
ROOT
ATOM      1  O   UNL     1      33.317 -12.392 -22.090  0.00  0.00    -0.453 OA
ATOM      2  O   UNL     1      32.995 -14.309 -25.657  0.00  0.00    -0.286 OA
ATOM      3  C   UNL     1      33.526 -14.501 -23.324  0.00  0.00    +0.074 C 
ATOM      4  C   UNL     1      33.848 -15.897 -23.292  0.00  0.00    +0.006 C 
ATOM      5  C   UNL     1      33.608 -13.732 -22.155  0.00  0.00    +0.148 C 
ATOM      6  C   UNL     1      34.252 -16.458 -22.047  0.00  0.00    +0.000 C 
ATOM      7  C   UNL     1      33.098 -13.783 -24.559  0.00  0.00    +0.202 C 
ATOM      8  C   UNL     1      32.902 -11.747 -23.236  0.00  0.00    +0.148 C 
ATOM      9  C   UNL     1      34.005 -14.307 -20.952  0.00  0.00    +0.038 C 
ATOM     10  C   UNL     1      34.324 -15.658 -20.901  0.00  0.00    +0.003 C 
ATOM     11  C   UNL     1      33.804 -16.793 -24.395  0.00  0.00    +0.000 C 
ATOM     12  C   UNL     1      32.786 -12.345 -24.428  0.00  0.00    +0.080 C 
ATOM     13  C   UNL     1      34.583 -17.819 -21.945  0.00  0.00    +0.000 C 
ATOM     14  C   UNL     1      34.137 -18.146 -24.277  0.00  0.00    +0.000 C 
ATOM     15  C   UNL     1      34.526 -18.659 -23.051  0.00  0.00    +0.000 C 
ENDROOT
BRANCH   8  16
ATOM     16  C   UNL     1      32.614 -10.311 -23.050  0.00  0.00    +0.035 C 
ATOM     17  C   UNL     1      31.379  -9.902 -22.537  0.00  0.00    +0.003 C 
ATOM     18  C   UNL     1      33.574  -9.352 -23.385  0.00  0.00    +0.003 C 
ATOM     19  C   UNL     1      31.107  -8.547 -22.361  0.00  0.00    +0.000 C 
ATOM     20  C   UNL     1      33.302  -7.995 -23.208  0.00  0.00    +0.000 C 
ATOM     21  C   UNL     1      32.067  -7.593 -22.697  0.00  0.00    +0.000 C 
ENDBRANCH   8  16
TORSDOF 1
ENDMDL
MODEL 6
REMARK VINA RESULT:     -11.3      5.392      8.437
REMARK  Name = 2361
REMARK  1 active torsions:
REMARK  status: ('A' for Active; 'I' for Inactive)
REMARK    1  A    between atoms: C_8  and  C_16
REMARK                            x       y       z     vdW  Elec       q    Type
REMARK                         _______ _______ _______ _____ _____    ______ ____
ROOT
ATOM      1  O   UNL     1      35.935 -22.784 -16.063  0.00  0.00    -0.453 OA
ATOM      2  O   UNL     1      31.940 -22.728 -16.800  0.00  0.00    -0.286 OA
ATOM      3  C   UNL     1      34.115 -21.999 -17.507  0.00  0.00    +0.074 C 
ATOM      4  C   UNL     1      33.723 -21.245 -18.662  0.00  0.00    +0.006 C 
ATOM      5  C   UNL     1      35.467 -22.085 -17.148  0.00  0.00    +0.148 C 
ATOM      6  C   UNL     1      34.745 -20.596 -19.410  0.00  0.00    +0.000 C 
ATOM      7  C   UNL     1      33.151 -22.721 -16.629  0.00  0.00    +0.202 C 
ATOM      8  C   UNL     1      35.032 -23.464 -15.273  0.00  0.00    +0.148 C 
ATOM      9  C   UNL     1      36.445 -21.440 -17.899  0.00  0.00    +0.038 C 
ATOM     10  C   UNL     1      36.085 -20.703 -19.019  0.00  0.00    +0.003 C 
ATOM     11  C   UNL     1      32.396 -21.078 -19.142  0.00  0.00    +0.000 C 
ATOM     12  C   UNL     1      33.711 -23.467 -15.484  0.00  0.00    +0.080 C 
ATOM     13  C   UNL     1      34.432 -19.840 -20.552  0.00  0.00    +0.000 C 
ATOM     14  C   UNL     1      32.100 -20.322 -20.281  0.00  0.00    +0.000 C 
ATOM     15  C   UNL     1      33.118 -19.703 -20.986  0.00  0.00    +0.000 C 
ENDROOT
BRANCH   8  16
ATOM     16  C   UNL     1      35.645 -24.183 -14.138  0.00  0.00    +0.035 C 
ATOM     17  C   UNL     1      35.433 -23.741 -12.828  0.00  0.00    +0.003 C 
ATOM     18  C   UNL     1      36.442 -25.308 -14.366  0.00  0.00    +0.003 C 
ATOM     19  C   UNL     1      36.011 -24.420 -11.757  0.00  0.00    +0.000 C 
ATOM     20  C   UNL     1      37.021 -25.987 -13.294  0.00  0.00    +0.000 C 
ATOM     21  C   UNL     1      36.806 -25.542 -11.989  0.00  0.00    +0.000 C 
ENDBRANCH   8  16
TORSDOF 1
ENDMDL
MODEL 7
REMARK VINA RESULT:     -11.2      2.689      4.310
REMARK  Name = 2361
REMARK  1 active torsions:
REMARK  status: ('A' for Active; 'I' for Inactive)
REMARK    1  A    between atoms: C_8  and  C_16
REMARK                            x       y       z     vdW  Elec       q    Type
REMARK                         _______ _______ _______ _____ _____    ______ ____
ROOT
ATOM      1  O   UNL     1      33.104 -14.176 -21.358  0.00  0.00    -0.453 OA
ATOM      2  O   UNL     1      33.291 -11.974 -24.766  0.00  0.00    -0.286 OA
ATOM      3  C   UNL     1      32.615 -12.043 -22.464  0.00  0.00    +0.074 C 
ATOM      4  C   UNL     1      32.065 -10.723 -22.362  0.00  0.00    +0.006 C 
ATOM      5  C   UNL     1      32.600 -12.899 -21.354  0.00  0.00    +0.148 C 
ATOM      6  C   UNL     1      31.511 -10.328 -21.112  0.00  0.00    +0.000 C 
ATOM      7  C   UNL     1      33.218 -12.590 -23.713  0.00  0.00    +0.202 C 
ATOM      8  C   UNL     1      33.678 -14.660 -22.514  0.00  0.00    +0.148 C 
ATOM      9  C   UNL     1      32.051 -12.486 -20.144  0.00  0.00    +0.038 C 
ATOM     10  C   UNL     1      31.512 -11.212 -20.026  0.00  0.00    +0.003 C 
ATOM     11  C   UNL     1      32.019  -9.753 -23.400  0.00  0.00    +0.000 C 
ATOM     12  C   UNL     1      33.756 -13.964 -23.655  0.00  0.00    +0.080 C 
ATOM     13  C   UNL     1      30.955  -9.049 -20.943  0.00  0.00    +0.000 C 
ATOM     14  C   UNL     1      31.461  -8.484 -23.216  0.00  0.00    +0.000 C 
ATOM     15  C   UNL     1      30.930  -8.132 -21.987  0.00  0.00    +0.000 C 
ENDROOT
BRANCH   8  16
ATOM     16  C   UNL     1      34.189 -16.041 -22.403  0.00  0.00    +0.035 C 
ATOM     17  C   UNL     1      34.699 -16.505 -21.187  0.00  0.00    +0.003 C 
ATOM     18  C   UNL     1      34.167 -16.890 -23.512  0.00  0.00    +0.003 C 
ATOM     19  C   UNL     1      35.181 -17.809 -21.081  0.00  0.00    +0.000 C 
ATOM     20  C   UNL     1      34.649 -18.195 -23.407  0.00  0.00    +0.000 C 
ATOM     21  C   UNL     1      35.157 -18.654 -22.191  0.00  0.00    +0.000 C 
ENDBRANCH   8  16
TORSDOF 1
ENDMDL
MODEL 8
REMARK VINA RESULT:     -11.1      5.281     10.785
REMARK  Name = 2361
REMARK  1 active torsions:
REMARK  status: ('A' for Active; 'I' for Inactive)
REMARK    1  A    between atoms: C_8  and  C_16
REMARK                            x       y       z     vdW  Elec       q    Type
REMARK                         _______ _______ _______ _____ _____    ______ ____
ROOT
ATOM      1  O   UNL     1      34.152 -22.132 -16.808  0.00  0.00    -0.453 OA
ATOM      2  O   UNL     1      38.111 -22.164 -15.898  0.00  0.00    -0.286 OA
ATOM      3  C   UNL     1      35.899 -22.818 -15.231  0.00  0.00    +0.074 C 
ATOM      4  C   UNL     1      36.232 -23.474 -14.001  0.00  0.00    +0.006 C 
ATOM      5  C   UNL     1      34.563 -22.737 -15.647  0.00  0.00    +0.148 C 
ATOM      6  C   UNL     1      35.168 -24.024 -13.232  0.00  0.00    +0.000 C 
ATOM      7  C   UNL     1      36.911 -22.191 -16.129  0.00  0.00    +0.202 C 
ATOM      8  C   UNL     1      35.101 -21.575 -17.639  0.00  0.00    +0.148 C 
ATOM      9  C   UNL     1      33.543 -23.284 -14.875  0.00  0.00    +0.038 C 
ATOM     10  C   UNL     1      33.845 -23.922 -13.679  0.00  0.00    +0.003 C 
ATOM     11  C   UNL     1      37.538 -23.633 -13.463  0.00  0.00    +0.000 C 
ATOM     12  C   UNL     1      36.413 -21.566 -17.371  0.00  0.00    +0.080 C 
ATOM     13  C   UNL     1      35.422 -24.680 -12.016  0.00  0.00    +0.000 C 
ATOM     14  C   UNL     1      37.775 -24.288 -12.250  0.00  0.00    +0.000 C 
ATOM     15  C   UNL     1      36.717 -24.811 -11.527  0.00  0.00    +0.000 C 
ENDROOT
BRANCH   8  16
ATOM     16  C   UNL     1      34.547 -20.955 -18.859  0.00  0.00    +0.035 C 
ATOM     17  C   UNL     1      33.170 -20.987 -19.100  0.00  0.00    +0.003 C 
ATOM     18  C   UNL     1      35.395 -20.335 -19.781  0.00  0.00    +0.003 C 
ATOM     19  C   UNL     1      32.647 -20.402 -20.252  0.00  0.00    +0.000 C 
ATOM     20  C   UNL     1      34.871 -19.750 -20.933  0.00  0.00    +0.000 C 
ATOM     21  C   UNL     1      33.496 -19.784 -21.169  0.00  0.00    +0.000 C 
ENDBRANCH   8  16
TORSDOF 1
ENDMDL
MODEL 9
REMARK VINA RESULT:     -11.0      3.962      9.327
REMARK  Name = 2361
REMARK  1 active torsions:
REMARK  status: ('A' for Active; 'I' for Inactive)
REMARK    1  A    between atoms: C_8  and  C_16
REMARK                            x       y       z     vdW  Elec       q    Type
REMARK                         _______ _______ _______ _____ _____    ______ ____
ROOT
ATOM      1  O   UNL     1      33.709 -20.877 -19.062  0.00  0.00    -0.453 OA
ATOM      2  O   UNL     1      36.902 -21.845 -16.743  0.00  0.00    -0.286 OA
ATOM      3  C   UNL     1      34.530 -22.033 -17.061  0.00  0.00    +0.074 C 
ATOM      4  C   UNL     1      34.222 -22.824 -15.906  0.00  0.00    +0.006 C 
ATOM      5  C   UNL     1      33.508 -21.632 -17.932  0.00  0.00    +0.148 C 
ATOM      6  C   UNL     1      32.860 -23.173 -15.683  0.00  0.00    +0.000 C 
ATOM      7  C   UNL     1      35.910 -21.590 -17.411  0.00  0.00    +0.202 C 
ATOM      8  C   UNL     1      34.994 -20.493 -19.383  0.00  0.00    +0.148 C 
ATOM      9  C   UNL     1      32.185 -21.988 -17.690  0.00  0.00    +0.038 C 
ATOM     10  C   UNL     1      31.866 -22.752 -16.575  0.00  0.00    +0.003 C 
ATOM     11  C   UNL     1      35.154 -23.303 -14.945  0.00  0.00    +0.000 C 
ATOM     12  C   UNL     1      36.068 -20.792 -18.643  0.00  0.00    +0.080 C 
ATOM     13  C   UNL     1      32.487 -23.945 -14.570  0.00  0.00    +0.000 C 
ATOM     14  C   UNL     1      34.767 -24.071 -13.842  0.00  0.00    +0.000 C 
ATOM     15  C   UNL     1      33.433 -24.392 -13.655  0.00  0.00    +0.000 C 
ENDROOT
BRANCH   8  16
ATOM     16  C   UNL     1      35.093 -19.689 -20.617  0.00  0.00    +0.035 C 
ATOM     17  C   UNL     1      36.256 -18.963 -20.893  0.00  0.00    +0.003 C 
ATOM     18  C   UNL     1      34.024 -19.648 -21.517  0.00  0.00    +0.003 C 
ATOM     19  C   UNL     1      36.349 -18.204 -22.058  0.00  0.00    +0.000 C 
ATOM     20  C   UNL     1      34.117 -18.889 -22.684  0.00  0.00    +0.000 C 
ATOM     21  C   UNL     1      35.280 -18.166 -22.954  0.00  0.00    +0.000 C 
ENDBRANCH   8  16
TORSDOF 1
ENDMDL
