MODEL 1
REMARK VINA RESULT:     -13.6      0.000      0.000
REMARK  Name = 25023705
REMARK  6 active torsions:
REMARK  status: ('A' for Active; 'I' for Inactive)
REMARK    1  A    between atoms: C_1  and  C_8
REMARK    2  A    between atoms: C_1  and  C_20
REMARK    3  A    between atoms: C_20  and  N_22
REMARK    4  A    between atoms: C_23  and  C_25
REMARK    5  A    between atoms: C_30  and  O_31
REMARK    6  A    between atoms: O_31  and  C_32
REMARK                            x       y       z     vdW  Elec       q    Type
REMARK                         _______ _______ _______ _____ _____    ______ ____
ROOT
ATOM      1  C   UNL     1      34.996 -18.665 -21.974  0.00  0.00    +0.066 C 
ATOM      2  C   UNL     1      36.427 -18.708 -21.385  0.00  0.00    +0.009 C 
ATOM      3  C   UNL     1      35.066 -19.376 -23.348  0.00  0.00    +0.009 C 
ENDROOT
BRANCH   1   8
ATOM      4  N   UNL     1      34.201 -16.736 -23.284  0.00  0.00    -0.347 NA
ATOM      5  N   UNL     1      33.458 -14.999 -24.623  0.00  0.00    -0.266 NA
ATOM      6  N   UNL     1      32.954 -12.830 -23.706  0.00  0.00    -0.316 NA
ATOM      7  N   UNL     1      32.706 -13.250 -25.996  0.00  0.00    -0.283 N 
ATOM      8  C   UNL     1      34.539 -17.195 -22.055  0.00  0.00    +0.122 C 
ATOM      9  C   UNL     1      34.498 -16.436 -20.905  0.00  0.00    +0.026 C 
ATOM     10  C   UNL     1      34.081 -15.122 -21.032  0.00  0.00    +0.001 C 
ATOM     11  C   UNL     1      33.795 -15.465 -23.414  0.00  0.00    +0.137 C 
ATOM     12  C   UNL     1      33.726 -14.628 -22.295  0.00  0.00    +0.199 C 
ATOM     13  C   UNL     1      33.297 -13.319 -22.503  0.00  0.00    +0.187 C 
ATOM     14  C   UNL     1      33.056 -13.714 -24.709  0.00  0.00    +0.207 C 
ATOM     15  H   UNL     1      32.763 -13.857 -26.770  0.00  0.00    +0.156 HD
ATOM     16  H   UNL     1      32.406 -12.321 -26.120  0.00  0.00    +0.156 HD
ATOM     17  N   UNL     1      33.209 -12.432 -21.401  0.00  0.00    -0.334 N 
ATOM     18  H   UNL     1      32.907 -11.505 -21.539  0.00  0.00    +0.144 HD
ATOM     19  H   UNL     1      33.450 -12.742 -20.499  0.00  0.00    +0.144 HD
ENDBRANCH   1   8
BRANCH   1  20
ATOM     20  C   UNL     1      34.062 -19.485 -21.040  0.00  0.00    +0.096 C 
BRANCH  20  22
ATOM     21  O   UNL     1      33.573 -21.945 -19.643  0.00  0.00    -0.270 OA
ATOM     22  N   UNL     1      34.695 -19.923 -19.822  0.00  0.00    -0.300 N 
ATOM     23  C   UNL     1      34.392 -21.135 -19.216  0.00  0.00    +0.246 C 
ATOM     24  H   UNL     1      35.368 -19.339 -19.403  0.00  0.00    +0.150 HD
BRANCH  23  25
ATOM     25  C   UNL     1      35.111 -21.428 -17.950  0.00  0.00    +0.054 C 
ATOM     26  C   UNL     1      34.485 -22.166 -16.946  0.00  0.00    +0.008 C 
ATOM     27  C   UNL     1      36.414 -20.962 -17.765  0.00  0.00    +0.008 C 
ATOM     28  C   UNL     1      35.161 -22.439 -15.757  0.00  0.00    +0.038 C 
ATOM     29  C   UNL     1      37.089 -21.236 -16.576  0.00  0.00    +0.038 C 
ATOM     30  C   UNL     1      36.463 -21.974 -15.572  0.00  0.00    +0.145 C 
BRANCH  30  31
ATOM     31  O   UNL     1      37.121 -22.238 -14.411  0.00  0.00    -0.453 OA
BRANCH  31  32
ATOM     32  C   UNL     1      37.077 -23.535 -13.926  0.00  0.00    +0.145 C 
ATOM     33  C   UNL     1      36.363 -23.820 -12.762  0.00  0.00    +0.037 C 
ATOM     34  C   UNL     1      37.747 -24.556 -14.602  0.00  0.00    +0.037 C 
ATOM     35  C   UNL     1      36.319 -25.126 -12.273  0.00  0.00    +0.003 C 
ATOM     36  C   UNL     1      37.703 -25.861 -14.112  0.00  0.00    +0.003 C 
ATOM     37  C   UNL     1      36.989 -26.146 -12.948  0.00  0.00    +0.000 C 
ENDBRANCH  31  32
ENDBRANCH  30  31
ENDBRANCH  23  25
ENDBRANCH  20  22
ENDBRANCH   1  20
TORSDOF 6
ENDMDL
MODEL 2
REMARK VINA RESULT:     -13.5      3.823     11.314
REMARK  Name = 25023705
REMARK  6 active torsions:
REMARK  status: ('A' for Active; 'I' for Inactive)
REMARK    1  A    between atoms: C_1  and  C_8
REMARK    2  A    between atoms: C_1  and  C_20
REMARK    3  A    between atoms: C_20  and  N_22
REMARK    4  A    between atoms: C_23  and  C_25
REMARK    5  A    between atoms: C_30  and  O_31
REMARK    6  A    between atoms: O_31  and  C_32
REMARK                            x       y       z     vdW  Elec       q    Type
REMARK                         _______ _______ _______ _____ _____    ______ ____
ROOT
ATOM      1  C   UNL     1      34.805 -18.682 -21.890  0.00  0.00    +0.066 C 
ATOM      2  C   UNL     1      33.510 -18.323 -22.659  0.00  0.00    +0.009 C 
ATOM      3  C   UNL     1      35.781 -19.283 -22.931  0.00  0.00    +0.009 C 
ENDROOT
BRANCH   1   8
ATOM      4  N   UNL     1      35.455 -19.988 -19.905  0.00  0.00    -0.347 NA
ATOM      5  N   UNL     1      36.189 -21.167 -18.052  0.00  0.00    -0.266 NA
ATOM      6  N   UNL     1      34.696 -22.555 -16.771  0.00  0.00    -0.316 NA
ATOM      7  N   UNL     1      36.952 -22.356 -16.178  0.00  0.00    -0.283 N 
ATOM      8  C   UNL     1      34.446 -19.645 -20.742  0.00  0.00    +0.122 C 
ATOM      9  C   UNL     1      33.151 -20.103 -20.623  0.00  0.00    +0.026 C 
ATOM     10  C   UNL     1      32.881 -20.967 -19.575  0.00  0.00    +0.001 C 
ATOM     11  C   UNL     1      35.201 -20.822 -18.887  0.00  0.00    +0.137 C 
ATOM     12  C   UNL     1      33.912 -21.332 -18.698  0.00  0.00    +0.199 C 
ATOM     13  C   UNL     1      33.719 -22.195 -17.621  0.00  0.00    +0.187 C 
ATOM     14  C   UNL     1      35.890 -22.011 -17.042  0.00  0.00    +0.207 C 
ATOM     15  H   UNL     1      37.851 -21.986 -16.331  0.00  0.00    +0.156 HD
ATOM     16  H   UNL     1      36.793 -22.968 -15.423  0.00  0.00    +0.156 HD
ATOM     17  N   UNL     1      32.432 -22.738 -17.386  0.00  0.00    -0.334 N 
ATOM     18  H   UNL     1      32.287 -23.349 -16.627  0.00  0.00    +0.144 HD
ATOM     19  H   UNL     1      31.683 -22.505 -17.981  0.00  0.00    +0.144 HD
ENDBRANCH   1   8
BRANCH   1  20
ATOM     20  C   UNL     1      35.421 -17.366 -21.338  0.00  0.00    +0.096 C 
BRANCH  20  22
ATOM     21  O   UNL     1      35.099 -15.245 -23.245  0.00  0.00    -0.270 OA
ATOM     22  N   UNL     1      34.486 -16.273 -21.259  0.00  0.00    -0.300 N 
ATOM     23  C   UNL     1      34.403 -15.289 -22.235  0.00  0.00    +0.246 C 
ATOM     24  H   UNL     1      33.882 -16.222 -20.482  0.00  0.00    +0.150 HD
BRANCH  23  25
ATOM     25  C   UNL     1      33.405 -14.215 -21.993  0.00  0.00    +0.054 C 
ATOM     26  C   UNL     1      32.928 -13.983 -20.704  0.00  0.00    +0.008 C 
ATOM     27  C   UNL     1      32.945 -13.439 -23.058  0.00  0.00    +0.008 C 
ATOM     28  C   UNL     1      31.991 -12.975 -20.478  0.00  0.00    +0.038 C 
ATOM     29  C   UNL     1      32.008 -12.431 -22.832  0.00  0.00    +0.038 C 
ATOM     30  C   UNL     1      31.530 -12.200 -21.542  0.00  0.00    +0.145 C 
BRANCH  30  31
ATOM     31  O   UNL     1      30.614 -11.218 -21.321  0.00  0.00    -0.453 OA
BRANCH  31  32
ATOM     32  C   UNL     1      31.087  -9.950 -21.026  0.00  0.00    +0.145 C 
ATOM     33  C   UNL     1      31.137  -9.516 -19.701  0.00  0.00    +0.037 C 
ATOM     34  C   UNL     1      31.512  -9.107 -22.053  0.00  0.00    +0.037 C 
ATOM     35  C   UNL     1      31.612  -8.239 -19.403  0.00  0.00    +0.003 C 
ATOM     36  C   UNL     1      31.987  -7.830 -21.755  0.00  0.00    +0.003 C 
ATOM     37  C   UNL     1      32.037  -7.396 -20.430  0.00  0.00    +0.000 C 
ENDBRANCH  31  32
ENDBRANCH  30  31
ENDBRANCH  23  25
ENDBRANCH  20  22
ENDBRANCH   1  20
TORSDOF 6
ENDMDL
MODEL 3
REMARK VINA RESULT:     -13.3      4.923     10.774
REMARK  Name = 25023705
REMARK  6 active torsions:
REMARK  status: ('A' for Active; 'I' for Inactive)
REMARK    1  A    between atoms: C_1  and  C_8
REMARK    2  A    between atoms: C_1  and  C_20
REMARK    3  A    between atoms: C_20  and  N_22
REMARK    4  A    between atoms: C_23  and  C_25
REMARK    5  A    between atoms: C_30  and  O_31
REMARK    6  A    between atoms: O_31  and  C_32
REMARK                            x       y       z     vdW  Elec       q    Type
REMARK                         _______ _______ _______ _____ _____    ______ ____
ROOT
ATOM      1  C   UNL     1      31.872 -23.384 -14.670  0.00  0.00    +0.066 C 
ATOM      2  C   UNL     1      31.379 -21.924 -14.527  0.00  0.00    +0.009 C 
ATOM      3  C   UNL     1      30.786 -24.278 -14.022  0.00  0.00    +0.009 C 
ENDROOT
BRANCH   1   8
ATOM      4  N   UNL     1      34.320 -23.591 -14.844  0.00  0.00    -0.347 NA
ATOM      5  N   UNL     1      36.609 -23.783 -15.139  0.00  0.00    -0.266 NA
ATOM      6  N   UNL     1      38.112 -23.922 -13.263  0.00  0.00    -0.316 NA
ATOM      7  N   UNL     1      38.926 -23.978 -15.458  0.00  0.00    -0.283 N 
ATOM      8  C   UNL     1      33.258 -23.505 -14.007  0.00  0.00    +0.122 C 
ATOM      9  C   UNL     1      33.351 -23.521 -12.632  0.00  0.00    +0.026 C 
ATOM     10  C   UNL     1      34.618 -23.631 -12.087  0.00  0.00    +0.001 C 
ATOM     11  C   UNL     1      35.551 -23.698 -14.324  0.00  0.00    +0.137 C 
ATOM     12  C   UNL     1      35.730 -23.721 -12.936  0.00  0.00    +0.199 C 
ATOM     13  C   UNL     1      37.036 -23.835 -12.464  0.00  0.00    +0.187 C 
ATOM     14  C   UNL     1      37.829 -23.890 -14.573  0.00  0.00    +0.207 C 
ATOM     15  H   UNL     1      38.776 -23.960 -16.431  0.00  0.00    +0.156 HD
ATOM     16  H   UNL     1      39.841 -24.057 -15.101  0.00  0.00    +0.156 HD
ATOM     17  N   UNL     1      37.271 -23.863 -11.067  0.00  0.00    -0.334 N 
ATOM     18  H   UNL     1      38.190 -23.943 -10.724  0.00  0.00    +0.144 HD
ATOM     19  H   UNL     1      36.515 -23.802 -10.439  0.00  0.00    +0.144 HD
ENDBRANCH   1   8
BRANCH   1  20
ATOM     20  C   UNL     1      31.950 -23.723 -16.186  0.00  0.00    +0.096 C 
BRANCH  20  22
ATOM     21  O   UNL     1      33.139 -24.044 -18.779  0.00  0.00    -0.270 OA
ATOM     22  N   UNL     1      32.567 -22.694 -16.981  0.00  0.00    -0.300 N 
ATOM     23  C   UNL     1      33.119 -22.945 -18.231  0.00  0.00    +0.246 C 
ATOM     24  H   UNL     1      32.600 -21.776 -16.626  0.00  0.00    +0.150 HD
BRANCH  23  25
ATOM     25  C   UNL     1      33.742 -21.781 -18.914  0.00  0.00    +0.054 C 
ATOM     26  C   UNL     1      32.946 -20.873 -19.611  0.00  0.00    +0.008 C 
ATOM     27  C   UNL     1      35.125 -21.599 -18.857  0.00  0.00    +0.008 C 
ATOM     28  C   UNL     1      33.532 -19.782 -20.252  0.00  0.00    +0.038 C 
ATOM     29  C   UNL     1      35.710 -20.507 -19.498  0.00  0.00    +0.038 C 
ATOM     30  C   UNL     1      34.914 -19.599 -20.196  0.00  0.00    +0.145 C 
BRANCH  30  31
ATOM     31  O   UNL     1      35.486 -18.536 -20.824  0.00  0.00    -0.453 OA
BRANCH  31  32
ATOM     32  C   UNL     1      34.880 -18.067 -21.977  0.00  0.00    +0.145 C 
ATOM     33  C   UNL     1      34.369 -18.967 -22.911  0.00  0.00    +0.037 C 
ATOM     34  C   UNL     1      34.783 -16.694 -22.206  0.00  0.00    +0.037 C 
ATOM     35  C   UNL     1      33.759 -18.496 -24.075  0.00  0.00    +0.003 C 
ATOM     36  C   UNL     1      34.173 -16.222 -23.369  0.00  0.00    +0.003 C 
ATOM     37  C   UNL     1      33.662 -17.123 -24.303  0.00  0.00    +0.000 C 
ENDBRANCH  31  32
ENDBRANCH  30  31
ENDBRANCH  23  25
ENDBRANCH  20  22
ENDBRANCH   1  20
TORSDOF 6
ENDMDL
MODEL 4
REMARK VINA RESULT:     -12.8      4.630      8.272
REMARK  Name = 25023705
REMARK  6 active torsions:
REMARK  status: ('A' for Active; 'I' for Inactive)
REMARK    1  A    between atoms: C_1  and  C_8
REMARK    2  A    between atoms: C_1  and  C_20
REMARK    3  A    between atoms: C_20  and  N_22
REMARK    4  A    between atoms: C_23  and  C_25
REMARK    5  A    between atoms: C_30  and  O_31
REMARK    6  A    between atoms: O_31  and  C_32
REMARK                            x       y       z     vdW  Elec       q    Type
REMARK                         _______ _______ _______ _____ _____    ______ ____
ROOT
ATOM      1  C   UNL     1      31.675 -11.106 -21.599  0.00  0.00    +0.066 C 
ATOM      2  C   UNL     1      30.258 -11.521 -22.064  0.00  0.00    +0.009 C 
ATOM      3  C   UNL     1      31.930 -11.838 -20.259  0.00  0.00    +0.009 C 
ENDROOT
BRANCH   1   8
ATOM      4  N   UNL     1      32.035  -8.896 -22.626  0.00  0.00    -0.347 NA
ATOM      5  N   UNL     1      32.397  -6.879 -23.706  0.00  0.00    -0.266 NA
ATOM      6  N   UNL     1      32.228  -4.779 -22.540  0.00  0.00    -0.316 NA
ATOM      7  N   UNL     1      32.767  -4.846 -24.817  0.00  0.00    -0.283 N 
ATOM      8  C   UNL     1      31.728  -9.570 -21.491  0.00  0.00    +0.122 C 
ATOM      9  C   UNL     1      31.470  -8.968 -20.278  0.00  0.00    +0.026 C 
ATOM     10  C   UNL     1      31.532  -7.586 -20.234  0.00  0.00    +0.001 C 
ATOM     11  C   UNL     1      32.095  -7.557 -22.592  0.00  0.00    +0.137 C 
ATOM     12  C   UNL     1      31.847  -6.870 -21.398  0.00  0.00    +0.199 C 
ATOM     13  C   UNL     1      31.928  -5.480 -21.433  0.00  0.00    +0.187 C 
ATOM     14  C   UNL     1      32.448  -5.533 -23.626  0.00  0.00    +0.207 C 
ATOM     15  H   UNL     1      32.939  -5.350 -25.645  0.00  0.00    +0.156 HD
ATOM     16  H   UNL     1      32.819  -3.862 -24.819  0.00  0.00    +0.156 HD
ATOM     17  N   UNL     1      31.684  -4.738 -20.251  0.00  0.00    -0.334 N 
ATOM     18  H   UNL     1      31.739  -3.755 -20.267  0.00  0.00    +0.144 HD
ATOM     19  H   UNL     1      31.460  -5.205 -19.414  0.00  0.00    +0.144 HD
ENDBRANCH   1   8
BRANCH   1  20
ATOM     20  C   UNL     1      32.700 -11.624 -22.648  0.00  0.00    +0.096 C 
BRANCH  20  22
ATOM     21  O   UNL     1      33.016 -13.839 -24.445  0.00  0.00    -0.270 OA
ATOM     22  N   UNL     1      33.254 -12.915 -22.331  0.00  0.00    -0.300 N 
ATOM     23  C   UNL     1      33.367 -13.931 -23.272  0.00  0.00    +0.246 C 
ATOM     24  H   UNL     1      33.565 -13.085 -21.412  0.00  0.00    +0.150 HD
BRANCH  23  25
ATOM     25  C   UNL     1      33.935 -15.213 -22.781  0.00  0.00    +0.054 C 
ATOM     26  C   UNL     1      34.198 -15.384 -21.423  0.00  0.00    +0.008 C 
ATOM     27  C   UNL     1      34.206 -16.245 -23.681  0.00  0.00    +0.008 C 
ATOM     28  C   UNL     1      34.733 -16.588 -20.963  0.00  0.00    +0.038 C 
ATOM     29  C   UNL     1      34.740 -17.448 -23.221  0.00  0.00    +0.038 C 
ATOM     30  C   UNL     1      35.004 -17.619 -21.862  0.00  0.00    +0.145 C 
BRANCH  30  31
ATOM     31  O   UNL     1      35.527 -18.793 -21.413  0.00  0.00    -0.453 OA
BRANCH  31  32
ATOM     32  C   UNL     1      34.710 -19.614 -20.654  0.00  0.00    +0.145 C 
ATOM     33  C   UNL     1      33.324 -19.523 -20.776  0.00  0.00    +0.037 C 
ATOM     34  C   UNL     1      35.274 -20.530 -19.765  0.00  0.00    +0.037 C 
ATOM     35  C   UNL     1      32.500 -20.348 -20.010  0.00  0.00    +0.003 C 
ATOM     36  C   UNL     1      34.450 -21.356 -19.000  0.00  0.00    +0.003 C 
ATOM     37  C   UNL     1      33.064 -21.264 -19.122  0.00  0.00    +0.000 C 
ENDBRANCH  31  32
ENDBRANCH  30  31
ENDBRANCH  23  25
ENDBRANCH  20  22
ENDBRANCH   1  20
TORSDOF 6
ENDMDL
MODEL 5
REMARK VINA RESULT:     -12.7      4.004     11.193
REMARK  Name = 25023705
REMARK  6 active torsions:
REMARK  status: ('A' for Active; 'I' for Inactive)
REMARK    1  A    between atoms: C_1  and  C_8
REMARK    2  A    between atoms: C_1  and  C_20
REMARK    3  A    between atoms: C_20  and  N_22
REMARK    4  A    between atoms: C_23  and  C_25
REMARK    5  A    between atoms: C_30  and  O_31
REMARK    6  A    between atoms: O_31  and  C_32
REMARK                            x       y       z     vdW  Elec       q    Type
REMARK                         _______ _______ _______ _____ _____    ______ ____
ROOT
ATOM      1  C   UNL     1      34.810 -18.843 -21.873  0.00  0.00    +0.066 C 
ATOM      2  C   UNL     1      33.377 -18.571 -22.391  0.00  0.00    +0.009 C 
ATOM      3  C   UNL     1      35.590 -19.476 -23.051  0.00  0.00    +0.009 C 
ENDROOT
BRANCH   1   8
ATOM      4  N   UNL     1      33.476 -20.103 -20.229  0.00  0.00    -0.347 NA
ATOM      5  N   UNL     1      32.113 -21.249 -18.749  0.00  0.00    -0.266 NA
ATOM      6  N   UNL     1      33.029 -22.514 -16.916  0.00  0.00    -0.316 NA
ATOM      7  N   UNL     1      30.715 -22.404 -17.259  0.00  0.00    -0.283 N 
ATOM      8  C   UNL     1      34.721 -19.745 -20.627  0.00  0.00    +0.122 C 
ATOM      9  C   UNL     1      35.880 -20.135 -19.990  0.00  0.00    +0.026 C 
ATOM     10  C   UNL     1      35.745 -20.945 -18.876  0.00  0.00    +0.001 C 
ATOM     11  C   UNL     1      33.337 -20.888 -19.152  0.00  0.00    +0.137 C 
ATOM     12  C   UNL     1      34.465 -21.327 -18.449  0.00  0.00    +0.199 C 
ATOM     13  C   UNL     1      34.248 -22.139 -17.338  0.00  0.00    +0.187 C 
ATOM     14  C   UNL     1      32.019 -22.039 -17.659  0.00  0.00    +0.207 C 
ATOM     15  H   UNL     1      29.936 -22.083 -17.768  0.00  0.00    +0.156 HD
ATOM     16  H   UNL     1      30.586 -22.979 -16.470  0.00  0.00    +0.156 HD
ATOM     17  N   UNL     1      35.357 -22.610 -16.593  0.00  0.00    -0.334 N 
ATOM     18  H   UNL     1      35.213 -23.184 -15.806  0.00  0.00    +0.144 HD
ATOM     19  H   UNL     1      36.272 -22.363 -16.862  0.00  0.00    +0.144 HD
ENDBRANCH   1   8
BRANCH   1  20
ATOM     20  C   UNL     1      35.467 -17.478 -21.523  0.00  0.00    +0.096 C 
BRANCH  20  22
ATOM     21  O   UNL     1      35.147 -15.275 -23.335  0.00  0.00    -0.270 OA
ATOM     22  N   UNL     1      34.526 -16.394 -21.401  0.00  0.00    -0.300 N 
ATOM     23  C   UNL     1      34.444 -15.367 -22.333  0.00  0.00    +0.246 C 
ATOM     24  H   UNL     1      33.918 -16.380 -20.627  0.00  0.00    +0.150 HD
BRANCH  23  25
ATOM     25  C   UNL     1      33.441 -14.308 -22.049  0.00  0.00    +0.054 C 
ATOM     26  C   UNL     1      32.938 -13.527 -23.088  0.00  0.00    +0.008 C 
ATOM     27  C   UNL     1      33.003 -14.097 -20.741  0.00  0.00    +0.008 C 
ATOM     28  C   UNL     1      31.997 -12.533 -22.821  0.00  0.00    +0.038 C 
ATOM     29  C   UNL     1      32.061 -13.103 -20.474  0.00  0.00    +0.038 C 
ATOM     30  C   UNL     1      31.559 -12.321 -21.514  0.00  0.00    +0.145 C 
BRANCH  30  31
ATOM     31  O   UNL     1      30.642 -11.350 -21.253  0.00  0.00    -0.453 OA
BRANCH  31  32
ATOM     32  C   UNL     1      31.112 -10.075 -20.983  0.00  0.00    +0.145 C 
ATOM     33  C   UNL     1      31.171  -9.618 -19.667  0.00  0.00    +0.037 C 
ATOM     34  C   UNL     1      31.526  -9.249 -22.028  0.00  0.00    +0.037 C 
ATOM     35  C   UNL     1      31.644  -8.334 -19.395  0.00  0.00    +0.003 C 
ATOM     36  C   UNL     1      31.999  -7.965 -21.756  0.00  0.00    +0.003 C 
ATOM     37  C   UNL     1      32.058  -7.508 -20.440  0.00  0.00    +0.000 C 
ENDBRANCH  31  32
ENDBRANCH  30  31
ENDBRANCH  23  25
ENDBRANCH  20  22
ENDBRANCH   1  20
TORSDOF 6
ENDMDL
MODEL 6
REMARK VINA RESULT:     -12.6      4.476      8.233
REMARK  Name = 25023705
REMARK  6 active torsions:
REMARK  status: ('A' for Active; 'I' for Inactive)
REMARK    1  A    between atoms: C_1  and  C_8
REMARK    2  A    between atoms: C_1  and  C_20
REMARK    3  A    between atoms: C_20  and  N_22
REMARK    4  A    between atoms: C_23  and  C_25
REMARK    5  A    between atoms: C_30  and  O_31
REMARK    6  A    between atoms: O_31  and  C_32
REMARK                            x       y       z     vdW  Elec       q    Type
REMARK                         _______ _______ _______ _____ _____    ______ ____
ROOT
ATOM      1  C   UNL     1      31.919 -11.271 -22.094  0.00  0.00    +0.066 C 
ATOM      2  C   UNL     1      30.381 -11.447 -22.113  0.00  0.00    +0.009 C 
ATOM      3  C   UNL     1      32.408 -11.838 -20.739  0.00  0.00    +0.009 C 
ENDROOT
BRANCH   1   8
ATOM      4  N   UNL     1      31.509  -8.895 -21.590  0.00  0.00    -0.347 NA
ATOM      5  N   UNL     1      31.028  -6.699 -21.032  0.00  0.00    -0.266 NA
ATOM      6  N   UNL     1      32.236  -4.860 -22.008  0.00  0.00    -0.316 NA
ATOM      7  N   UNL     1      30.526  -4.481 -20.454  0.00  0.00    -0.283 N 
ATOM      8  C   UNL     1      32.248  -9.780 -22.302  0.00  0.00    +0.122 C 
ATOM      9  C   UNL     1      33.250  -9.424 -23.178  0.00  0.00    +0.026 C 
ATOM     10  C   UNL     1      33.506  -8.072 -23.329  0.00  0.00    +0.001 C 
ATOM     11  C   UNL     1      31.751  -7.584 -21.730  0.00  0.00    +0.137 C 
ATOM     12  C   UNL     1      32.752  -7.141 -22.601  0.00  0.00    +0.199 C 
ATOM     13  C   UNL     1      32.949  -5.765 -22.699  0.00  0.00    +0.187 C 
ATOM     14  C   UNL     1      31.304  -5.390 -21.204  0.00  0.00    +0.207 C 
ATOM     15  H   UNL     1      29.827  -4.815 -19.848  0.00  0.00    +0.156 HD
ATOM     16  H   UNL     1      30.683  -3.512 -20.539  0.00  0.00    +0.156 HD
ATOM     17  N   UNL     1      33.952  -5.266 -23.567  0.00  0.00    -0.334 N 
ATOM     18  H   UNL     1      34.098  -4.295 -23.642  0.00  0.00    +0.144 HD
ATOM     19  H   UNL     1      34.501  -5.889 -24.095  0.00  0.00    +0.144 HD
ENDBRANCH   1   8
BRANCH   1  20
ATOM     20  C   UNL     1      32.520 -12.136 -23.237  0.00  0.00    +0.096 C 
BRANCH  20  22
ATOM     21  O   UNL     1      33.162 -14.419 -24.855  0.00  0.00    -0.270 OA
ATOM     22  N   UNL     1      33.106 -13.372 -22.786  0.00  0.00    -0.300 N 
ATOM     23  C   UNL     1      33.382 -14.427 -23.647  0.00  0.00    +0.246 C 
ATOM     24  H   UNL     1      33.318 -13.474 -21.830  0.00  0.00    +0.150 HD
BRANCH  23  25
ATOM     25  C   UNL     1      33.961 -15.644 -23.021  0.00  0.00    +0.054 C 
ATOM     26  C   UNL     1      34.138 -16.800 -23.779  0.00  0.00    +0.008 C 
ATOM     27  C   UNL     1      34.326 -15.628 -21.674  0.00  0.00    +0.008 C 
ATOM     28  C   UNL     1      34.681 -17.943 -23.191  0.00  0.00    +0.038 C 
ATOM     29  C   UNL     1      34.869 -16.770 -21.086  0.00  0.00    +0.038 C 
ATOM     30  C   UNL     1      35.045 -17.928 -21.844  0.00  0.00    +0.145 C 
BRANCH  30  31
ATOM     31  O   UNL     1      35.573 -19.043 -21.270  0.00  0.00    -0.453 OA
BRANCH  31  32
ATOM     32  C   UNL     1      34.731 -19.831 -20.503  0.00  0.00    +0.145 C 
ATOM     33  C   UNL     1      35.266 -20.792 -19.646  0.00  0.00    +0.037 C 
ATOM     34  C   UNL     1      33.349 -19.665 -20.588  0.00  0.00    +0.037 C 
ATOM     35  C   UNL     1      34.419 -21.588 -18.873  0.00  0.00    +0.003 C 
ATOM     36  C   UNL     1      32.502 -20.460 -19.816  0.00  0.00    +0.003 C 
ATOM     37  C   UNL     1      33.037 -21.421 -18.959  0.00  0.00    +0.000 C 
ENDBRANCH  31  32
ENDBRANCH  30  31
ENDBRANCH  23  25
ENDBRANCH  20  22
ENDBRANCH   1  20
TORSDOF 6
ENDMDL
MODEL 7
REMARK VINA RESULT:     -12.2      5.231     10.915
REMARK  Name = 25023705
REMARK  6 active torsions:
REMARK  status: ('A' for Active; 'I' for Inactive)
REMARK    1  A    between atoms: C_1  and  C_8
REMARK    2  A    between atoms: C_1  and  C_20
REMARK    3  A    between atoms: C_20  and  N_22
REMARK    4  A    between atoms: C_23  and  C_25
REMARK    5  A    between atoms: C_30  and  O_31
REMARK    6  A    between atoms: O_31  and  C_32
REMARK                            x       y       z     vdW  Elec       q    Type
REMARK                         _______ _______ _______ _____ _____    ______ ____
ROOT
ATOM      1  C   UNL     1      31.892 -23.777 -14.196  0.00  0.00    +0.066 C 
ATOM      2  C   UNL     1      31.547 -22.389 -13.603  0.00  0.00    +0.009 C 
ATOM      3  C   UNL     1      31.103 -24.818 -13.364  0.00  0.00    +0.009 C 
ENDROOT
BRANCH   1   8
ATOM      4  N   UNL     1      34.085 -23.276 -13.191  0.00  0.00    -0.347 NA
ATOM      5  N   UNL     1      36.084 -22.725 -12.161  0.00  0.00    -0.266 NA
ATOM      6  N   UNL     1      38.179 -23.654 -12.901  0.00  0.00    -0.316 NA
ATOM      7  N   UNL     1      38.101 -22.155 -11.104  0.00  0.00    -0.283 N 
ATOM      8  C   UNL     1      33.421 -23.969 -14.147  0.00  0.00    +0.122 C 
ATOM      9  C   UNL     1      34.025 -24.812 -15.055  0.00  0.00    +0.026 C 
ATOM     10  C   UNL     1      35.400 -24.949 -14.969  0.00  0.00    +0.001 C 
ATOM     11  C   UNL     1      35.416 -23.404 -13.101  0.00  0.00    +0.137 C 
ATOM     12  C   UNL     1      36.106 -24.240 -13.986  0.00  0.00    +0.199 C 
ATOM     13  C   UNL     1      37.488 -24.326 -13.837  0.00  0.00    +0.187 C 
ATOM     14  C   UNL     1      37.423 -22.882 -12.106  0.00  0.00    +0.207 C 
ATOM     15  H   UNL     1      37.595 -21.572 -10.493  0.00  0.00    +0.156 HD
ATOM     16  H   UNL     1      39.079 -22.230 -11.017  0.00  0.00    +0.156 HD
ATOM     17  N   UNL     1      38.232 -25.160 -14.708  0.00  0.00    -0.334 N 
ATOM     18  H   UNL     1      39.210 -25.226 -14.610  0.00  0.00    +0.144 HD
ATOM     19  H   UNL     1      37.772 -25.672 -15.411  0.00  0.00    +0.144 HD
ENDBRANCH   1   8
BRANCH   1  20
ATOM     20  C   UNL     1      31.374 -23.820 -15.661  0.00  0.00    +0.096 C 
BRANCH  20  22
ATOM     21  O   UNL     1      30.553 -21.738 -17.458  0.00  0.00    -0.270 OA
ATOM     22  N   UNL     1      32.210 -23.113 -16.596  0.00  0.00    -0.300 N 
ATOM     23  C   UNL     1      31.721 -22.115 -17.429  0.00  0.00    +0.246 C 
ATOM     24  H   UNL     1      33.166 -23.345 -16.646  0.00  0.00    +0.150 HD
BRANCH  23  25
ATOM     25  C   UNL     1      32.706 -21.500 -18.356  0.00  0.00    +0.054 C 
ATOM     26  C   UNL     1      32.274 -20.631 -19.357  0.00  0.00    +0.008 C 
ATOM     27  C   UNL     1      34.064 -21.793 -18.224  0.00  0.00    +0.008 C 
ATOM     28  C   UNL     1      33.200 -20.055 -20.227  0.00  0.00    +0.038 C 
ATOM     29  C   UNL     1      34.990 -21.217 -19.094  0.00  0.00    +0.038 C 
ATOM     30  C   UNL     1      34.557 -20.348 -20.096  0.00  0.00    +0.145 C 
BRANCH  30  31
ATOM     31  O   UNL     1      35.460 -19.788 -20.947  0.00  0.00    -0.453 OA
BRANCH  31  32
ATOM     32  C   UNL     1      35.033 -18.731 -21.734  0.00  0.00    +0.145 C 
ATOM     33  C   UNL     1      35.265 -17.419 -21.324  0.00  0.00    +0.037 C 
ATOM     34  C   UNL     1      34.369 -18.980 -22.936  0.00  0.00    +0.037 C 
ATOM     35  C   UNL     1      34.834 -16.354 -22.116  0.00  0.00    +0.003 C 
ATOM     36  C   UNL     1      33.939 -17.916 -23.728  0.00  0.00    +0.003 C 
ATOM     37  C   UNL     1      34.171 -16.603 -23.318  0.00  0.00    +0.000 C 
ENDBRANCH  31  32
ENDBRANCH  30  31
ENDBRANCH  23  25
ENDBRANCH  20  22
ENDBRANCH   1  20
TORSDOF 6
ENDMDL
MODEL 8
REMARK VINA RESULT:     -12.1      1.496      2.615
REMARK  Name = 25023705
REMARK  6 active torsions:
REMARK  status: ('A' for Active; 'I' for Inactive)
REMARK    1  A    between atoms: C_1  and  C_8
REMARK    2  A    between atoms: C_1  and  C_20
REMARK    3  A    between atoms: C_20  and  N_22
REMARK    4  A    between atoms: C_23  and  C_25
REMARK    5  A    between atoms: C_30  and  O_31
REMARK    6  A    between atoms: O_31  and  C_32
REMARK                            x       y       z     vdW  Elec       q    Type
REMARK                         _______ _______ _______ _____ _____    ______ ____
ROOT
ATOM      1  C   UNL     1      35.170 -18.095 -21.745  0.00  0.00    +0.066 C 
ATOM      2  C   UNL     1      35.450 -17.712 -20.271  0.00  0.00    +0.009 C 
ATOM      3  C   UNL     1      36.526 -18.537 -22.347  0.00  0.00    +0.009 C 
ENDROOT
BRANCH   1   8
ATOM      4  N   UNL     1      34.190 -15.837 -21.672  0.00  0.00    -0.347 NA
ATOM      5  N   UNL     1      33.288 -13.713 -21.473  0.00  0.00    -0.266 NA
ATOM      6  N   UNL     1      32.474 -12.507 -23.392  0.00  0.00    -0.316 NA
ATOM      7  N   UNL     1      32.378 -11.561 -21.252  0.00  0.00    -0.283 N 
ATOM      8  C   UNL     1      34.535 -16.886 -22.457  0.00  0.00    +0.122 C 
ATOM      9  C   UNL     1      34.350 -16.926 -23.823  0.00  0.00    +0.026 C 
ATOM     10  C   UNL     1      33.775 -15.814 -24.414  0.00  0.00    +0.001 C 
ATOM     11  C   UNL     1      33.633 -14.756 -22.237  0.00  0.00    +0.137 C 
ATOM     12  C   UNL     1      33.412 -14.718 -23.619  0.00  0.00    +0.199 C 
ATOM     13  C   UNL     1      32.829 -13.565 -24.140  0.00  0.00    +0.187 C 
ATOM     14  C   UNL     1      32.730 -12.647 -22.083  0.00  0.00    +0.207 C 
ATOM     15  H   UNL     1      32.542 -11.610 -20.283  0.00  0.00    +0.156 HD
ATOM     16  H   UNL     1      31.966 -10.756 -21.642  0.00  0.00    +0.156 HD
ATOM     17  N   UNL     1      32.584 -13.477 -25.532  0.00  0.00    -0.334 N 
ATOM     18  H   UNL     1      32.172 -12.666 -25.909  0.00  0.00    +0.144 HD
ATOM     19  H   UNL     1      32.825 -14.227 -26.123  0.00  0.00    +0.144 HD
ENDBRANCH   1   8
BRANCH   1  20
ATOM     20  C   UNL     1      34.205 -19.314 -21.754  0.00  0.00    +0.096 C 
BRANCH  20  22
ATOM     21  O   UNL     1      31.950 -20.455 -20.393  0.00  0.00    -0.270 OA
ATOM     22  N   UNL     1      34.236 -20.091 -20.541  0.00  0.00    -0.300 N 
ATOM     23  C   UNL     1      33.087 -20.604 -19.953  0.00  0.00    +0.246 C 
ATOM     24  H   UNL     1      35.105 -20.264 -20.112  0.00  0.00    +0.150 HD
BRANCH  23  25
ATOM     25  C   UNL     1      33.285 -21.361 -18.689  0.00  0.00    +0.054 C 
ATOM     26  C   UNL     1      34.573 -21.583 -18.204  0.00  0.00    +0.008 C 
ATOM     27  C   UNL     1      32.180 -21.849 -17.990  0.00  0.00    +0.008 C 
ATOM     28  C   UNL     1      34.757 -22.294 -17.018  0.00  0.00    +0.038 C 
ATOM     29  C   UNL     1      32.365 -22.560 -16.804  0.00  0.00    +0.038 C 
ATOM     30  C   UNL     1      33.654 -22.783 -16.319  0.00  0.00    +0.145 C 
BRANCH  30  31
ATOM     31  O   UNL     1      33.834 -23.479 -15.163  0.00  0.00    -0.453 OA
BRANCH  31  32
ATOM     32  C   UNL     1      35.101 -23.972 -14.900  0.00  0.00    +0.145 C 
ATOM     33  C   UNL     1      35.363 -25.334 -15.043  0.00  0.00    +0.037 C 
ATOM     34  C   UNL     1      36.115 -23.106 -14.488  0.00  0.00    +0.037 C 
ATOM     35  C   UNL     1      36.638 -25.832 -14.777  0.00  0.00    +0.003 C 
ATOM     36  C   UNL     1      37.391 -23.604 -14.222  0.00  0.00    +0.003 C 
ATOM     37  C   UNL     1      37.652 -24.966 -14.365  0.00  0.00    +0.000 C 
ENDBRANCH  31  32
ENDBRANCH  30  31
ENDBRANCH  23  25
ENDBRANCH  20  22
ENDBRANCH   1  20
TORSDOF 6
ENDMDL
MODEL 9
REMARK VINA RESULT:     -11.9      4.454     10.270
REMARK  Name = 25023705
REMARK  6 active torsions:
REMARK  status: ('A' for Active; 'I' for Inactive)
REMARK    1  A    between atoms: C_1  and  C_8
REMARK    2  A    between atoms: C_1  and  C_20
REMARK    3  A    between atoms: C_20  and  N_22
REMARK    4  A    between atoms: C_23  and  C_25
REMARK    5  A    between atoms: C_30  and  O_31
REMARK    6  A    between atoms: O_31  and  C_32
REMARK                            x       y       z     vdW  Elec       q    Type
REMARK                         _______ _______ _______ _____ _____    ______ ____
ROOT
ATOM      1  C   UNL     1      35.293 -22.392 -15.486  0.00  0.00    +0.066 C 
ATOM      2  C   UNL     1      36.343 -23.049 -14.558  0.00  0.00    +0.009 C 
ATOM      3  C   UNL     1      35.520 -20.863 -15.391  0.00  0.00    +0.009 C 
ENDROOT
BRANCH   1   8
ATOM      4  N   UNL     1      32.859 -22.492 -15.847  0.00  0.00    -0.347 NA
ATOM      5  N   UNL     1      30.588 -22.517 -16.300  0.00  0.00    -0.266 NA
ATOM      6  N   UNL     1      29.024 -23.605 -14.827  0.00  0.00    -0.316 NA
ATOM      7  N   UNL     1      28.289 -22.532 -16.774  0.00  0.00    -0.283 N 
ATOM      8  C   UNL     1      33.889 -22.843 -15.041  0.00  0.00    +0.122 C 
ATOM      9  C   UNL     1      33.748 -23.563 -13.874  0.00  0.00    +0.026 C 
ATOM     10  C   UNL     1      32.466 -23.944 -13.518  0.00  0.00    +0.001 C 
ATOM     11  C   UNL     1      31.614 -22.857 -15.511  0.00  0.00    +0.137 C 
ATOM     12  C   UNL     1      31.387 -23.590 -14.341  0.00  0.00    +0.199 C 
ATOM     13  C   UNL     1      30.069 -23.936 -14.050  0.00  0.00    +0.187 C 
ATOM     14  C   UNL     1      29.352 -22.905 -15.922  0.00  0.00    +0.207 C 
ATOM     15  H   UNL     1      28.473 -22.016 -17.592  0.00  0.00    +0.156 HD
ATOM     16  H   UNL     1      27.365 -22.788 -16.549  0.00  0.00    +0.156 HD
ATOM     17  N   UNL     1      29.786 -24.678 -12.877  0.00  0.00    -0.334 N 
ATOM     18  H   UNL     1      28.858 -24.927 -12.664  0.00  0.00    +0.144 HD
ATOM     19  H   UNL     1      30.518 -24.945 -12.275  0.00  0.00    +0.144 HD
ENDBRANCH   1   8
BRANCH   1  20
ATOM     20  C   UNL     1      35.585 -22.844 -16.945  0.00  0.00    +0.096 C 
BRANCH  20  22
ATOM     21  O   UNL     1      33.762 -22.464 -19.130  0.00  0.00    -0.270 OA
ATOM     22  N   UNL     1      35.598 -21.764 -17.898  0.00  0.00    -0.300 N 
ATOM     23  C   UNL     1      34.671 -21.663 -18.927  0.00  0.00    +0.246 C 
ATOM     24  H   UNL     1      36.293 -21.071 -17.817  0.00  0.00    +0.150 HD
BRANCH  23  25
ATOM     25  C   UNL     1      34.837 -20.505 -19.842  0.00  0.00    +0.054 C 
ATOM     26  C   UNL     1      33.768 -20.080 -20.631  0.00  0.00    +0.008 C 
ATOM     27  C   UNL     1      36.064 -19.843 -19.912  0.00  0.00    +0.008 C 
ATOM     28  C   UNL     1      33.926 -18.993 -21.491  0.00  0.00    +0.038 C 
ATOM     29  C   UNL     1      36.220 -18.756 -20.772  0.00  0.00    +0.038 C 
ATOM     30  C   UNL     1      35.152 -18.332 -21.562  0.00  0.00    +0.145 C 
BRANCH  30  31
ATOM     31  O   UNL     1      35.306 -17.273 -22.402  0.00  0.00    -0.453 OA
BRANCH  31  32
ATOM     32  C   UNL     1      34.650 -16.096 -22.082  0.00  0.00    +0.145 C 
ATOM     33  C   UNL     1      34.321 -15.821 -20.755  0.00  0.00    +0.037 C 
ATOM     34  C   UNL     1      34.318 -15.186 -23.087  0.00  0.00    +0.037 C 
ATOM     35  C   UNL     1      33.659 -14.636 -20.432  0.00  0.00    +0.003 C 
ATOM     36  C   UNL     1      33.656 -14.002 -22.763  0.00  0.00    +0.003 C 
ATOM     37  C   UNL     1      33.326 -13.727 -21.436  0.00  0.00    +0.000 C 
ENDBRANCH  31  32
ENDBRANCH  30  31
ENDBRANCH  23  25
ENDBRANCH  20  22
ENDBRANCH   1  20
TORSDOF 6
ENDMDL
