MODEL 1
REMARK VINA RESULT:     -11.1      0.000      0.000
REMARK  Name = 51042438
REMARK  7 active torsions:
REMARK  status: ('A' for Active; 'I' for Inactive)
REMARK    1  A    between atoms: N_2  and  C_18
REMARK    2  A    between atoms: C_3  and  C_7
REMARK    3  A    between atoms: C_8  and  C_14
REMARK    4  A    between atoms: C_18  and  C_19
REMARK    5  A    between atoms: C_18  and  C_28
REMARK    6  A    between atoms: C_19  and  C_22
REMARK    7  A    between atoms: C_28  and  N_29
REMARK                            x       y       z     vdW  Elec       q    Type
REMARK                         _______ _______ _______ _____ _____    ______ ____
ROOT
ATOM      1  O   UNL     1      36.730 -20.227 -17.280  0.00  0.00    -0.267 OA
ATOM      2  N   UNL     1      35.060 -21.746 -17.810  0.00  0.00    -0.302 N 
ATOM      3  C   UNL     1      36.151 -21.294 -17.088  0.00  0.00    +0.281 C 
ATOM      4  H   UNL     1      34.666 -22.618 -17.578  0.00  0.00    +0.150 HD
ENDROOT
BRANCH   3   7
ATOM      5 CL   UNL     1      39.655 -24.225 -14.755  0.00  0.00    -0.042 Cl
ATOM      6  O   UNL     1      37.933 -22.640 -16.111  0.00  0.00    -0.438 OA
ATOM      7  C   UNL     1      36.647 -22.207 -16.028  0.00  0.00    +0.200 C 
ATOM      8  C   UNL     1      37.000 -23.541 -14.275  0.00  0.00    +0.065 C 
ATOM      9  C   UNL     1      36.030 -22.734 -14.917  0.00  0.00    +0.048 C 
ATOM     10  C   UNL     1      38.139 -23.451 -15.040  0.00  0.00    +0.205 C 
BRANCH   8  14
ATOM     11 CL   UNL     1      36.574 -22.258 -11.203  0.00  0.00    -0.079 Cl
ATOM     12  N   UNL     1      36.827 -25.684 -12.943  0.00  0.00    -0.209 N 
ATOM     13  N   UNL     1      36.657 -26.136 -11.688  0.00  0.00    -0.175 NA
ATOM     14  C   UNL     1      36.835 -24.324 -13.043  0.00  0.00    +0.085 C 
ATOM     15  C   UNL     1      36.658 -23.853 -11.765  0.00  0.00    +0.093 C 
ATOM     16  C   UNL     1      36.981 -26.637 -14.019  0.00  0.00    +0.140 C 
ATOM     17  C   UNL     1      36.554 -25.012 -10.973  0.00  0.00    +0.130 C 
ENDBRANCH   8  14
ENDBRANCH   3   7
BRANCH   2  18
ATOM     18  C   UNL     1      34.477 -20.980 -18.893  0.00  0.00    +0.055 C 
BRANCH  18  19
ATOM     19  C   UNL     1      35.413 -20.964 -20.117  0.00  0.00    +0.044 C 
BRANCH  19  22
ATOM     20  F   UNL     1      33.109 -18.530 -23.671  0.00  0.00    -0.202 F 
ATOM     21  F   UNL     1      34.757 -16.375 -23.330  0.00  0.00    -0.202 F 
ATOM     22  C   UNL     1      35.238 -19.735 -20.977  0.00  0.00    -0.018 C 
ATOM     23  C   UNL     1      34.235 -19.699 -21.947  0.00  0.00    +0.028 C 
ATOM     24  C   UNL     1      36.079 -18.635 -20.803  0.00  0.00    -0.002 C 
ATOM     25  C   UNL     1      34.072 -18.564 -22.741  0.00  0.00    +0.167 C 
ATOM     26  C   UNL     1      35.916 -17.500 -21.598  0.00  0.00    +0.032 C 
ATOM     27  C   UNL     1      34.913 -17.464 -22.567  0.00  0.00    +0.167 C 
ENDBRANCH  19  22
ENDBRANCH  18  19
BRANCH  18  28
ATOM     28  C   UNL     1      33.095 -21.565 -19.223  0.00  0.00    -0.066 C 
BRANCH  28  29
ATOM     29  N   UNL     1      32.062 -20.537 -19.263  0.00  0.00    +0.382 N 
ATOM     30  H   UNL     1      32.459 -19.644 -18.972  0.00  0.00    -0.089 HD
ATOM     31  H   UNL     1      31.302 -20.794 -18.633  0.00  0.00    -0.089 HD
ATOM     32  H   UNL     1      31.702 -20.454 -20.215  0.00  0.00    -0.089 HD
ENDBRANCH  28  29
ENDBRANCH  18  28
ENDBRANCH   2  18
TORSDOF 7
ENDMDL
MODEL 2
REMARK VINA RESULT:     -11.0      1.154      1.559
REMARK  Name = 51042438
REMARK  7 active torsions:
REMARK  status: ('A' for Active; 'I' for Inactive)
REMARK    1  A    between atoms: N_2  and  C_18
REMARK    2  A    between atoms: C_3  and  C_7
REMARK    3  A    between atoms: C_8  and  C_14
REMARK    4  A    between atoms: C_18  and  C_19
REMARK    5  A    between atoms: C_18  and  C_28
REMARK    6  A    between atoms: C_19  and  C_22
REMARK    7  A    between atoms: C_28  and  N_29
REMARK                            x       y       z     vdW  Elec       q    Type
REMARK                         _______ _______ _______ _____ _____    ______ ____
ROOT
ATOM      1  O   UNL     1      36.735 -20.201 -17.289  0.00  0.00    -0.267 OA
ATOM      2  N   UNL     1      35.083 -21.728 -17.847  0.00  0.00    -0.302 N 
ATOM      3  C   UNL     1      36.164 -21.275 -17.113  0.00  0.00    +0.281 C 
ATOM      4  H   UNL     1      34.694 -22.606 -17.628  0.00  0.00    +0.150 HD
ENDROOT
BRANCH   3   7
ATOM      5 CL   UNL     1      39.703 -24.115 -14.721  0.00  0.00    -0.042 Cl
ATOM      6  O   UNL     1      37.965 -22.570 -16.101  0.00  0.00    -0.438 OA
ATOM      7  C   UNL     1      36.659 -22.195 -16.058  0.00  0.00    +0.200 C 
ATOM      8  C   UNL     1      37.004 -23.560 -14.327  0.00  0.00    +0.065 C 
ATOM      9  C   UNL     1      36.025 -22.778 -14.985  0.00  0.00    +0.048 C 
ATOM     10  C   UNL     1      38.166 -23.400 -15.044  0.00  0.00    +0.205 C 
BRANCH   8  14
ATOM     11 CL   UNL     1      37.128 -26.913 -14.231  0.00  0.00    -0.079 Cl
ATOM     12  N   UNL     1      36.587 -23.927 -11.860  0.00  0.00    -0.209 N 
ATOM     13  N   UNL     1      36.469 -24.903 -10.943  0.00  0.00    -0.175 NA
ATOM     14  C   UNL     1      36.827 -24.382 -13.123  0.00  0.00    +0.085 C 
ATOM     15  C   UNL     1      36.868 -25.752 -13.026  0.00  0.00    +0.093 C 
ATOM     16  C   UNL     1      36.454 -22.550 -11.441  0.00  0.00    +0.140 C 
ATOM     17  C   UNL     1      36.641 -26.016 -11.663  0.00  0.00    +0.130 C 
ENDBRANCH   8  14
ENDBRANCH   3   7
BRANCH   2  18
ATOM     18  C   UNL     1      34.501 -20.957 -18.927  0.00  0.00    +0.055 C 
BRANCH  18  19
ATOM     19  C   UNL     1      35.458 -20.899 -20.133  0.00  0.00    +0.044 C 
BRANCH  19  22
ATOM     20  F   UNL     1      33.083 -18.534 -23.689  0.00  0.00    -0.202 F 
ATOM     21  F   UNL     1      34.668 -16.332 -23.350  0.00  0.00    -0.202 F 
ATOM     22  C   UNL     1      35.247 -19.675 -20.995  0.00  0.00    -0.018 C 
ATOM     23  C   UNL     1      34.243 -19.669 -21.964  0.00  0.00    +0.028 C 
ATOM     24  C   UNL     1      36.055 -18.551 -20.822  0.00  0.00    -0.002 C 
ATOM     25  C   UNL     1      34.047 -18.540 -22.759  0.00  0.00    +0.167 C 
ATOM     26  C   UNL     1      35.859 -17.422 -21.617  0.00  0.00    +0.032 C 
ATOM     27  C   UNL     1      34.856 -17.416 -22.585  0.00  0.00    +0.167 C 
ENDBRANCH  19  22
ENDBRANCH  18  19
BRANCH  18  28
ATOM     28  C   UNL     1      33.139 -21.566 -19.292  0.00  0.00    -0.066 C 
BRANCH  28  29
ATOM     29  N   UNL     1      32.068 -20.579 -19.245  0.00  0.00    +0.382 N 
ATOM     30  H   UNL     1      32.010 -20.097 -20.142  0.00  0.00    -0.089 HD
ATOM     31  H   UNL     1      32.261 -19.902 -18.507  0.00  0.00    -0.089 HD
ATOM     32  H   UNL     1      31.181 -21.047 -19.054  0.00  0.00    -0.089 HD
ENDBRANCH  28  29
ENDBRANCH  18  28
ENDBRANCH   2  18
TORSDOF 7
ENDMDL
MODEL 3
REMARK VINA RESULT:     -10.4      5.143      9.720
REMARK  Name = 51042438
REMARK  7 active torsions:
REMARK  status: ('A' for Active; 'I' for Inactive)
REMARK    1  A    between atoms: N_2  and  C_18
REMARK    2  A    between atoms: C_3  and  C_7
REMARK    3  A    between atoms: C_8  and  C_14
REMARK    4  A    between atoms: C_18  and  C_19
REMARK    5  A    between atoms: C_18  and  C_28
REMARK    6  A    between atoms: C_19  and  C_22
REMARK    7  A    between atoms: C_28  and  N_29
REMARK                            x       y       z     vdW  Elec       q    Type
REMARK                         _______ _______ _______ _____ _____    ______ ____
ROOT
ATOM      1  O   UNL     1      33.051 -22.320 -19.441  0.00  0.00    -0.267 OA
ATOM      2  N   UNL     1      34.580 -21.509 -17.900  0.00  0.00    -0.302 N 
ATOM      3  C   UNL     1      33.905 -21.503 -19.108  0.00  0.00    +0.281 C 
ATOM      4  H   UNL     1      35.250 -20.808 -17.726  0.00  0.00    +0.150 HD
ENDROOT
BRANCH   3   7
ATOM      5 CL   UNL     1      37.160 -18.215 -21.323  0.00  0.00    -0.042 Cl
ATOM      6  O   UNL     1      35.582 -20.007 -20.053  0.00  0.00    -0.438 OA
ATOM      7  C   UNL     1      34.288 -20.427 -20.056  0.00  0.00    +0.200 C 
ATOM      8  C   UNL     1      34.458 -18.824 -21.598  0.00  0.00    +0.065 C 
ATOM      9  C   UNL     1      33.557 -19.729 -20.989  0.00  0.00    +0.048 C 
ATOM     10  C   UNL     1      35.676 -19.032 -20.995  0.00  0.00    +0.205 C 
BRANCH   8  14
ATOM     11 CL   UNL     1      34.432 -15.488 -21.223  0.00  0.00    -0.079 Cl
ATOM     12  N   UNL     1      33.858 -18.139 -23.958  0.00  0.00    -0.209 N 
ATOM     13  N   UNL     1      33.636 -17.052 -24.717  0.00  0.00    -0.175 NA
ATOM     14  C   UNL     1      34.164 -17.852 -22.660  0.00  0.00    +0.085 C 
ATOM     15  C   UNL     1      34.140 -16.482 -22.562  0.00  0.00    +0.093 C 
ATOM     16  C   UNL     1      33.755 -19.449 -24.558  0.00  0.00    +0.140 C 
ATOM     17  C   UNL     1      33.809 -16.043 -23.858  0.00  0.00    +0.130 C 
ENDBRANCH   8  14
ENDBRANCH   3   7
BRANCH   2  18
ATOM     18  C   UNL     1      34.337 -22.511 -16.881  0.00  0.00    +0.055 C 
BRANCH  18  19
ATOM     19  C   UNL     1      35.077 -22.155 -15.578  0.00  0.00    +0.044 C 
BRANCH  19  22
ATOM     20  F   UNL     1      36.457 -26.534 -13.907  0.00  0.00    -0.202 F 
ATOM     21  F   UNL     1      39.092 -25.884 -14.241  0.00  0.00    -0.202 F 
ATOM     22  C   UNL     1      36.153 -23.154 -15.220  0.00  0.00    -0.018 C 
ATOM     23  C   UNL     1      35.802 -24.408 -14.718  0.00  0.00    +0.028 C 
ATOM     24  C   UNL     1      37.497 -22.823 -15.391  0.00  0.00    -0.002 C 
ATOM     25  C   UNL     1      36.795 -25.330 -14.388  0.00  0.00    +0.167 C 
ATOM     26  C   UNL     1      38.490 -23.745 -15.060  0.00  0.00    +0.032 C 
ATOM     27  C   UNL     1      38.139 -24.999 -14.559  0.00  0.00    +0.167 C 
ENDBRANCH  19  22
ENDBRANCH  18  19
BRANCH  18  28
ATOM     28  C   UNL     1      32.820 -22.644 -16.674  0.00  0.00    -0.066 C 
BRANCH  28  29
ATOM     29  N   UNL     1      32.471 -22.786 -15.265  0.00  0.00    +0.382 N 
ATOM     30  H   UNL     1      33.139 -23.408 -14.810  0.00  0.00    -0.089 HD
ATOM     31  H   UNL     1      31.533 -23.177 -15.185  0.00  0.00    -0.089 HD
ATOM     32  H   UNL     1      32.499 -21.871 -14.814  0.00  0.00    -0.089 HD
ENDBRANCH  28  29
ENDBRANCH  18  28
ENDBRANCH   2  18
TORSDOF 7
ENDMDL
MODEL 4
REMARK VINA RESULT:     -10.3     10.022     14.832
REMARK  Name = 51042438
REMARK  7 active torsions:
REMARK  status: ('A' for Active; 'I' for Inactive)
REMARK    1  A    between atoms: N_2  and  C_18
REMARK    2  A    between atoms: C_3  and  C_7
REMARK    3  A    between atoms: C_8  and  C_14
REMARK    4  A    between atoms: C_18  and  C_19
REMARK    5  A    between atoms: C_18  and  C_28
REMARK    6  A    between atoms: C_19  and  C_22
REMARK    7  A    between atoms: C_28  and  N_29
REMARK                            x       y       z     vdW  Elec       q    Type
REMARK                         _______ _______ _______ _____ _____    ______ ____
ROOT
ATOM      1  O   UNL     1      30.827 -11.909 -21.744  0.00  0.00    -0.267 OA
ATOM      2  N   UNL     1      33.026 -12.119 -22.448  0.00  0.00    -0.302 N 
ATOM      3  C   UNL     1      31.872 -11.413 -22.159  0.00  0.00    +0.281 C 
ATOM      4  H   UNL     1      33.814 -11.628 -22.776  0.00  0.00    +0.150 HD
ENDROOT
BRANCH   3   7
ATOM      5 CL   UNL     1      34.023  -7.083 -23.871  0.00  0.00    -0.042 Cl
ATOM      6  O   UNL     1      33.035  -9.455 -23.028  0.00  0.00    -0.438 OA
ATOM      7  C   UNL     1      31.932  -9.950 -22.406  0.00  0.00    +0.200 C 
ATOM      8  C   UNL     1      31.642  -7.745 -22.589  0.00  0.00    +0.065 C 
ATOM      9  C   UNL     1      31.046  -8.938 -22.115  0.00  0.00    +0.048 C 
ATOM     10  C   UNL     1      32.850  -8.113 -23.136  0.00  0.00    +0.205 C 
BRANCH   8  14
ATOM     11 CL   UNL     1      31.388  -5.901 -19.796  0.00  0.00    -0.079 Cl
ATOM     12  N   UNL     1      30.605  -5.653 -23.559  0.00  0.00    -0.209 N 
ATOM     13  N   UNL     1      30.167  -4.431 -23.207  0.00  0.00    -0.175 NA
ATOM     14  C   UNL     1      31.095  -6.385 -22.517  0.00  0.00    +0.085 C 
ATOM     15  C   UNL     1      30.967  -5.587 -21.406  0.00  0.00    +0.093 C 
ATOM     16  C   UNL     1      30.519  -6.058 -24.943  0.00  0.00    +0.140 C 
ATOM     17  C   UNL     1      30.391  -4.398 -21.890  0.00  0.00    +0.130 C 
ENDBRANCH   8  14
ENDBRANCH   3   7
BRANCH   2  18
ATOM     18  C   UNL     1      33.116 -13.556 -22.283  0.00  0.00    +0.055 C 
BRANCH  18  19
ATOM     19  C   UNL     1      34.177 -14.149 -23.230  0.00  0.00    +0.044 C 
BRANCH  19  22
ATOM     20  F   UNL     1      35.385 -18.407 -21.161  0.00  0.00    -0.202 F 
ATOM     21  F   UNL     1      34.230 -19.790 -23.219  0.00  0.00    -0.202 F 
ATOM     22  C   UNL     1      34.191 -15.660 -23.227  0.00  0.00    -0.018 C 
ATOM     23  C   UNL     1      34.794 -16.351 -22.175  0.00  0.00    +0.028 C 
ATOM     24  C   UNL     1      33.601 -16.366 -24.277  0.00  0.00    -0.002 C 
ATOM     25  C   UNL     1      34.806 -17.745 -22.172  0.00  0.00    +0.167 C 
ATOM     26  C   UNL     1      33.614 -17.760 -24.273  0.00  0.00    +0.032 C 
ATOM     27  C   UNL     1      34.216 -18.451 -23.221  0.00  0.00    +0.167 C 
ENDBRANCH  19  22
ENDBRANCH  18  19
BRANCH  18  28
ATOM     28  C   UNL     1      33.412 -13.866 -20.808  0.00  0.00    -0.066 C 
BRANCH  28  29
ATOM     29  N   UNL     1      32.191 -14.036 -20.029  0.00  0.00    +0.382 N 
ATOM     30  H   UNL     1      31.509 -14.561 -20.576  0.00  0.00    -0.089 HD
ATOM     31  H   UNL     1      31.807 -13.121 -19.795  0.00  0.00    -0.089 HD
ATOM     32  H   UNL     1      32.403 -14.546 -19.171  0.00  0.00    -0.089 HD
ENDBRANCH  28  29
ENDBRANCH  18  28
ENDBRANCH   2  18
TORSDOF 7
ENDMDL
MODEL 5
REMARK VINA RESULT:     -10.3     10.747     15.600
REMARK  Name = 51042438
REMARK  7 active torsions:
REMARK  status: ('A' for Active; 'I' for Inactive)
REMARK    1  A    between atoms: N_2  and  C_18
REMARK    2  A    between atoms: C_3  and  C_7
REMARK    3  A    between atoms: C_8  and  C_14
REMARK    4  A    between atoms: C_18  and  C_19
REMARK    5  A    between atoms: C_18  and  C_28
REMARK    6  A    between atoms: C_19  and  C_22
REMARK    7  A    between atoms: C_28  and  N_29
REMARK                            x       y       z     vdW  Elec       q    Type
REMARK                         _______ _______ _______ _____ _____    ______ ____
ROOT
ATOM      1  O   UNL     1      30.687 -11.055 -21.980  0.00  0.00    -0.267 OA
ATOM      2  N   UNL     1      32.820 -11.405 -22.817  0.00  0.00    -0.302 N 
ATOM      3  C   UNL     1      31.738 -10.625 -22.447  0.00  0.00    +0.281 C 
ATOM      4  H   UNL     1      33.621 -10.964 -23.183  0.00  0.00    +0.150 HD
ENDROOT
BRANCH   3   7
ATOM      5 CL   UNL     1      34.364  -6.233 -22.799  0.00  0.00    -0.042 Cl
ATOM      6  O   UNL     1      33.136  -8.632 -22.577  0.00  0.00    -0.438 OA
ATOM      7  C   UNL     1      31.889  -9.165 -22.671  0.00  0.00    +0.200 C 
ATOM      8  C   UNL     1      31.695  -6.978 -23.067  0.00  0.00    +0.065 C 
ATOM      9  C   UNL     1      30.968  -8.188 -22.969  0.00  0.00    +0.048 C 
ATOM     10  C   UNL     1      33.009  -7.301 -22.820  0.00  0.00    +0.205 C 
BRANCH   8  14
ATOM     11 CL   UNL     1      31.805  -5.478 -26.068  0.00  0.00    -0.079 Cl
ATOM     12  N   UNL     1      30.552  -4.797 -22.490  0.00  0.00    -0.209 N 
ATOM     13  N   UNL     1      30.166  -3.631 -23.037  0.00  0.00    -0.175 NA
ATOM     14  C   UNL     1      31.167  -5.641 -23.368  0.00  0.00    +0.085 C 
ATOM     15  C   UNL     1      31.185  -4.981 -24.573  0.00  0.00    +0.093 C 
ATOM     16  C   UNL     1      30.294  -5.036 -21.089  0.00  0.00    +0.140 C 
ATOM     17  C   UNL     1      30.555  -3.750 -24.310  0.00  0.00    +0.130 C 
ENDBRANCH   8  14
ENDBRANCH   3   7
BRANCH   2  18
ATOM     18  C   UNL     1      32.816 -12.848 -22.684  0.00  0.00    +0.055 C 
BRANCH  18  19
ATOM     19  C   UNL     1      33.782 -13.492 -23.696  0.00  0.00    +0.044 C 
BRANCH  19  22
ATOM     20  F   UNL     1      35.269 -17.293 -21.011  0.00  0.00    -0.202 F 
ATOM     21  F   UNL     1      34.397 -19.045 -22.921  0.00  0.00    -0.202 F 
ATOM     22  C   UNL     1      33.947 -14.980 -23.489  0.00  0.00    -0.018 C 
ATOM     23  C   UNL     1      34.545 -15.460 -22.323  0.00  0.00    +0.028 C 
ATOM     24  C   UNL     1      33.501 -15.874 -24.463  0.00  0.00    -0.002 C 
ATOM     25  C   UNL     1      34.696 -16.833 -22.131  0.00  0.00    +0.167 C 
ATOM     26  C   UNL     1      33.654 -17.247 -24.271  0.00  0.00    +0.032 C 
ATOM     27  C   UNL     1      34.251 -17.727 -23.105  0.00  0.00    +0.167 C 
ENDBRANCH  19  22
ENDBRANCH  18  19
BRANCH  18  28
ATOM     28  C   UNL     1      33.164 -13.211 -21.233  0.00  0.00    -0.066 C 
BRANCH  28  29
ATOM     29  N   UNL     1      31.973 -13.471 -20.433  0.00  0.00    +0.382 N 
ATOM     30  H   UNL     1      31.194 -13.704 -21.049  0.00  0.00    -0.089 HD
ATOM     31  H   UNL     1      31.740 -12.640 -19.890  0.00  0.00    -0.089 HD
ATOM     32  H   UNL     1      32.151 -14.252 -19.801  0.00  0.00    -0.089 HD
ENDBRANCH  28  29
ENDBRANCH  18  28
ENDBRANCH   2  18
TORSDOF 7
ENDMDL
MODEL 6
REMARK VINA RESULT:     -10.3      2.845      4.225
REMARK  Name = 51042438
REMARK  7 active torsions:
REMARK  status: ('A' for Active; 'I' for Inactive)
REMARK    1  A    between atoms: N_2  and  C_18
REMARK    2  A    between atoms: C_3  and  C_7
REMARK    3  A    between atoms: C_8  and  C_14
REMARK    4  A    between atoms: C_18  and  C_19
REMARK    5  A    between atoms: C_18  and  C_28
REMARK    6  A    between atoms: C_19  and  C_22
REMARK    7  A    between atoms: C_28  and  N_29
REMARK                            x       y       z     vdW  Elec       q    Type
REMARK                         _______ _______ _______ _____ _____    ______ ____
ROOT
ATOM      1  O   UNL     1      33.587 -20.867 -20.584  0.00  0.00    -0.267 OA
ATOM      2  N   UNL     1      35.282 -19.328 -20.223  0.00  0.00    -0.302 N 
ATOM      3  C   UNL     1      34.507 -20.428 -19.899  0.00  0.00    +0.281 C 
ATOM      4  H   UNL     1      35.999 -19.053 -19.607  0.00  0.00    +0.150 HD
ENDROOT
BRANCH   3   7
ATOM      5 CL   UNL     1      37.459 -21.484 -15.839  0.00  0.00    -0.042 Cl
ATOM      6  O   UNL     1      36.035 -20.819 -18.040  0.00  0.00    -0.438 OA
ATOM      7  C   UNL     1      34.827 -21.083 -18.606  0.00  0.00    +0.200 C 
ATOM      8  C   UNL     1      34.923 -22.243 -16.702  0.00  0.00    +0.065 C 
ATOM      9  C   UNL     1      34.107 -21.954 -17.822  0.00  0.00    +0.048 C 
ATOM     10  C   UNL     1      36.085 -21.528 -16.882  0.00  0.00    +0.205 C 
BRANCH   8  14
ATOM     11 CL   UNL     1      37.114 -24.241 -15.130  0.00  0.00    -0.079 Cl
ATOM     12  N   UNL     1      33.388 -23.278 -14.980  0.00  0.00    -0.209 N 
ATOM     13  N   UNL     1      33.385 -24.155 -13.961  0.00  0.00    -0.175 NA
ATOM     14  C   UNL     1      34.608 -23.126 -15.572  0.00  0.00    +0.085 C 
ATOM     15  C   UNL     1      35.461 -23.961 -14.893  0.00  0.00    +0.093 C 
ATOM     16  C   UNL     1      32.158 -22.612 -15.338  0.00  0.00    +0.140 C 
ATOM     17  C   UNL     1      34.655 -24.569 -13.913  0.00  0.00    +0.130 C 
ENDBRANCH   8  14
ENDBRANCH   3   7
BRANCH   2  18
ATOM     18  C   UNL     1      35.076 -18.566 -21.439  0.00  0.00    +0.055 C 
BRANCH  18  19
ATOM     19  C   UNL     1      34.856 -17.075 -21.119  0.00  0.00    +0.044 C 
BRANCH  19  22
ATOM     20  F   UNL     1      33.595 -12.842 -23.206  0.00  0.00    -0.202 F 
ATOM     21  F   UNL     1      33.058 -14.110 -25.568  0.00  0.00    -0.202 F 
ATOM     22  C   UNL     1      34.374 -16.281 -22.311  0.00  0.00    -0.018 C 
ATOM     23  C   UNL     1      34.202 -14.901 -22.206  0.00  0.00    +0.028 C 
ATOM     24  C   UNL     1      34.101 -16.929 -23.517  0.00  0.00    -0.002 C 
ATOM     25  C   UNL     1      33.759 -14.167 -23.307  0.00  0.00    +0.167 C 
ATOM     26  C   UNL     1      33.657 -16.195 -24.617  0.00  0.00    +0.032 C 
ATOM     27  C   UNL     1      33.486 -14.814 -24.512  0.00  0.00    +0.167 C 
ENDBRANCH  19  22
ENDBRANCH  18  19
BRANCH  18  28
ATOM     28  C   UNL     1      36.275 -18.792 -22.372  0.00  0.00    -0.066 C 
BRANCH  28  29
ATOM     29  N   UNL     1      37.456 -18.058 -21.933  0.00  0.00    +0.382 N 
ATOM     30  H   UNL     1      37.562 -18.158 -20.923  0.00  0.00    -0.089 HD
ATOM     31  H   UNL     1      37.350 -17.072 -22.167  0.00  0.00    -0.089 HD
ATOM     32  H   UNL     1      38.282 -18.433 -22.399  0.00  0.00    -0.089 HD
ENDBRANCH  28  29
ENDBRANCH  18  28
ENDBRANCH   2  18
TORSDOF 7
ENDMDL
MODEL 7
REMARK VINA RESULT:     -10.2      5.197      9.831
REMARK  Name = 51042438
REMARK  7 active torsions:
REMARK  status: ('A' for Active; 'I' for Inactive)
REMARK    1  A    between atoms: N_2  and  C_18
REMARK    2  A    between atoms: C_3  and  C_7
REMARK    3  A    between atoms: C_8  and  C_14
REMARK    4  A    between atoms: C_18  and  C_19
REMARK    5  A    between atoms: C_18  and  C_28
REMARK    6  A    between atoms: C_19  and  C_22
REMARK    7  A    between atoms: C_28  and  N_29
REMARK                            x       y       z     vdW  Elec       q    Type
REMARK                         _______ _______ _______ _____ _____    ______ ____
ROOT
ATOM      1  O   UNL     1      32.397 -21.848 -19.192  0.00  0.00    -0.267 OA
ATOM      2  N   UNL     1      34.370 -21.653 -17.991  0.00  0.00    -0.302 N 
ATOM      3  C   UNL     1      33.501 -21.338 -19.021  0.00  0.00    +0.281 C 
ATOM      4  H   UNL     1      35.236 -21.187 -17.939  0.00  0.00    +0.150 HD
ENDROOT
BRANCH   3   7
ATOM      5 CL   UNL     1      37.048 -18.365 -21.234  0.00  0.00    -0.042 Cl
ATOM      6  O   UNL     1      35.308 -19.999 -19.960  0.00  0.00    -0.438 OA
ATOM      7  C   UNL     1      33.987 -20.318 -19.985  0.00  0.00    +0.200 C 
ATOM      8  C   UNL     1      34.313 -18.773 -21.560  0.00  0.00    +0.065 C 
ATOM      9  C   UNL     1      33.332 -19.590 -20.951  0.00  0.00    +0.048 C 
ATOM     10  C   UNL     1      35.498 -19.058 -20.923  0.00  0.00    +0.205 C 
BRANCH   8  14
ATOM     11 CL   UNL     1      33.703 -19.565 -24.764  0.00  0.00    -0.079 Cl
ATOM     12  N   UNL     1      34.153 -16.449 -22.546  0.00  0.00    -0.209 N 
ATOM     13  N   UNL     1      33.941 -15.809 -23.709  0.00  0.00    -0.175 NA
ATOM     14  C   UNL     1      34.119 -17.809 -22.651  0.00  0.00    +0.085 C 
ATOM     15  C   UNL     1      33.868 -18.076 -23.975  0.00  0.00    +0.093 C 
ATOM     16  C   UNL     1      34.389 -15.675 -21.349  0.00  0.00    +0.140 C 
ATOM     17  C   UNL     1      33.768 -16.809 -24.578  0.00  0.00    +0.130 C 
ENDBRANCH   8  14
ENDBRANCH   3   7
BRANCH   2  18
ATOM     18  C   UNL     1      34.051 -22.647 -16.985  0.00  0.00    +0.055 C 
BRANCH  18  19
ATOM     19  C   UNL     1      34.685 -22.277 -15.631  0.00  0.00    +0.044 C 
BRANCH  19  22
ATOM     20  F   UNL     1      36.336 -26.571 -13.987  0.00  0.00    -0.202 F 
ATOM     21  F   UNL     1      38.922 -25.705 -14.178  0.00  0.00    -0.202 F 
ATOM     22  C   UNL     1      35.820 -23.195 -15.242  0.00  0.00    -0.018 C 
ATOM     23  C   UNL     1      35.549 -24.485 -14.784  0.00  0.00    +0.028 C 
ATOM     24  C   UNL     1      37.140 -22.753 -15.340  0.00  0.00    -0.002 C 
ATOM     25  C   UNL     1      36.597 -25.333 -14.425  0.00  0.00    +0.167 C 
ATOM     26  C   UNL     1      38.188 -23.601 -14.980  0.00  0.00    +0.032 C 
ATOM     27  C   UNL     1      37.917 -24.891 -14.523  0.00  0.00    +0.167 C 
ENDBRANCH  19  22
ENDBRANCH  18  19
BRANCH  18  28
ATOM     28  C   UNL     1      32.523 -22.785 -16.896  0.00  0.00    -0.066 C 
BRANCH  28  29
ATOM     29  N   UNL     1      32.066 -22.929 -15.519  0.00  0.00    +0.382 N 
ATOM     30  H   UNL     1      31.696 -23.869 -15.380  0.00  0.00    -0.089 HD
ATOM     31  H   UNL     1      31.335 -22.245 -15.330  0.00  0.00    -0.089 HD
ATOM     32  H   UNL     1      32.849 -22.775 -14.883  0.00  0.00    -0.089 HD
ENDBRANCH  28  29
ENDBRANCH  18  28
ENDBRANCH   2  18
TORSDOF 7
ENDMDL
MODEL 8
REMARK VINA RESULT:     -10.0      4.922      9.581
REMARK  Name = 51042438
REMARK  7 active torsions:
REMARK  status: ('A' for Active; 'I' for Inactive)
REMARK    1  A    between atoms: N_2  and  C_18
REMARK    2  A    between atoms: C_3  and  C_7
REMARK    3  A    between atoms: C_8  and  C_14
REMARK    4  A    between atoms: C_18  and  C_19
REMARK    5  A    between atoms: C_18  and  C_28
REMARK    6  A    between atoms: C_19  and  C_22
REMARK    7  A    between atoms: C_28  and  N_29
REMARK                            x       y       z     vdW  Elec       q    Type
REMARK                         _______ _______ _______ _____ _____    ______ ____
ROOT
ATOM      1  O   UNL     1      33.658 -22.992 -19.598  0.00  0.00    -0.267 OA
ATOM      2  N   UNL     1      33.870 -21.655 -17.717  0.00  0.00    -0.302 N 
ATOM      3  C   UNL     1      33.904 -21.908 -19.077  0.00  0.00    +0.281 C 
ATOM      4  H   UNL     1      34.083 -20.749 -17.395  0.00  0.00    +0.150 HD
ENDROOT
BRANCH   3   7
ATOM      5 CL   UNL     1      37.150 -18.388 -20.918  0.00  0.00    -0.042 Cl
ATOM      6  O   UNL     1      35.573 -20.305 -19.842  0.00  0.00    -0.438 OA
ATOM      7  C   UNL     1      34.296 -20.761 -19.935  0.00  0.00    +0.200 C 
ATOM      8  C   UNL     1      34.485 -19.058 -21.364  0.00  0.00    +0.065 C 
ATOM      9  C   UNL     1      33.587 -20.026 -20.857  0.00  0.00    +0.048 C 
ATOM     10  C   UNL     1      35.680 -19.268 -20.715  0.00  0.00    +0.205 C 
BRANCH   8  14
ATOM     11 CL   UNL     1      33.833 -19.645 -24.603  0.00  0.00    -0.079 Cl
ATOM     12  N   UNL     1      34.174 -16.681 -22.169  0.00  0.00    -0.209 N 
ATOM     13  N   UNL     1      33.897 -15.969 -23.275  0.00  0.00    -0.175 NA
ATOM     14  C   UNL     1      34.210 -18.029 -22.375  0.00  0.00    +0.085 C 
ATOM     15  C   UNL     1      33.939 -18.212 -23.709  0.00  0.00    +0.093 C 
ATOM     16  C   UNL     1      34.400 -15.984 -20.923  0.00  0.00    +0.140 C 
ATOM     17  C   UNL     1      33.754 -16.911 -24.213  0.00  0.00    +0.130 C 
ENDBRANCH   8  14
ENDBRANCH   3   7
BRANCH   2  18
ATOM     18  C   UNL     1      33.530 -22.678 -16.748  0.00  0.00    +0.055 C 
BRANCH  18  19
ATOM     19  C   UNL     1      34.128 -22.344 -15.368  0.00  0.00    +0.044 C 
BRANCH  19  22
ATOM     20  F   UNL     1      38.932 -23.235 -15.375  0.00  0.00    -0.202 F 
ATOM     21  F   UNL     1      38.546 -25.590 -14.040  0.00  0.00    -0.202 F 
ATOM     22  C   UNL     1      35.311 -23.214 -15.012  0.00  0.00    -0.018 C 
ATOM     23  C   UNL     1      36.601 -22.816 -15.365  0.00  0.00    +0.028 C 
ATOM     24  C   UNL     1      35.115 -24.415 -14.330  0.00  0.00    -0.002 C 
ATOM     25  C   UNL     1      37.694 -23.618 -15.036  0.00  0.00    +0.167 C 
ATOM     26  C   UNL     1      36.207 -25.218 -14.002  0.00  0.00    +0.032 C 
ATOM     27  C   UNL     1      37.497 -24.820 -14.354  0.00  0.00    +0.167 C 
ENDBRANCH  19  22
ENDBRANCH  18  19
BRANCH  18  28
ATOM     28  C   UNL     1      32.002 -22.826 -16.701  0.00  0.00    -0.066 C 
BRANCH  28  29
ATOM     29  N   UNL     1      31.333 -21.865 -17.571  0.00  0.00    +0.382 N 
ATOM     30  H   UNL     1      31.067 -21.043 -17.028  0.00  0.00    -0.089 HD
ATOM     31  H   UNL     1      30.498 -22.292 -17.971  0.00  0.00    -0.089 HD
ATOM     32  H   UNL     1      31.966 -21.587 -18.321  0.00  0.00    -0.089 HD
ENDBRANCH  28  29
ENDBRANCH  18  28
ENDBRANCH   2  18
TORSDOF 7
ENDMDL
MODEL 9
REMARK VINA RESULT:     -10.0     11.212     14.995
REMARK  Name = 51042438
REMARK  7 active torsions:
REMARK  status: ('A' for Active; 'I' for Inactive)
REMARK    1  A    between atoms: N_2  and  C_18
REMARK    2  A    between atoms: C_3  and  C_7
REMARK    3  A    between atoms: C_8  and  C_14
REMARK    4  A    between atoms: C_18  and  C_19
REMARK    5  A    between atoms: C_18  and  C_28
REMARK    6  A    between atoms: C_19  and  C_22
REMARK    7  A    between atoms: C_28  and  N_29
REMARK                            x       y       z     vdW  Elec       q    Type
REMARK                         _______ _______ _______ _____ _____    ______ ____
ROOT
ATOM      1  O   UNL     1      33.569  -8.113 -23.374  0.00  0.00    -0.267 OA
ATOM      2  N   UNL     1      31.760  -8.116 -21.924  0.00  0.00    -0.302 N 
ATOM      3  C   UNL     1      32.737  -8.715 -22.700  0.00  0.00    +0.281 C 
ATOM      4  H   UNL     1      31.138  -8.688 -21.418  0.00  0.00    +0.150 HD
ENDROOT
BRANCH   3   7
ATOM      5 CL   UNL     1      31.653 -13.365 -20.826  0.00  0.00    -0.042 Cl
ATOM      6  O   UNL     1      32.143 -10.843 -21.668  0.00  0.00    -0.438 OA
ATOM      7  C   UNL     1      32.729 -10.200 -22.713  0.00  0.00    +0.200 C 
ATOM      8  C   UNL     1      32.924 -12.389 -23.102  0.00  0.00    +0.065 C 
ATOM      9  C   UNL     1      33.225 -11.107 -23.621  0.00  0.00    +0.048 C 
ATOM     10  C   UNL     1      32.265 -12.174 -21.913  0.00  0.00    +0.205 C 
BRANCH   8  14
ATOM     11 CL   UNL     1      34.214 -15.014 -21.455  0.00  0.00    -0.079 Cl
ATOM     12  N   UNL     1      33.073 -14.047 -25.005  0.00  0.00    -0.209 N 
ATOM     13  N   UNL     1      33.451 -15.308 -25.278  0.00  0.00    -0.175 NA
ATOM     14  C   UNL     1      33.244 -13.691 -23.699  0.00  0.00    +0.085 C 
ATOM     15  C   UNL     1      33.771 -14.796 -23.075  0.00  0.00    +0.093 C 
ATOM     16  C   UNL     1      32.547 -13.224 -26.069  0.00  0.00    +0.140 C 
ATOM     17  C   UNL     1      33.877 -15.760 -24.095  0.00  0.00    +0.130 C 
ENDBRANCH   8  14
ENDBRANCH   3   7
BRANCH   2  18
ATOM     18  C   UNL     1      31.622  -6.677 -21.829  0.00  0.00    +0.055 C 
BRANCH  18  19
ATOM     19  C   UNL     1      30.475  -6.177 -22.728  0.00  0.00    +0.044 C 
BRANCH  19  22
ATOM     20  F   UNL     1      32.439  -6.041 -27.199  0.00  0.00    -0.202 F 
ATOM     21  F   UNL     1      32.301  -3.310 -27.230  0.00  0.00    -0.202 F 
ATOM     22  C   UNL     1      30.964  -5.409 -23.934  0.00  0.00    -0.018 C 
ATOM     23  C   UNL     1      31.488  -6.093 -25.032  0.00  0.00    +0.028 C 
ATOM     24  C   UNL     1      30.893  -4.015 -23.949  0.00  0.00    -0.002 C 
ATOM     25  C   UNL     1      31.938  -5.384 -26.145  0.00  0.00    +0.167 C 
ATOM     26  C   UNL     1      31.345  -3.307 -25.063  0.00  0.00    +0.032 C 
ATOM     27  C   UNL     1      31.867  -3.990 -26.161  0.00  0.00    +0.167 C 
ENDBRANCH  19  22
ENDBRANCH  18  19
BRANCH  18  28
ATOM     28  C   UNL     1      31.414  -6.298 -20.354  0.00  0.00    -0.066 C 
BRANCH  28  29
ATOM     29  N   UNL     1      32.567  -6.646 -19.533  0.00  0.00    +0.382 N 
ATOM     30  H   UNL     1      33.184  -5.838 -19.453  0.00  0.00    -0.089 HD
ATOM     31  H   UNL     1      33.073  -7.418 -19.965  0.00  0.00    -0.089 HD
ATOM     32  H   UNL     1      32.251  -6.923 -18.603  0.00  0.00    -0.089 HD
ENDBRANCH  28  29
ENDBRANCH  18  28
ENDBRANCH   2  18
TORSDOF 7
ENDMDL
