MODEL 1
REMARK VINA RESULT:     -11.0      0.000      0.000
REMARK  Name = 12555
REMARK  7 active torsions:
REMARK  status: ('A' for Active; 'I' for Inactive)
REMARK    1  A    between atoms: N_1  and  C_18
REMARK    2  A    between atoms: C_5  and  O_10
REMARK    3  A    between atoms: O_10  and  C_11
REMARK    4  A    between atoms: C_11  and  C_12
REMARK    5  A    between atoms: C_12  and  C_13
REMARK    6  A    between atoms: C_13  and  N_14
REMARK    7  A    between atoms: C_18  and  C_19
REMARK                            x       y       z     vdW  Elec       q    Type
REMARK                         _______ _______ _______ _____ _____    ______ ____
ROOT
ATOM      1  N   UNL     1      34.907 -17.549 -21.623  0.00  0.00    -0.244 N 
ATOM      2  N   UNL     1      34.853 -16.737 -20.555  0.00  0.00    -0.131 NA
ATOM      3  C   UNL     1      34.413 -16.997 -22.773  0.00  0.00    +0.083 A 
ATOM      4  C   UNL     1      34.003 -15.716 -22.419  0.00  0.00    +0.072 A 
ATOM      5  C   UNL     1      34.302 -15.623 -21.042  0.00  0.00    +0.243 A 
ATOM      6  C   UNL     1      34.294 -17.502 -24.070  0.00  0.00    +0.019 C 
ATOM      7  C   UNL     1      33.441 -14.878 -23.395  0.00  0.00    +0.006 C 
ATOM      8  C   UNL     1      33.732 -16.655 -25.031  0.00  0.00    +0.002 C 
ATOM      9  C   UNL     1      33.311 -15.366 -24.702  0.00  0.00    +0.000 C 
ENDROOT
BRANCH   5  10
ATOM     10  O   UNL     1      34.103 -14.590 -20.212  0.00  0.00    -0.459 OA
BRANCH  10  11
ATOM     11  C   UNL     1      33.739 -13.337 -20.804  0.00  0.00    +0.205 C 
BRANCH  11  12
ATOM     12  C   UNL     1      32.257 -13.089 -20.564  0.00  0.00    +0.025 C 
BRANCH  12  13
ATOM     13  C   UNL     1      31.669 -12.148 -21.610  0.00  0.00    -0.074 C 
BRANCH  13  14
ATOM     14  N   UNL     1      30.817 -11.152 -20.972  0.00  0.00    +0.384 N 
ATOM     15  C   UNL     1      31.475 -10.588 -19.793  0.00  0.00    -0.101 C 
ATOM     16  C   UNL     1      30.472 -10.087 -21.917  0.00  0.00    -0.101 C 
ATOM     17  H   UNL     1      29.956 -11.612 -20.675  0.00  0.00    -0.080 HD
ENDBRANCH  13  14
ENDBRANCH  12  13
ENDBRANCH  11  12
ENDBRANCH  10  11
ENDBRANCH   5  10
BRANCH   1  18
ATOM     18  C   UNL     1      35.458 -18.876 -21.470  0.00  0.00    +0.154 C 
BRANCH  18  19
ATOM     19  C   UNL     1      34.579 -19.739 -20.605  0.00  0.00    +0.002 C 
ATOM     20  C   UNL     1      35.161 -20.623 -19.706  0.00  0.00    -0.002 C 
ATOM     21  C   UNL     1      33.200 -19.639 -20.717  0.00  0.00    -0.002 C 
ATOM     22  C   UNL     1      34.346 -21.423 -18.905  0.00  0.00    -0.000 C 
ATOM     23  C   UNL     1      32.385 -20.438 -19.915  0.00  0.00    -0.000 C 
ATOM     24  C   UNL     1      32.958 -21.330 -19.009  0.00  0.00    -0.000 C 
ENDBRANCH  18  19
ENDBRANCH   1  18
TORSDOF 7
ENDMDL
MODEL 2
REMARK VINA RESULT:     -10.9      1.348      2.053
REMARK  Name = 12555
REMARK  7 active torsions:
REMARK  status: ('A' for Active; 'I' for Inactive)
REMARK    1  A    between atoms: N_1  and  C_18
REMARK    2  A    between atoms: C_5  and  O_10
REMARK    3  A    between atoms: O_10  and  C_11
REMARK    4  A    between atoms: C_11  and  C_12
REMARK    5  A    between atoms: C_12  and  C_13
REMARK    6  A    between atoms: C_13  and  N_14
REMARK    7  A    between atoms: C_18  and  C_19
REMARK                            x       y       z     vdW  Elec       q    Type
REMARK                         _______ _______ _______ _____ _____    ______ ____
ROOT
ATOM      1  N   UNL     1      35.146 -18.299 -21.259  0.00  0.00    -0.244 N 
ATOM      2  N   UNL     1      35.193 -17.156 -20.554  0.00  0.00    -0.131 NA
ATOM      3  C   UNL     1      34.563 -18.175 -22.490  0.00  0.00    +0.083 A 
ATOM      4  C   UNL     1      34.199 -16.837 -22.591  0.00  0.00    +0.072 A 
ATOM      5  C   UNL     1      34.616 -16.269 -21.366  0.00  0.00    +0.243 A 
ATOM      6  C   UNL     1      34.328 -19.105 -23.505  0.00  0.00    +0.019 C 
ATOM      7  C   UNL     1      33.565 -16.381 -23.758  0.00  0.00    +0.006 C 
ATOM      8  C   UNL     1      33.695 -18.637 -24.661  0.00  0.00    +0.002 C 
ATOM      9  C   UNL     1      33.319 -17.298 -24.788  0.00  0.00    +0.000 C 
ENDROOT
BRANCH   5  10
ATOM     10  O   UNL     1      34.499 -15.000 -20.952  0.00  0.00    -0.459 OA
BRANCH  10  11
ATOM     11  C   UNL     1      33.220 -14.589 -20.455  0.00  0.00    +0.205 C 
BRANCH  11  12
ATOM     12  C   UNL     1      32.795 -13.319 -21.179  0.00  0.00    +0.025 C 
BRANCH  12  13
ATOM     13  C   UNL     1      33.777 -12.949 -22.285  0.00  0.00    -0.074 C 
BRANCH  13  14
ATOM     14  N   UNL     1      33.181 -11.966 -23.183  0.00  0.00    +0.384 N 
ATOM     15  C   UNL     1      32.747 -12.601 -24.428  0.00  0.00    -0.101 C 
ATOM     16  C   UNL     1      32.053 -11.294 -22.535  0.00  0.00    -0.101 C 
ATOM     17  H   UNL     1      33.890 -11.266 -23.404  0.00  0.00    -0.080 HD
ENDBRANCH  13  14
ENDBRANCH  12  13
ENDBRANCH  11  12
ENDBRANCH  10  11
ENDBRANCH   5  10
BRANCH   1  18
ATOM     18  C   UNL     1      35.694 -19.505 -20.680  0.00  0.00    +0.154 C 
BRANCH  18  19
ATOM     19  C   UNL     1      34.644 -20.279 -19.929  0.00  0.00    +0.002 C 
ATOM     20  C   UNL     1      33.301 -20.008 -20.157  0.00  0.00    -0.002 C 
ATOM     21  C   UNL     1      35.031 -21.254 -19.021  0.00  0.00    -0.002 C 
ATOM     22  C   UNL     1      32.328 -20.726 -19.462  0.00  0.00    -0.000 C 
ATOM     23  C   UNL     1      34.058 -21.971 -18.325  0.00  0.00    -0.000 C 
ATOM     24  C   UNL     1      32.706 -21.707 -18.546  0.00  0.00    -0.000 C 
ENDBRANCH  18  19
ENDBRANCH   1  18
TORSDOF 7
ENDMDL
MODEL 3
REMARK VINA RESULT:     -10.1      6.319     10.741
REMARK  Name = 12555
REMARK  7 active torsions:
REMARK  status: ('A' for Active; 'I' for Inactive)
REMARK    1  A    between atoms: N_1  and  C_18
REMARK    2  A    between atoms: C_5  and  O_10
REMARK    3  A    between atoms: O_10  and  C_11
REMARK    4  A    between atoms: C_11  and  C_12
REMARK    5  A    between atoms: C_12  and  C_13
REMARK    6  A    between atoms: C_13  and  N_14
REMARK    7  A    between atoms: C_18  and  C_19
REMARK                            x       y       z     vdW  Elec       q    Type
REMARK                         _______ _______ _______ _____ _____    ______ ____
ROOT
ATOM      1  N   UNL     1      33.192 -23.109 -16.797  0.00  0.00    -0.244 N 
ATOM      2  N   UNL     1      34.279 -23.140 -16.009  0.00  0.00    -0.131 NA
ATOM      3  C   UNL     1      32.024 -22.852 -16.132  0.00  0.00    +0.083 A 
ATOM      4  C   UNL     1      32.386 -22.706 -14.798  0.00  0.00    +0.072 A 
ATOM      5  C   UNL     1      33.786 -22.895 -14.794  0.00  0.00    +0.243 A 
ATOM      6  C   UNL     1      30.706 -22.738 -16.580  0.00  0.00    +0.019 C 
ATOM      7  C   UNL     1      31.395 -22.431 -13.842  0.00  0.00    +0.006 C 
ATOM      8  C   UNL     1      29.730 -22.465 -15.616  0.00  0.00    +0.002 C 
ATOM      9  C   UNL     1      30.067 -22.314 -14.269  0.00  0.00    +0.000 C 
ENDROOT
BRANCH   5  10
ATOM     10  O   UNL     1      34.630 -22.858 -13.753  0.00  0.00    -0.459 OA
BRANCH  10  11
ATOM     11  C   UNL     1      34.437 -23.831 -12.719  0.00  0.00    +0.205 C 
BRANCH  11  12
ATOM     12  C   UNL     1      35.772 -24.099 -12.039  0.00  0.00    +0.025 C 
BRANCH  12  13
ATOM     13  C   UNL     1      36.550 -25.203 -12.747  0.00  0.00    -0.074 C 
BRANCH  13  14
ATOM     14  N   UNL     1      36.592 -24.952 -14.183  0.00  0.00    +0.384 N 
ATOM     15  C   UNL     1      37.839 -24.281 -14.553  0.00  0.00    -0.101 C 
ATOM     16  C   UNL     1      36.448 -26.203 -14.930  0.00  0.00    -0.101 C 
ATOM     17  H   UNL     1      35.811 -24.340 -14.422  0.00  0.00    -0.080 HD
ENDBRANCH  13  14
ENDBRANCH  12  13
ENDBRANCH  11  12
ENDBRANCH  10  11
ENDBRANCH   5  10
BRANCH   1  18
ATOM     18  C   UNL     1      33.346 -23.337 -18.216  0.00  0.00    +0.154 C 
BRANCH  18  19
ATOM     19  C   UNL     1      33.605 -22.051 -18.954  0.00  0.00    +0.002 C 
ATOM     20  C   UNL     1      34.913 -21.649 -19.189  0.00  0.00    -0.002 C 
ATOM     21  C   UNL     1      32.533 -21.286 -19.392  0.00  0.00    -0.002 C 
ATOM     22  C   UNL     1      35.152 -20.458 -19.873  0.00  0.00    -0.000 C 
ATOM     23  C   UNL     1      32.773 -20.094 -20.076  0.00  0.00    -0.000 C 
ATOM     24  C   UNL     1      34.083 -19.680 -20.317  0.00  0.00    -0.000 C 
ENDBRANCH  18  19
ENDBRANCH   1  18
TORSDOF 7
ENDMDL
MODEL 4
REMARK VINA RESULT:     -10.1      6.148     10.726
REMARK  Name = 12555
REMARK  7 active torsions:
REMARK  status: ('A' for Active; 'I' for Inactive)
REMARK    1  A    between atoms: N_1  and  C_18
REMARK    2  A    between atoms: C_5  and  O_10
REMARK    3  A    between atoms: O_10  and  C_11
REMARK    4  A    between atoms: C_11  and  C_12
REMARK    5  A    between atoms: C_12  and  C_13
REMARK    6  A    between atoms: C_13  and  N_14
REMARK    7  A    between atoms: C_18  and  C_19
REMARK                            x       y       z     vdW  Elec       q    Type
REMARK                         _______ _______ _______ _____ _____    ______ ____
ROOT
ATOM      1  N   UNL     1      33.354 -22.946 -16.953  0.00  0.00    -0.244 N 
ATOM      2  N   UNL     1      34.512 -22.863 -16.278  0.00  0.00    -0.131 NA
ATOM      3  C   UNL     1      32.239 -22.807 -16.173  0.00  0.00    +0.083 A 
ATOM      4  C   UNL     1      32.717 -22.618 -14.881  0.00  0.00    +0.072 A 
ATOM      5  C   UNL     1      34.122 -22.664 -15.018  0.00  0.00    +0.243 A 
ATOM      6  C   UNL     1      30.878 -22.830 -16.485  0.00  0.00    +0.019 C 
ATOM      7  C   UNL     1      31.804 -22.441 -13.828  0.00  0.00    +0.006 C 
ATOM      8  C   UNL     1      29.981 -22.652 -15.426  0.00  0.00    +0.002 C 
ATOM      9  C   UNL     1      30.434 -22.462 -14.119  0.00  0.00    +0.000 C 
ENDROOT
BRANCH   5  10
ATOM     10  O   UNL     1      35.058 -22.537 -14.068  0.00  0.00    -0.459 OA
BRANCH  10  11
ATOM     11  C   UNL     1      36.427 -22.616 -14.483  0.00  0.00    +0.205 C 
BRANCH  11  12
ATOM     12  C   UNL     1      37.170 -23.565 -13.554  0.00  0.00    +0.025 C 
BRANCH  12  13
ATOM     13  C   UNL     1      37.937 -24.627 -14.335  0.00  0.00    -0.074 C 
BRANCH  13  14
ATOM     14  N   UNL     1      37.442 -25.958 -14.000  0.00  0.00    +0.384 N 
ATOM     15  C   UNL     1      36.951 -25.993 -12.622  0.00  0.00    -0.101 C 
ATOM     16  C   UNL     1      36.383 -26.362 -14.926  0.00  0.00    -0.101 C 
ATOM     17  H   UNL     1      38.217 -26.616 -14.087  0.00  0.00    -0.080 HD
ENDBRANCH  13  14
ENDBRANCH  12  13
ENDBRANCH  11  12
ENDBRANCH  10  11
ENDBRANCH   5  10
BRANCH   1  18
ATOM     18  C   UNL     1      33.387 -23.165 -18.381  0.00  0.00    +0.154 C 
BRANCH  18  19
ATOM     19  C   UNL     1      33.644 -21.882 -19.127  0.00  0.00    +0.002 C 
ATOM     20  C   UNL     1      34.951 -21.487 -19.377  0.00  0.00    -0.002 C 
ATOM     21  C   UNL     1      32.570 -21.114 -19.555  0.00  0.00    -0.002 C 
ATOM     22  C   UNL     1      35.188 -20.299 -20.068  0.00  0.00    -0.000 C 
ATOM     23  C   UNL     1      32.808 -19.926 -20.247  0.00  0.00    -0.000 C 
ATOM     24  C   UNL     1      34.118 -19.519 -20.504  0.00  0.00    -0.000 C 
ENDBRANCH  18  19
ENDBRANCH   1  18
TORSDOF 7
ENDMDL
MODEL 5
REMARK VINA RESULT:     -10.0      6.488     10.141
REMARK  Name = 12555
REMARK  7 active torsions:
REMARK  status: ('A' for Active; 'I' for Inactive)
REMARK    1  A    between atoms: N_1  and  C_18
REMARK    2  A    between atoms: C_5  and  O_10
REMARK    3  A    between atoms: O_10  and  C_11
REMARK    4  A    between atoms: C_11  and  C_12
REMARK    5  A    between atoms: C_12  and  C_13
REMARK    6  A    between atoms: C_13  and  N_14
REMARK    7  A    between atoms: C_18  and  C_19
REMARK                            x       y       z     vdW  Elec       q    Type
REMARK                         _______ _______ _______ _____ _____    ______ ____
ROOT
ATOM      1  N   UNL     1      32.237 -22.336 -17.019  0.00  0.00    -0.244 N 
ATOM      2  N   UNL     1      33.099 -22.965 -16.203  0.00  0.00    -0.131 NA
ATOM      3  C   UNL     1      32.830 -21.680 -18.063  0.00  0.00    +0.083 A 
ATOM      4  C   UNL     1      34.194 -21.901 -17.908  0.00  0.00    +0.072 A 
ATOM      5  C   UNL     1      34.288 -22.698 -16.745  0.00  0.00    +0.243 A 
ATOM      6  C   UNL     1      32.297 -20.925 -19.110  0.00  0.00    +0.019 C 
ATOM      7  C   UNL     1      35.091 -21.349 -18.835  0.00  0.00    +0.006 C 
ATOM      8  C   UNL     1      33.203 -20.381 -20.026  0.00  0.00    +0.002 C 
ATOM      9  C   UNL     1      34.577 -20.587 -19.893  0.00  0.00    +0.000 C 
ENDROOT
BRANCH   5  10
ATOM     10  O   UNL     1      35.387 -23.189 -16.157  0.00  0.00    -0.459 OA
BRANCH  10  11
ATOM     11  C   UNL     1      36.314 -22.245 -15.610  0.00  0.00    +0.205 C 
BRANCH  11  12
ATOM     12  C   UNL     1      36.739 -22.715 -14.226  0.00  0.00    +0.025 C 
BRANCH  12  13
ATOM     13  C   UNL     1      36.349 -24.170 -13.984  0.00  0.00    -0.074 C 
BRANCH  13  14
ATOM     14  N   UNL     1      37.132 -25.052 -14.841  0.00  0.00    +0.384 N 
ATOM     15  C   UNL     1      38.482 -25.230 -14.303  0.00  0.00    -0.101 C 
ATOM     16  C   UNL     1      36.470 -26.350 -14.988  0.00  0.00    -0.101 C 
ATOM     17  H   UNL     1      37.204 -24.620 -15.763  0.00  0.00    -0.080 HD
ENDBRANCH  13  14
ENDBRANCH  12  13
ENDBRANCH  11  12
ENDBRANCH  10  11
ENDBRANCH   5  10
BRANCH   1  18
ATOM     18  C   UNL     1      30.821 -22.407 -16.737  0.00  0.00    +0.154 C 
BRANCH  18  19
ATOM     19  C   UNL     1      30.560 -23.051 -15.401  0.00  0.00    +0.002 C 
ATOM     20  C   UNL     1      30.928 -22.387 -14.239  0.00  0.00    -0.002 C 
ATOM     21  C   UNL     1      29.953 -24.298 -15.350  0.00  0.00    -0.002 C 
ATOM     22  C   UNL     1      30.685 -22.984 -13.001  0.00  0.00    -0.000 C 
ATOM     23  C   UNL     1      29.710 -24.895 -14.113  0.00  0.00    -0.000 C 
ATOM     24  C   UNL     1      30.076 -24.237 -12.938  0.00  0.00    -0.000 C 
ENDBRANCH  18  19
ENDBRANCH   1  18
TORSDOF 7
ENDMDL
MODEL 6
REMARK VINA RESULT:     -10.0      4.823      8.710
REMARK  Name = 12555
REMARK  7 active torsions:
REMARK  status: ('A' for Active; 'I' for Inactive)
REMARK    1  A    between atoms: N_1  and  C_18
REMARK    2  A    between atoms: C_5  and  O_10
REMARK    3  A    between atoms: O_10  and  C_11
REMARK    4  A    between atoms: C_11  and  C_12
REMARK    5  A    between atoms: C_12  and  C_13
REMARK    6  A    between atoms: C_13  and  N_14
REMARK    7  A    between atoms: C_18  and  C_19
REMARK                            x       y       z     vdW  Elec       q    Type
REMARK                         _______ _______ _______ _____ _____    ______ ____
ROOT
ATOM      1  N   UNL     1      34.688 -22.499 -15.685  0.00  0.00    -0.244 N 
ATOM      2  N   UNL     1      35.080 -22.353 -16.961  0.00  0.00    -0.131 NA
ATOM      3  C   UNL     1      33.332 -22.588 -15.522  0.00  0.00    +0.083 A 
ATOM      4  C   UNL     1      32.801 -22.489 -16.803  0.00  0.00    +0.072 A 
ATOM      5  C   UNL     1      33.931 -22.347 -17.639  0.00  0.00    +0.243 A 
ATOM      6  C   UNL     1      32.542 -22.743 -14.381  0.00  0.00    +0.019 C 
ATOM      7  C   UNL     1      31.409 -22.546 -16.978  0.00  0.00    +0.006 C 
ATOM      8  C   UNL     1      31.157 -22.798 -14.571  0.00  0.00    +0.002 C 
ATOM      9  C   UNL     1      30.598 -22.701 -15.846  0.00  0.00    +0.000 C 
ENDROOT
BRANCH   5  10
ATOM     10  O   UNL     1      33.971 -22.212 -18.971  0.00  0.00    -0.459 OA
BRANCH  10  11
ATOM     11  C   UNL     1      34.707 -21.099 -19.494  0.00  0.00    +0.205 C 
BRANCH  11  12
ATOM     12  C   UNL     1      33.727 -20.089 -20.073  0.00  0.00    +0.025 C 
BRANCH  12  13
ATOM     13  C   UNL     1      34.335 -19.325 -21.245  0.00  0.00    -0.074 C 
BRANCH  13  14
ATOM     14  N   UNL     1      35.173 -18.235 -20.758  0.00  0.00    +0.384 N 
ATOM     15  C   UNL     1      36.563 -18.429 -21.172  0.00  0.00    -0.101 C 
ATOM     16  C   UNL     1      34.674 -16.946 -21.242  0.00  0.00    -0.101 C 
ATOM     17  H   UNL     1      35.134 -18.235 -19.738  0.00  0.00    -0.080 HD
ENDBRANCH  13  14
ENDBRANCH  12  13
ENDBRANCH  11  12
ENDBRANCH  10  11
ENDBRANCH   5  10
BRANCH   1  18
ATOM     18  C   UNL     1      35.688 -22.548 -14.643  0.00  0.00    +0.154 C 
BRANCH  18  19
ATOM     19  C   UNL     1      36.369 -23.890 -14.599  0.00  0.00    +0.002 C 
ATOM     20  C   UNL     1      35.610 -25.046 -14.726  0.00  0.00    -0.002 C 
ATOM     21  C   UNL     1      37.746 -23.954 -14.435  0.00  0.00    -0.002 C 
ATOM     22  C   UNL     1      36.241 -26.289 -14.686  0.00  0.00    -0.000 C 
ATOM     23  C   UNL     1      38.377 -25.197 -14.395  0.00  0.00    -0.000 C 
ATOM     24  C   UNL     1      37.624 -26.366 -14.521  0.00  0.00    -0.000 C 
ENDBRANCH  18  19
ENDBRANCH   1  18
TORSDOF 7
ENDMDL
MODEL 7
REMARK VINA RESULT:      -9.7      1.469      2.410
REMARK  Name = 12555
REMARK  7 active torsions:
REMARK  status: ('A' for Active; 'I' for Inactive)
REMARK    1  A    between atoms: N_1  and  C_18
REMARK    2  A    between atoms: C_5  and  O_10
REMARK    3  A    between atoms: O_10  and  C_11
REMARK    4  A    between atoms: C_11  and  C_12
REMARK    5  A    between atoms: C_12  and  C_13
REMARK    6  A    between atoms: C_13  and  N_14
REMARK    7  A    between atoms: C_18  and  C_19
REMARK                            x       y       z     vdW  Elec       q    Type
REMARK                         _______ _______ _______ _____ _____    ______ ____
ROOT
ATOM      1  N   UNL     1      34.060 -15.869 -23.170  0.00  0.00    -0.244 N 
ATOM      2  N   UNL     1      34.137 -15.543 -21.870  0.00  0.00    -0.131 NA
ATOM      3  C   UNL     1      33.612 -14.859 -23.977  0.00  0.00    +0.083 A 
ATOM      4  C   UNL     1      33.377 -13.786 -23.124  0.00  0.00    +0.072 A 
ATOM      5  C   UNL     1      33.720 -14.276 -21.844  0.00  0.00    +0.243 A 
ATOM      6  C   UNL     1      33.396 -14.796 -25.355  0.00  0.00    +0.019 C 
ATOM      7  C   UNL     1      32.901 -12.576 -23.654  0.00  0.00    +0.006 C 
ATOM      8  C   UNL     1      32.922 -13.585 -25.869  0.00  0.00    +0.002 C 
ATOM      9  C   UNL     1      32.677 -12.492 -25.035  0.00  0.00    +0.000 C 
ENDROOT
BRANCH   5  10
ATOM     10  O   UNL     1      33.674 -13.638 -20.667  0.00  0.00    -0.459 OA
BRANCH  10  11
ATOM     11  C   UNL     1      32.390 -13.498 -20.048  0.00  0.00    +0.205 C 
BRANCH  11  12
ATOM     12  C   UNL     1      31.662 -12.322 -20.683  0.00  0.00    +0.025 C 
BRANCH  12  13
ATOM     13  C   UNL     1      31.740 -11.076 -19.808  0.00  0.00    -0.074 C 
BRANCH  13  14
ATOM     14  N   UNL     1      30.796 -10.068 -20.277  0.00  0.00    +0.384 N 
ATOM     15  C   UNL     1      31.364  -8.726 -20.140  0.00  0.00    -0.101 C 
ATOM     16  C   UNL     1      30.422 -10.320 -21.670  0.00  0.00    -0.101 C 
ATOM     17  H   UNL     1      29.956 -10.126 -19.701  0.00  0.00    -0.080 HD
ENDBRANCH  13  14
ENDBRANCH  12  13
ENDBRANCH  11  12
ENDBRANCH  10  11
ENDBRANCH   5  10
BRANCH   1  18
ATOM     18  C   UNL     1      34.442 -17.200 -23.585  0.00  0.00    +0.154 C 
BRANCH  18  19
ATOM     19  C   UNL     1      34.828 -18.053 -22.406  0.00  0.00    +0.002 C 
ATOM     20  C   UNL     1      36.112 -17.960 -21.886  0.00  0.00    -0.002 C 
ATOM     21  C   UNL     1      33.894 -18.918 -21.853  0.00  0.00    -0.002 C 
ATOM     22  C   UNL     1      36.469 -18.750 -20.793  0.00  0.00    -0.000 C 
ATOM     23  C   UNL     1      34.251 -19.708 -20.761  0.00  0.00    -0.000 C 
ATOM     24  C   UNL     1      35.539 -19.624 -20.230  0.00  0.00    -0.000 C 
ENDBRANCH  18  19
ENDBRANCH   1  18
TORSDOF 7
ENDMDL
MODEL 8
REMARK VINA RESULT:      -9.5      5.200     10.375
REMARK  Name = 12555
REMARK  7 active torsions:
REMARK  status: ('A' for Active; 'I' for Inactive)
REMARK    1  A    between atoms: N_1  and  C_18
REMARK    2  A    between atoms: C_5  and  O_10
REMARK    3  A    between atoms: O_10  and  C_11
REMARK    4  A    between atoms: C_11  and  C_12
REMARK    5  A    between atoms: C_12  and  C_13
REMARK    6  A    between atoms: C_13  and  N_14
REMARK    7  A    between atoms: C_18  and  C_19
REMARK                            x       y       z     vdW  Elec       q    Type
REMARK                         _______ _______ _______ _____ _____    ______ ____
ROOT
ATOM      1  N   UNL     1      34.894 -21.906 -18.327  0.00  0.00    -0.244 N 
ATOM      2  N   UNL     1      36.099 -21.667 -17.784  0.00  0.00    -0.131 NA
ATOM      3  C   UNL     1      33.925 -22.236 -17.419  0.00  0.00    +0.083 A 
ATOM      4  C   UNL     1      34.558 -22.209 -16.181  0.00  0.00    +0.072 A 
ATOM      5  C   UNL     1      35.892 -21.853 -16.480  0.00  0.00    +0.243 A 
ATOM      6  C   UNL     1      32.573 -22.549 -17.575  0.00  0.00    +0.019 C 
ATOM      7  C   UNL     1      33.821 -22.509 -15.024  0.00  0.00    +0.006 C 
ATOM      8  C   UNL     1      31.852 -22.845 -16.413  0.00  0.00    +0.002 C 
ATOM      9  C   UNL     1      32.464 -22.826 -15.158  0.00  0.00    +0.000 C 
ENDROOT
BRANCH   5  10
ATOM     10  O   UNL     1      36.921 -21.690 -15.636  0.00  0.00    -0.459 OA
BRANCH  10  11
ATOM     11  C   UNL     1      36.995 -22.579 -14.515  0.00  0.00    +0.205 C 
BRANCH  11  12
ATOM     12  C   UNL     1      37.855 -23.776 -14.891  0.00  0.00    +0.025 C 
BRANCH  12  13
ATOM     13  C   UNL     1      37.185 -25.091 -14.505  0.00  0.00    -0.074 C 
BRANCH  13  14
ATOM     14  N   UNL     1      37.998 -25.805 -13.527  0.00  0.00    +0.384 N 
ATOM     15  C   UNL     1      39.399 -25.393 -13.622  0.00  0.00    -0.101 C 
ATOM     16  C   UNL     1      37.493 -25.578 -12.172  0.00  0.00    -0.101 C 
ATOM     17  H   UNL     1      37.938 -26.803 -13.732  0.00  0.00    -0.080 HD
ENDBRANCH  13  14
ENDBRANCH  12  13
ENDBRANCH  11  12
ENDBRANCH  10  11
ENDBRANCH   5  10
BRANCH   1  18
ATOM     18  C   UNL     1      34.733 -21.797 -19.759  0.00  0.00    +0.154 C 
BRANCH  18  19
ATOM     19  C   UNL     1      34.935 -20.380 -20.228  0.00  0.00    +0.002 C 
ATOM     20  C   UNL     1      33.836 -19.623 -20.609  0.00  0.00    -0.002 C 
ATOM     21  C   UNL     1      36.217 -19.850 -20.270  0.00  0.00    -0.002 C 
ATOM     22  C   UNL     1      34.024 -18.311 -21.043  0.00  0.00    -0.000 C 
ATOM     23  C   UNL     1      36.405 -18.538 -20.704  0.00  0.00    -0.000 C 
ATOM     24  C   UNL     1      35.307 -17.768 -21.090  0.00  0.00    -0.000 C 
ENDBRANCH  18  19
ENDBRANCH   1  18
TORSDOF 7
ENDMDL
MODEL 9
REMARK VINA RESULT:      -9.4      1.817      6.815
REMARK  Name = 12555
REMARK  7 active torsions:
REMARK  status: ('A' for Active; 'I' for Inactive)
REMARK    1  A    between atoms: N_1  and  C_18
REMARK    2  A    between atoms: C_5  and  O_10
REMARK    3  A    between atoms: O_10  and  C_11
REMARK    4  A    between atoms: C_11  and  C_12
REMARK    5  A    between atoms: C_12  and  C_13
REMARK    6  A    between atoms: C_13  and  N_14
REMARK    7  A    between atoms: C_18  and  C_19
REMARK                            x       y       z     vdW  Elec       q    Type
REMARK                         _______ _______ _______ _____ _____    ______ ____
ROOT
ATOM      1  N   UNL     1      34.332 -15.471 -22.756  0.00  0.00    -0.244 N 
ATOM      2  N   UNL     1      34.962 -15.726 -21.598  0.00  0.00    -0.131 NA
ATOM      3  C   UNL     1      33.911 -16.588 -23.424  0.00  0.00    +0.083 A 
ATOM      4  C   UNL     1      34.303 -17.660 -22.629  0.00  0.00    +0.072 A 
ATOM      5  C   UNL     1      34.943 -17.057 -21.523  0.00  0.00    +0.243 A 
ATOM      6  C   UNL     1      33.232 -16.747 -24.634  0.00  0.00    +0.019 C 
ATOM      7  C   UNL     1      34.012 -18.969 -23.045  0.00  0.00    +0.006 C 
ATOM      8  C   UNL     1      32.950 -18.057 -25.035  0.00  0.00    +0.002 C 
ATOM      9  C   UNL     1      33.332 -19.150 -24.257  0.00  0.00    +0.000 C 
ENDROOT
BRANCH   5  10
ATOM     10  O   UNL     1      35.506 -17.649 -20.461  0.00  0.00    -0.459 OA
BRANCH  10  11
ATOM     11  C   UNL     1      36.323 -18.800 -20.709  0.00  0.00    +0.205 C 
BRANCH  11  12
ATOM     12  C   UNL     1      36.028 -19.852 -19.649  0.00  0.00    +0.025 C 
BRANCH  12  13
ATOM     13  C   UNL     1      34.970 -20.843 -20.122  0.00  0.00    -0.074 C 
BRANCH  13  14
ATOM     14  N   UNL     1      33.819 -20.820 -19.227  0.00  0.00    +0.384 N 
ATOM     15  C   UNL     1      32.630 -20.334 -19.929  0.00  0.00    -0.101 C 
ATOM     16  C   UNL     1      33.571 -22.152 -18.672  0.00  0.00    -0.101 C 
ATOM     17  H   UNL     1      34.027 -20.182 -18.459  0.00  0.00    -0.080 HD
ENDBRANCH  13  14
ENDBRANCH  12  13
ENDBRANCH  11  12
ENDBRANCH  10  11
ENDBRANCH   5  10
BRANCH   1  18
ATOM     18  C   UNL     1      34.162 -14.098 -23.177  0.00  0.00    +0.154 C 
BRANCH  18  19
ATOM     19  C   UNL     1      33.192 -13.368 -22.287  0.00  0.00    +0.002 C 
ATOM     20  C   UNL     1      32.581 -12.209 -22.747  0.00  0.00    -0.002 C 
ATOM     21  C   UNL     1      32.919 -13.865 -21.020  0.00  0.00    -0.002 C 
ATOM     22  C   UNL     1      31.682 -11.533 -21.923  0.00  0.00    -0.000 C 
ATOM     23  C   UNL     1      32.019 -13.189 -20.196  0.00  0.00    -0.000 C 
ATOM     24  C   UNL     1      31.400 -12.023 -20.648  0.00  0.00    -0.000 C 
ENDBRANCH  18  19
ENDBRANCH   1  18
TORSDOF 7
ENDMDL
