MODEL 1
REMARK VINA RESULT:     -12.3      0.000      0.000
REMARK  Name = 9933475
REMARK  8 active torsions:
REMARK  status: ('A' for Active; 'I' for Inactive)
REMARK    1  A    between atoms: C_3  and  O_13
REMARK    2  A    between atoms: C_4  and  O_11
REMARK    3  A    between atoms: C_9  and  O_23
REMARK    4  A    between atoms: O_13  and  C_14
REMARK    5  A    between atoms: C_14  and  C_15
REMARK    6  A    between atoms: C_15  and  C_16
REMARK    7  A    between atoms: C_16  and  N_17
REMARK    8  A    between atoms: O_23  and  C_31
REMARK                            x       y       z     vdW  Elec       q    Type
REMARK                         _______ _______ _______ _____ _____    ______ ____
ROOT
ATOM      1  N   UNL     1      31.941 -21.082 -19.696  0.00  0.00    -0.248 NA
ATOM      2  N   UNL     1      32.819 -19.497 -21.284  0.00  0.00    -0.214 NA
ATOM      3  C   UNL     1      34.618 -22.211 -17.476  0.00  0.00    +0.173 C 
ATOM      4  C   UNL     1      35.706 -21.501 -17.957  0.00  0.00    +0.169 C 
ATOM      5  C   UNL     1      33.360 -22.068 -18.061  0.00  0.00    +0.055 C 
ATOM      6  C   UNL     1      34.265 -20.495 -19.624  0.00  0.00    +0.141 C 
ATOM      7  C   UNL     1      33.158 -21.212 -19.141  0.00  0.00    +0.072 C 
ATOM      8  C   UNL     1      35.534 -20.639 -19.035  0.00  0.00    +0.029 C 
ATOM      9  C   UNL     1      34.025 -19.651 -20.705  0.00  0.00    +0.213 C 
ATOM     10  C   UNL     1      31.837 -20.232 -20.738  0.00  0.00    +0.253 C 
ENDROOT
BRANCH   4  11
ATOM     11  O   UNL     1      36.938 -21.635 -17.393  0.00  0.00    -0.469 OA
ATOM     12  C   UNL     1      37.207 -20.857 -16.227  0.00  0.00    +0.253 C 
ENDBRANCH   4  11
BRANCH   3  13
ATOM     13  O   UNL     1      34.765 -23.068 -16.415  0.00  0.00    -0.472 OA
BRANCH  13  14
ATOM     14  C   UNL     1      33.924 -22.848 -15.292  0.00  0.00    +0.203 C 
BRANCH  14  15
ATOM     15  C   UNL     1      34.195 -23.929 -14.255  0.00  0.00    +0.025 C 
BRANCH  15  16
ATOM     16  C   UNL     1      35.269 -24.903 -14.730  0.00  0.00    -0.074 C 
BRANCH  16  17
ATOM     17  N   UNL     1      36.571 -24.513 -14.208  0.00  0.00    +0.387 N 
ATOM     18  C   UNL     1      36.509 -24.093 -12.809  0.00  0.00    -0.077 C 
ATOM     19  C   UNL     1      37.534 -25.614 -14.232  0.00  0.00    -0.077 C 
ATOM     20  C   UNL     1      37.968 -24.119 -12.380  0.00  0.00    -0.025 C 
ATOM     21  C   UNL     1      38.643 -25.115 -13.317  0.00  0.00    -0.025 C 
ATOM     22  H   UNL     1      36.862 -23.749 -14.816  0.00  0.00    -0.080 HD
ENDBRANCH  16  17
ENDBRANCH  15  16
ENDBRANCH  14  15
ENDBRANCH  13  14
ENDBRANCH   3  13
BRANCH   9  23
ATOM     23  O   UNL     1      35.042 -18.908 -21.245  0.00  0.00    -0.437 OA
BRANCH  23  31
ATOM     24  F   UNL     1      34.782 -16.426 -20.098  0.00  0.00    -0.201 F 
ATOM     25  N   UNL     1      33.648 -14.448 -24.113  0.00  0.00    -0.316 N 
ATOM     26  C   UNL     1      34.202 -15.470 -22.209  0.00  0.00    +0.045 C 
ATOM     27  C   UNL     1      33.984 -15.670 -23.574  0.00  0.00    +0.050 C 
ATOM     28  C   UNL     1      33.646 -13.487 -23.139  0.00  0.00    +0.026 C 
ATOM     29  C   UNL     1      33.986 -14.089 -21.949  0.00  0.00    +0.014 C 
ATOM     30  C   UNL     1      34.564 -16.575 -21.413  0.00  0.00    +0.176 C 
ATOM     31  C   UNL     1      34.690 -17.820 -22.019  0.00  0.00    +0.174 C 
ATOM     32  C   UNL     1      34.110 -16.922 -24.185  0.00  0.00    +0.018 C 
ATOM     33  C   UNL     1      34.470 -18.003 -23.375  0.00  0.00    +0.041 C 
ATOM     34  C   UNL     1      33.319 -12.082 -23.449  0.00  0.00    +0.047 C 
ATOM     35  H   UNL     1      33.440 -14.289 -25.062  0.00  0.00    +0.152 HD
ENDBRANCH  23  31
ENDBRANCH   9  23
TORSDOF 8
ENDMDL
MODEL 2
REMARK VINA RESULT:     -12.1      1.997      3.259
REMARK  Name = 9933475
REMARK  8 active torsions:
REMARK  status: ('A' for Active; 'I' for Inactive)
REMARK    1  A    between atoms: C_3  and  O_13
REMARK    2  A    between atoms: C_4  and  O_11
REMARK    3  A    between atoms: C_9  and  O_23
REMARK    4  A    between atoms: O_13  and  C_14
REMARK    5  A    between atoms: C_14  and  C_15
REMARK    6  A    between atoms: C_15  and  C_16
REMARK    7  A    between atoms: C_16  and  N_17
REMARK    8  A    between atoms: O_23  and  C_31
REMARK                            x       y       z     vdW  Elec       q    Type
REMARK                         _______ _______ _______ _____ _____    ______ ____
ROOT
ATOM      1  N   UNL     1      32.029 -21.265 -19.310  0.00  0.00    -0.248 NA
ATOM      2  N   UNL     1      32.870 -19.762 -20.996  0.00  0.00    -0.214 NA
ATOM      3  C   UNL     1      34.764 -22.321 -17.126  0.00  0.00    +0.173 C 
ATOM      4  C   UNL     1      35.843 -21.645 -17.673  0.00  0.00    +0.169 C 
ATOM      5  C   UNL     1      33.490 -22.191 -17.677  0.00  0.00    +0.055 C 
ATOM      6  C   UNL     1      34.358 -20.700 -19.339  0.00  0.00    +0.141 C 
ATOM      7  C   UNL     1      33.262 -21.383 -18.788  0.00  0.00    +0.072 C 
ATOM      8  C   UNL     1      35.644 -20.831 -18.784  0.00  0.00    +0.029 C 
ATOM      9  C   UNL     1      34.092 -19.903 -20.448  0.00  0.00    +0.213 C 
ATOM     10  C   UNL     1      31.899 -20.461 -20.386  0.00  0.00    +0.253 C 
ENDROOT
BRANCH   4  11
ATOM     11  O   UNL     1      37.091 -21.767 -17.142  0.00  0.00    -0.469 OA
ATOM     12  C   UNL     1      37.434 -20.880 -16.078  0.00  0.00    +0.253 C 
ENDBRANCH   4  11
BRANCH   3  13
ATOM     13  O   UNL     1      34.937 -23.130 -16.033  0.00  0.00    -0.472 OA
BRANCH  13  14
ATOM     14  C   UNL     1      34.430 -22.652 -14.795  0.00  0.00    +0.203 C 
BRANCH  14  15
ATOM     15  C   UNL     1      33.285 -23.552 -14.351  0.00  0.00    +0.025 C 
BRANCH  15  16
ATOM     16  C   UNL     1      31.962 -22.794 -14.306  0.00  0.00    -0.074 C 
BRANCH  16  17
ATOM     17  N   UNL     1      30.880 -23.636 -14.794  0.00  0.00    +0.387 N 
ATOM     18  C   UNL     1      30.518 -24.686 -13.844  0.00  0.00    -0.077 C 
ATOM     19  C   UNL     1      29.646 -22.884 -15.019  0.00  0.00    -0.077 C 
ATOM     20  C   UNL     1      29.168 -25.162 -14.360  0.00  0.00    -0.025 C 
ATOM     21  C   UNL     1      28.596 -23.980 -15.136  0.00  0.00    -0.025 C 
ATOM     22  H   UNL     1      31.244 -24.026 -15.663  0.00  0.00    -0.080 HD
ENDBRANCH  16  17
ENDBRANCH  15  16
ENDBRANCH  14  15
ENDBRANCH  13  14
ENDBRANCH   3  13
BRANCH   9  23
ATOM     23  O   UNL     1      35.098 -19.197 -21.054  0.00  0.00    -0.437 OA
BRANCH  23  31
ATOM     24  F   UNL     1      34.908 -16.618 -20.127  0.00  0.00    -0.201 F 
ATOM     25  N   UNL     1      33.651 -14.993 -24.263  0.00  0.00    -0.316 N 
ATOM     26  C   UNL     1      34.262 -15.848 -22.295  0.00  0.00    +0.045 C 
ATOM     27  C   UNL     1      33.993 -16.166 -23.628  0.00  0.00    +0.050 C 
ATOM     28  C   UNL     1      33.695 -13.948 -23.380  0.00  0.00    +0.026 C 
ATOM     29  C   UNL     1      34.072 -14.445 -22.153  0.00  0.00    +0.014 C 
ATOM     30  C   UNL     1      34.641 -16.881 -21.415  0.00  0.00    +0.176 C 
ATOM     31  C   UNL     1      34.730 -18.178 -21.910  0.00  0.00    +0.174 C 
ATOM     32  C   UNL     1      34.082 -17.470 -24.127  0.00  0.00    +0.018 C 
ATOM     33  C   UNL     1      34.459 -18.479 -23.235  0.00  0.00    +0.041 C 
ATOM     34  C   UNL     1      33.372 -12.573 -23.804  0.00  0.00    +0.047 C 
ATOM     35  H   UNL     1      33.410 -14.917 -25.214  0.00  0.00    +0.152 HD
ENDBRANCH  23  31
ENDBRANCH   9  23
TORSDOF 8
ENDMDL
MODEL 3
REMARK VINA RESULT:     -11.6      3.253     10.677
REMARK  Name = 9933475
REMARK  8 active torsions:
REMARK  status: ('A' for Active; 'I' for Inactive)
REMARK    1  A    between atoms: C_3  and  O_13
REMARK    2  A    between atoms: C_4  and  O_11
REMARK    3  A    between atoms: C_9  and  O_23
REMARK    4  A    between atoms: O_13  and  C_14
REMARK    5  A    between atoms: C_14  and  C_15
REMARK    6  A    between atoms: C_15  and  C_16
REMARK    7  A    between atoms: C_16  and  N_17
REMARK    8  A    between atoms: O_23  and  C_31
REMARK                            x       y       z     vdW  Elec       q    Type
REMARK                         _______ _______ _______ _____ _____    ______ ____
ROOT
ATOM      1  N   UNL     1      33.508 -17.631 -25.035  0.00  0.00    -0.248 NA
ATOM      2  N   UNL     1      34.386 -19.384 -23.634  0.00  0.00    -0.214 NA
ATOM      3  C   UNL     1      33.620 -14.447 -23.241  0.00  0.00    +0.173 C 
ATOM      4  C   UNL     1      34.169 -14.824 -22.026  0.00  0.00    +0.169 C 
ATOM      5  C   UNL     1      33.400 -15.390 -24.245  0.00  0.00    +0.055 C 
ATOM      6  C   UNL     1      34.279 -17.108 -22.827  0.00  0.00    +0.141 C 
ATOM      7  C   UNL     1      33.724 -16.732 -24.060  0.00  0.00    +0.072 C 
ATOM      8  C   UNL     1      34.501 -16.158 -21.813  0.00  0.00    +0.029 C 
ATOM      9  C   UNL     1      34.589 -18.457 -22.678  0.00  0.00    +0.213 C 
ATOM     10  C   UNL     1      33.851 -18.908 -24.770  0.00  0.00    +0.253 C 
ENDROOT
BRANCH   4  11
ATOM     11  O   UNL     1      34.386 -13.911 -21.039  0.00  0.00    -0.469 OA
ATOM     12  C   UNL     1      33.402 -13.820 -20.010  0.00  0.00    +0.253 C 
ENDBRANCH   4  11
BRANCH   3  13
ATOM     13  O   UNL     1      33.283 -13.138 -23.473  0.00  0.00    -0.472 OA
BRANCH  13  14
ATOM     14  C   UNL     1      31.988 -12.727 -23.059  0.00  0.00    +0.203 C 
BRANCH  14  15
ATOM     15  C   UNL     1      32.074 -11.310 -22.508  0.00  0.00    +0.025 C 
BRANCH  15  16
ATOM     16  C   UNL     1      31.185 -11.131 -21.281  0.00  0.00    -0.074 C 
BRANCH  16  17
ATOM     17  N   UNL     1      30.998  -9.717 -20.995  0.00  0.00    +0.387 N 
ATOM     18  C   UNL     1      31.272  -9.389 -19.597  0.00  0.00    -0.077 C 
ATOM     19  C   UNL     1      31.901  -8.866 -21.770  0.00  0.00    -0.077 C 
ATOM     20  C   UNL     1      31.400  -7.874 -19.620  0.00  0.00    -0.025 C 
ATOM     21  C   UNL     1      31.809  -7.528 -21.049  0.00  0.00    -0.025 C 
ATOM     22  H   UNL     1      30.022  -9.544 -21.236  0.00  0.00    -0.080 HD
ENDBRANCH  16  17
ENDBRANCH  15  16
ENDBRANCH  14  15
ENDBRANCH  13  14
ENDBRANCH   3  13
BRANCH   9  23
ATOM     23  O   UNL     1      35.136 -18.920 -21.510  0.00  0.00    -0.437 OA
BRANCH  23  31
ATOM     24  F   UNL     1      36.240 -20.577 -19.617  0.00  0.00    -0.201 F 
ATOM     25  N   UNL     1      32.103 -21.970 -18.111  0.00  0.00    -0.316 N 
ATOM     26  C   UNL     1      34.066 -21.252 -18.890  0.00  0.00    +0.045 C 
ATOM     27  C   UNL     1      32.683 -21.137 -19.041  0.00  0.00    +0.050 C 
ATOM     28  C   UNL     1      33.069 -22.605 -17.378  0.00  0.00    +0.026 C 
ATOM     29  C   UNL     1      34.296 -22.180 -17.836  0.00  0.00    +0.014 C 
ATOM     30  C   UNL     1      34.906 -20.495 -19.731  0.00  0.00    +0.176 C 
ATOM     31  C   UNL     1      34.321 -19.663 -20.680  0.00  0.00    +0.174 C 
ATOM     32  C   UNL     1      32.094 -20.301 -19.996  0.00  0.00    +0.018 C 
ATOM     33  C   UNL     1      32.947 -19.560 -20.820  0.00  0.00    +0.041 C 
ATOM     34  C   UNL     1      32.718 -23.556 -16.308  0.00  0.00    +0.047 C 
ATOM     35  H   UNL     1      31.134 -22.090 -17.989  0.00  0.00    +0.152 HD
ENDBRANCH  23  31
ENDBRANCH   9  23
TORSDOF 8
ENDMDL
MODEL 4
REMARK VINA RESULT:     -11.5      2.394     10.109
REMARK  Name = 9933475
REMARK  8 active torsions:
REMARK  status: ('A' for Active; 'I' for Inactive)
REMARK    1  A    between atoms: C_3  and  O_13
REMARK    2  A    between atoms: C_4  and  O_11
REMARK    3  A    between atoms: C_9  and  O_23
REMARK    4  A    between atoms: O_13  and  C_14
REMARK    5  A    between atoms: C_14  and  C_15
REMARK    6  A    between atoms: C_15  and  C_16
REMARK    7  A    between atoms: C_16  and  N_17
REMARK    8  A    between atoms: O_23  and  C_31
REMARK                            x       y       z     vdW  Elec       q    Type
REMARK                         _______ _______ _______ _____ _____    ______ ____
ROOT
ATOM      1  N   UNL     1      31.160 -22.733 -17.112  0.00  0.00    -0.248 NA
ATOM      2  N   UNL     1      31.624 -23.380 -14.838  0.00  0.00    -0.214 NA
ATOM      3  C   UNL     1      34.207 -21.454 -18.676  0.00  0.00    +0.173 C 
ATOM      4  C   UNL     1      35.127 -21.571 -17.646  0.00  0.00    +0.169 C 
ATOM      5  C   UNL     1      32.881 -21.843 -18.493  0.00  0.00    +0.055 C 
ATOM      6  C   UNL     1      33.377 -22.477 -16.237  0.00  0.00    +0.141 C 
ATOM      7  C   UNL     1      32.441 -22.360 -17.277  0.00  0.00    +0.072 C 
ATOM      8  C   UNL     1      34.714 -22.084 -16.421  0.00  0.00    +0.029 C 
ATOM      9  C   UNL     1      32.900 -22.997 -15.037  0.00  0.00    +0.213 C 
ATOM     10  C   UNL     1      30.821 -23.222 -15.902  0.00  0.00    +0.253 C 
ENDROOT
BRANCH   4  11
ATOM     11  O   UNL     1      36.424 -21.192 -17.816  0.00  0.00    -0.469 OA
ATOM     12  C   UNL     1      37.137 -20.777 -16.652  0.00  0.00    +0.253 C 
ENDBRANCH   4  11
BRANCH   3  13
ATOM     13  O   UNL     1      34.590 -20.950 -19.892  0.00  0.00    -0.472 OA
BRANCH  13  14
ATOM     14  C   UNL     1      33.876 -19.819 -20.372  0.00  0.00    +0.203 C 
BRANCH  14  15
ATOM     15  C   UNL     1      34.647 -19.207 -21.534  0.00  0.00    +0.025 C 
BRANCH  15  16
ATOM     16  C   UNL     1      35.167 -17.815 -21.189  0.00  0.00    -0.074 C 
BRANCH  16  17
ATOM     17  N   UNL     1      35.099 -16.947 -22.355  0.00  0.00    +0.387 N 
ATOM     18  C   UNL     1      34.284 -17.516 -23.428  0.00  0.00    -0.077 C 
ATOM     19  C   UNL     1      34.483 -15.655 -22.054  0.00  0.00    -0.077 C 
ATOM     20  C   UNL     1      34.034 -16.321 -24.336  0.00  0.00    -0.025 C 
ATOM     21  C   UNL     1      34.169 -15.098 -23.435  0.00  0.00    -0.025 C 
ATOM     22  H   UNL     1      36.072 -16.841 -22.641  0.00  0.00    -0.080 HD
ENDBRANCH  16  17
ENDBRANCH  15  16
ENDBRANCH  14  15
ENDBRANCH  13  14
ENDBRANCH   3  13
BRANCH   9  23
ATOM     23  O   UNL     1      33.739 -23.150 -13.964  0.00  0.00    -0.437 OA
BRANCH  23  31
ATOM     24  F   UNL     1      36.180 -22.428 -12.930  0.00  0.00    -0.201 F 
ATOM     25  N   UNL     1      38.222 -26.260 -14.500  0.00  0.00    -0.316 N 
ATOM     26  C   UNL     1      37.170 -24.433 -13.772  0.00  0.00    +0.045 C 
ATOM     27  C   UNL     1      36.999 -25.629 -14.472  0.00  0.00    +0.050 C 
ATOM     28  C   UNL     1      39.157 -25.508 -13.843  0.00  0.00    +0.026 C 
ATOM     29  C   UNL     1      38.536 -24.370 -13.380  0.00  0.00    +0.014 C 
ATOM     30  C   UNL     1      36.058 -23.586 -13.596  0.00  0.00    +0.176 C 
ATOM     31  C   UNL     1      34.833 -23.975 -14.129  0.00  0.00    +0.174 C 
ATOM     32  C   UNL     1      35.768 -26.022 -15.009  0.00  0.00    +0.018 C 
ATOM     33  C   UNL     1      34.679 -25.165 -14.823  0.00  0.00    +0.041 C 
ATOM     34  C   UNL     1      40.557 -25.957 -13.723  0.00  0.00    +0.047 C 
ATOM     35  H   UNL     1      38.398 -27.129 -14.929  0.00  0.00    +0.152 HD
ENDBRANCH  23  31
ENDBRANCH   9  23
TORSDOF 8
ENDMDL
MODEL 5
REMARK VINA RESULT:     -11.4      2.613      4.525
REMARK  Name = 9933475
REMARK  8 active torsions:
REMARK  status: ('A' for Active; 'I' for Inactive)
REMARK    1  A    between atoms: C_3  and  O_13
REMARK    2  A    between atoms: C_4  and  O_11
REMARK    3  A    between atoms: C_9  and  O_23
REMARK    4  A    between atoms: O_13  and  C_14
REMARK    5  A    between atoms: C_14  and  C_15
REMARK    6  A    between atoms: C_15  and  C_16
REMARK    7  A    between atoms: C_16  and  N_17
REMARK    8  A    between atoms: O_23  and  C_31
REMARK                            x       y       z     vdW  Elec       q    Type
REMARK                         _______ _______ _______ _____ _____    ______ ____
ROOT
ATOM      1  N   UNL     1      31.720 -22.970 -14.687  0.00  0.00    -0.248 NA
ATOM      2  N   UNL     1      31.756 -23.091 -17.093  0.00  0.00    -0.214 NA
ATOM      3  C   UNL     1      35.139 -22.715 -13.415  0.00  0.00    +0.173 C 
ATOM      4  C   UNL     1      35.880 -22.733 -14.586  0.00  0.00    +0.169 C 
ATOM      5  C   UNL     1      33.747 -22.795 -13.453  0.00  0.00    +0.055 C 
ATOM      6  C   UNL     1      33.818 -22.912 -15.845  0.00  0.00    +0.141 C 
ATOM      7  C   UNL     1      33.062 -22.894 -14.662  0.00  0.00    +0.072 C 
ATOM      8  C   UNL     1      35.222 -22.832 -15.807  0.00  0.00    +0.029 C 
ATOM      9  C   UNL     1      33.099 -23.013 -17.032  0.00  0.00    +0.213 C 
ATOM     10  C   UNL     1      31.139 -23.064 -15.900  0.00  0.00    +0.253 C 
ENDROOT
BRANCH   4  11
ATOM     11  O   UNL     1      37.240 -22.656 -14.558  0.00  0.00    -0.469 OA
ATOM     12  C   UNL     1      37.904 -22.445 -15.803  0.00  0.00    +0.253 C 
ENDBRANCH   4  11
BRANCH   3  13
ATOM     13  O   UNL     1      35.766 -22.619 -12.200  0.00  0.00    -0.472 OA
BRANCH  13  14
ATOM     14  C   UNL     1      35.594 -23.707 -11.302  0.00  0.00    +0.203 C 
BRANCH  14  15
ATOM     15  C   UNL     1      36.875 -24.530 -11.275  0.00  0.00    +0.025 C 
BRANCH  15  16
ATOM     16  C   UNL     1      36.822 -25.681 -12.275  0.00  0.00    -0.074 C 
BRANCH  16  17
ATOM     17  N   UNL     1      38.100 -25.817 -12.958  0.00  0.00    +0.387 N 
ATOM     18  C   UNL     1      37.945 -26.018 -14.398  0.00  0.00    -0.077 C 
ATOM     19  C   UNL     1      38.932 -24.621 -12.828  0.00  0.00    -0.077 C 
ATOM     20  C   UNL     1      39.342 -25.742 -14.933  0.00  0.00    -0.025 C 
ATOM     21  C   UNL     1      39.993 -24.826 -13.900  0.00  0.00    -0.025 C 
ATOM     22  H   UNL     1      38.533 -26.624 -12.511  0.00  0.00    -0.080 HD
ENDBRANCH  16  17
ENDBRANCH  15  16
ENDBRANCH  14  15
ENDBRANCH  13  14
ENDBRANCH   3  13
BRANCH   9  23
ATOM     23  O   UNL     1      33.749 -23.037 -18.239  0.00  0.00    -0.437 OA
BRANCH  23  31
ATOM     24  F   UNL     1      36.059 -21.757 -18.993  0.00  0.00    -0.201 F 
ATOM     25  N   UNL     1      33.754 -18.492 -21.304  0.00  0.00    -0.316 N 
ATOM     26  C   UNL     1      34.801 -20.101 -20.169  0.00  0.00    +0.045 C 
ATOM     27  C   UNL     1      33.545 -19.625 -20.551  0.00  0.00    +0.050 C 
ATOM     28  C   UNL     1      35.094 -18.237 -21.412  0.00  0.00    +0.026 C 
ATOM     29  C   UNL     1      35.769 -19.216 -20.721  0.00  0.00    +0.014 C 
ATOM     30  C   UNL     1      34.873 -21.267 -19.381  0.00  0.00    +0.176 C 
ATOM     31  C   UNL     1      33.688 -21.896 -19.013  0.00  0.00    +0.174 C 
ATOM     32  C   UNL     1      32.353 -20.257 -20.181  0.00  0.00    +0.018 C 
ATOM     33  C   UNL     1      32.449 -21.411 -19.399  0.00  0.00    +0.041 C 
ATOM     34  C   UNL     1      35.594 -17.075 -22.172  0.00  0.00    +0.047 C 
ATOM     35  H   UNL     1      33.042 -17.945 -21.708  0.00  0.00    +0.152 HD
ENDBRANCH  23  31
ENDBRANCH   9  23
TORSDOF 8
ENDMDL
MODEL 6
REMARK VINA RESULT:     -11.3      4.140      8.137
REMARK  Name = 9933475
REMARK  8 active torsions:
REMARK  status: ('A' for Active; 'I' for Inactive)
REMARK    1  A    between atoms: C_3  and  O_13
REMARK    2  A    between atoms: C_4  and  O_11
REMARK    3  A    between atoms: C_9  and  O_23
REMARK    4  A    between atoms: O_13  and  C_14
REMARK    5  A    between atoms: C_14  and  C_15
REMARK    6  A    between atoms: C_15  and  C_16
REMARK    7  A    between atoms: C_16  and  N_17
REMARK    8  A    between atoms: O_23  and  C_31
REMARK                            x       y       z     vdW  Elec       q    Type
REMARK                         _______ _______ _______ _____ _____    ______ ____
ROOT
ATOM      1  N   UNL     1      33.236 -14.259 -25.953  0.00  0.00    -0.248 NA
ATOM      2  N   UNL     1      32.307 -12.194 -25.129  0.00  0.00    -0.214 NA
ATOM      3  C   UNL     1      34.492 -16.248 -23.153  0.00  0.00    +0.173 C 
ATOM      4  C   UNL     1      34.201 -15.432 -22.071  0.00  0.00    +0.169 C 
ATOM      5  C   UNL     1      34.168 -15.851 -24.450  0.00  0.00    +0.055 C 
ATOM      6  C   UNL     1      33.252 -13.808 -23.598  0.00  0.00    +0.141 C 
ATOM      7  C   UNL     1      33.544 -14.630 -24.698  0.00  0.00    +0.072 C 
ATOM      8  C   UNL     1      33.580 -14.207 -22.290  0.00  0.00    +0.029 C 
ATOM      9  C   UNL     1      32.630 -12.596 -23.885  0.00  0.00    +0.213 C 
ATOM     10  C   UNL     1      32.634 -13.061 -26.100  0.00  0.00    +0.253 C 
ENDROOT
BRANCH   4  11
ATOM     11  O   UNL     1      34.516 -15.811 -20.801  0.00  0.00    -0.469 OA
ATOM     12  C   UNL     1      33.822 -15.159 -19.739  0.00  0.00    +0.253 C 
ENDBRANCH   4  11
BRANCH   3  13
ATOM     13  O   UNL     1      35.106 -17.459 -22.962  0.00  0.00    -0.472 OA
BRANCH  13  14
ATOM     14  C   UNL     1      34.343 -18.619 -23.262  0.00  0.00    +0.203 C 
BRANCH  14  15
ATOM     15  C   UNL     1      33.742 -19.159 -21.972  0.00  0.00    +0.025 C 
BRANCH  15  16
ATOM     16  C   UNL     1      34.808 -19.365 -20.900  0.00  0.00    -0.074 C 
BRANCH  16  17
ATOM     17  N   UNL     1      34.240 -20.046 -19.746  0.00  0.00    +0.387 N 
ATOM     18  C   UNL     1      32.823 -20.362 -19.926  0.00  0.00    -0.077 C 
ATOM     19  C   UNL     1      34.885 -21.332 -19.483  0.00  0.00    -0.077 C 
ATOM     20  C   UNL     1      32.558 -21.377 -18.824  0.00  0.00    -0.025 C 
ATOM     21  C   UNL     1      33.913 -22.012 -18.530  0.00  0.00    -0.025 C 
ATOM     22  H   UNL     1      34.383 -19.391 -18.978  0.00  0.00    -0.080 HD
ENDBRANCH  16  17
ENDBRANCH  15  16
ENDBRANCH  14  15
ENDBRANCH  13  14
ENDBRANCH   3  13
BRANCH   9  23
ATOM     23  O   UNL     1      32.305 -11.727 -22.877  0.00  0.00    -0.437 OA
BRANCH  23  31
ATOM     24  F   UNL     1      30.495  -9.753 -22.263  0.00  0.00    -0.201 F 
ATOM     25  N   UNL     1      33.413  -6.393 -23.497  0.00  0.00    -0.316 N 
ATOM     26  C   UNL     1      32.057  -8.068 -22.919  0.00  0.00    +0.045 C 
ATOM     27  C   UNL     1      33.328  -7.765 -23.412  0.00  0.00    +0.050 C 
ATOM     28  C   UNL     1      32.243  -5.821 -23.075  0.00  0.00    +0.026 C 
ATOM     29  C   UNL     1      31.384  -6.832 -22.710  0.00  0.00    +0.014 C 
ATOM     30  C   UNL     1      31.706  -9.420 -22.735  0.00  0.00    +0.176 C 
ATOM     31  C   UNL     1      32.641 -10.399 -23.052  0.00  0.00    +0.174 C 
ATOM     32  C   UNL     1      34.269  -8.750 -23.732  0.00  0.00    +0.018 C 
ATOM     33  C   UNL     1      33.898 -10.084 -23.541  0.00  0.00    +0.041 C 
ATOM     34  C   UNL     1      32.068  -4.356 -23.063  0.00  0.00    +0.047 C 
ATOM     35  H   UNL     1      34.201  -5.896 -23.813  0.00  0.00    +0.152 HD
ENDBRANCH  23  31
ENDBRANCH   9  23
TORSDOF 8
ENDMDL
MODEL 7
REMARK VINA RESULT:     -11.2      5.089      9.603
REMARK  Name = 9933475
REMARK  8 active torsions:
REMARK  status: ('A' for Active; 'I' for Inactive)
REMARK    1  A    between atoms: C_3  and  O_13
REMARK    2  A    between atoms: C_4  and  O_11
REMARK    3  A    between atoms: C_9  and  O_23
REMARK    4  A    between atoms: O_13  and  C_14
REMARK    5  A    between atoms: C_14  and  C_15
REMARK    6  A    between atoms: C_15  and  C_16
REMARK    7  A    between atoms: C_16  and  N_17
REMARK    8  A    between atoms: O_23  and  C_31
REMARK                            x       y       z     vdW  Elec       q    Type
REMARK                         _______ _______ _______ _____ _____    ______ ____
ROOT
ATOM      1  N   UNL     1      32.091 -12.131 -19.855  0.00  0.00    -0.248 NA
ATOM      2  N   UNL     1      31.294 -10.131 -20.936  0.00  0.00    -0.214 NA
ATOM      3  C   UNL     1      33.490 -14.406 -22.352  0.00  0.00    +0.173 C 
ATOM      4  C   UNL     1      33.309 -13.690 -23.524  0.00  0.00    +0.169 C 
ATOM      5  C   UNL     1      33.081 -13.881 -21.126  0.00  0.00    +0.055 C 
ATOM      6  C   UNL     1      32.299 -11.906 -22.232  0.00  0.00    +0.141 C 
ATOM      7  C   UNL     1      32.481 -12.627 -21.042  0.00  0.00    +0.072 C 
ATOM      8  C   UNL     1      32.711 -12.435 -23.469  0.00  0.00    +0.029 C 
ATOM      9  C   UNL     1      31.696 -10.657 -22.108  0.00  0.00    +0.213 C 
ATOM     10  C   UNL     1      31.519 -10.910 -19.866  0.00  0.00    +0.253 C 
ENDROOT
BRANCH   4  11
ATOM     11  O   UNL     1      33.704 -14.195 -24.725  0.00  0.00    -0.469 OA
ATOM     12  C   UNL     1      32.952 -13.806 -25.873  0.00  0.00    +0.253 C 
ENDBRANCH   4  11
BRANCH   3  13
ATOM     13  O   UNL     1      34.075 -15.646 -22.382  0.00  0.00    -0.472 OA
BRANCH  13  14
ATOM     14  C   UNL     1      34.450 -16.209 -21.132  0.00  0.00    +0.203 C 
BRANCH  14  15
ATOM     15  C   UNL     1      35.287 -17.455 -21.386  0.00  0.00    +0.025 C 
BRANCH  15  16
ATOM     16  C   UNL     1      34.410 -18.682 -21.617  0.00  0.00    -0.074 C 
BRANCH  16  17
ATOM     17  N   UNL     1      34.188 -19.387 -20.363  0.00  0.00    +0.387 N 
ATOM     18  C   UNL     1      32.914 -20.105 -20.344  0.00  0.00    -0.077 C 
ATOM     19  C   UNL     1      35.204 -20.410 -20.111  0.00  0.00    -0.077 C 
ATOM     20  C   UNL     1      33.072 -21.049 -19.162  0.00  0.00    -0.025 C 
ATOM     21  C   UNL     1      34.576 -21.247 -19.005  0.00  0.00    -0.025 C 
ATOM     22  H   UNL     1      34.214 -18.652 -19.658  0.00  0.00    -0.080 HD
ENDBRANCH  16  17
ENDBRANCH  15  16
ENDBRANCH  14  15
ENDBRANCH  13  14
ENDBRANCH   3  13
BRANCH   9  23
ATOM     23  O   UNL     1      31.478  -9.878 -23.215  0.00  0.00    -0.437 OA
BRANCH  23  31
ATOM     24  F   UNL     1      29.539  -7.933 -23.198  0.00  0.00    -0.201 F 
ATOM     25  N   UNL     1      32.646  -4.531 -22.895  0.00  0.00    -0.316 N 
ATOM     26  C   UNL     1      31.202  -6.225 -23.042  0.00  0.00    +0.045 C 
ATOM     27  C   UNL     1      32.559  -5.903 -22.967  0.00  0.00    +0.050 C 
ATOM     28  C   UNL     1      31.395  -3.976 -22.920  0.00  0.00    +0.026 C 
ATOM     29  C   UNL     1      30.480  -5.000 -23.010  0.00  0.00    +0.014 C 
ATOM     30  C   UNL     1      30.831  -7.581 -23.125  0.00  0.00    +0.176 C 
ATOM     31  C   UNL     1      31.832  -8.547 -23.131  0.00  0.00    +0.174 C 
ATOM     32  C   UNL     1      33.567  -6.873 -22.973  0.00  0.00    +0.018 C 
ATOM     33  C   UNL     1      33.175  -8.212 -23.057  0.00  0.00    +0.041 C 
ATOM     34  C   UNL     1      31.204  -2.515 -22.855  0.00  0.00    +0.047 C 
ATOM     35  H   UNL     1      33.487  -4.023 -22.833  0.00  0.00    +0.152 HD
ENDBRANCH  23  31
ENDBRANCH   9  23
TORSDOF 8
ENDMDL
MODEL 8
REMARK VINA RESULT:     -10.9      7.606     15.044
REMARK  Name = 9933475
REMARK  8 active torsions:
REMARK  status: ('A' for Active; 'I' for Inactive)
REMARK    1  A    between atoms: C_3  and  O_13
REMARK    2  A    between atoms: C_4  and  O_11
REMARK    3  A    between atoms: C_9  and  O_23
REMARK    4  A    between atoms: O_13  and  C_14
REMARK    5  A    between atoms: C_14  and  C_15
REMARK    6  A    between atoms: C_15  and  C_16
REMARK    7  A    between atoms: C_16  and  N_17
REMARK    8  A    between atoms: O_23  and  C_31
REMARK                            x       y       z     vdW  Elec       q    Type
REMARK                         _______ _______ _______ _____ _____    ______ ____
ROOT
ATOM      1  N   UNL     1      31.970  -8.108 -19.074  0.00  0.00    -0.248 NA
ATOM      2  N   UNL     1      31.260 -10.350 -19.600  0.00  0.00    -0.214 NA
ATOM      3  C   UNL     1      32.229  -6.146 -22.149  0.00  0.00    +0.173 C 
ATOM      4  C   UNL     1      31.859  -7.072 -23.111  0.00  0.00    +0.169 C 
ATOM      5  C   UNL     1      32.265  -6.496 -20.800  0.00  0.00    +0.055 C 
ATOM      6  C   UNL     1      31.558  -8.716 -21.357  0.00  0.00    +0.141 C 
ATOM      7  C   UNL     1      31.932  -7.781 -20.378  0.00  0.00    +0.072 C 
ATOM      8  C   UNL     1      31.522  -8.363 -22.718  0.00  0.00    +0.029 C 
ATOM      9  C   UNL     1      31.233  -9.989 -20.898  0.00  0.00    +0.213 C 
ATOM     10  C   UNL     1      31.632  -9.374 -18.756  0.00  0.00    +0.253 C 
ENDROOT
BRANCH   4  11
ATOM     11  O   UNL     1      31.822  -6.739 -24.430  0.00  0.00    -0.469 OA
ATOM     12  C   UNL     1      30.593  -6.956 -25.121  0.00  0.00    +0.253 C 
ENDBRANCH   4  11
BRANCH   3  13
ATOM     13  O   UNL     1      32.568  -4.868 -22.513  0.00  0.00    -0.472 OA
BRANCH  13  14
ATOM     14  C   UNL     1      31.548  -3.884 -22.422  0.00  0.00    +0.203 C 
BRANCH  14  15
ATOM     15  C   UNL     1      31.192  -3.413 -23.826  0.00  0.00    +0.025 C 
BRANCH  15  16
ATOM     16  C   UNL     1      32.441  -3.089 -24.641  0.00  0.00    -0.074 C 
BRANCH  16  17
ATOM     17  N   UNL     1      32.903  -4.274 -25.349  0.00  0.00    +0.387 N 
ATOM     18  C   UNL     1      32.571  -4.239 -26.772  0.00  0.00    -0.077 C 
ATOM     19  C   UNL     1      34.358  -4.420 -25.301  0.00  0.00    -0.077 C 
ATOM     20  C   UNL     1      33.459  -5.327 -27.356  0.00  0.00    -0.025 C 
ATOM     21  C   UNL     1      34.632  -5.450 -26.388  0.00  0.00    -0.025 C 
ATOM     22  H   UNL     1      32.434  -5.044 -24.873  0.00  0.00    -0.080 HD
ENDBRANCH  16  17
ENDBRANCH  15  16
ENDBRANCH  14  15
ENDBRANCH  13  14
ENDBRANCH   3  13
BRANCH   9  23
ATOM     23  O   UNL     1      30.854 -10.970 -21.778  0.00  0.00    -0.437 OA
BRANCH  23  31
ATOM     24  F   UNL     1      31.354 -13.122 -20.146  0.00  0.00    -0.201 F 
ATOM     25  N   UNL     1      34.592 -14.796 -22.981  0.00  0.00    -0.316 N 
ATOM     26  C   UNL     1      33.017 -13.929 -21.660  0.00  0.00    +0.045 C 
ATOM     27  C   UNL     1      33.709 -13.746 -22.859  0.00  0.00    +0.050 C 
ATOM     28  C   UNL     1      34.481 -15.634 -21.905  0.00  0.00    +0.026 C 
ATOM     29  C   UNL     1      33.514 -15.124 -21.069  0.00  0.00    +0.014 C 
ATOM     30  C   UNL     1      32.041 -12.983 -21.290  0.00  0.00    +0.176 C 
ATOM     31  C   UNL     1      31.807 -11.903 -22.134  0.00  0.00    +0.174 C 
ATOM     32  C   UNL     1      33.474 -12.660 -23.709  0.00  0.00    +0.018 C 
ATOM     33  C   UNL     1      32.502 -11.734 -23.321  0.00  0.00    +0.041 C 
ATOM     34  C   UNL     1      35.317 -16.843 -21.786  0.00  0.00    +0.047 C 
ATOM     35  H   UNL     1      35.212 -14.926 -23.735  0.00  0.00    +0.152 HD
ENDBRANCH  23  31
ENDBRANCH   9  23
TORSDOF 8
ENDMDL
MODEL 9
REMARK VINA RESULT:     -10.8      7.327     14.559
REMARK  Name = 9933475
REMARK  8 active torsions:
REMARK  status: ('A' for Active; 'I' for Inactive)
REMARK    1  A    between atoms: C_3  and  O_13
REMARK    2  A    between atoms: C_4  and  O_11
REMARK    3  A    between atoms: C_9  and  O_23
REMARK    4  A    between atoms: O_13  and  C_14
REMARK    5  A    between atoms: C_14  and  C_15
REMARK    6  A    between atoms: C_15  and  C_16
REMARK    7  A    between atoms: C_16  and  N_17
REMARK    8  A    between atoms: O_23  and  C_31
REMARK                            x       y       z     vdW  Elec       q    Type
REMARK                         _______ _______ _______ _____ _____    ______ ____
ROOT
ATOM      1  N   UNL     1      30.627 -10.037 -20.704  0.00  0.00    -0.248 NA
ATOM      2  N   UNL     1      31.471 -11.740 -22.184  0.00  0.00    -0.214 NA
ATOM      3  C   UNL     1      32.145  -6.817 -21.538  0.00  0.00    +0.173 C 
ATOM      4  C   UNL     1      32.970  -7.157 -22.599  0.00  0.00    +0.169 C 
ATOM      5  C   UNL     1      31.363  -7.783 -20.907  0.00  0.00    +0.055 C 
ATOM      6  C   UNL     1      32.223  -9.452 -22.395  0.00  0.00    +0.141 C 
ATOM      7  C   UNL     1      31.385  -9.113 -21.320  0.00  0.00    +0.072 C 
ATOM      8  C   UNL     1      33.012  -8.478 -23.032  0.00  0.00    +0.029 C 
ATOM      9  C   UNL     1      32.219 -10.790 -22.778  0.00  0.00    +0.213 C 
ATOM     10  C   UNL     1      30.711 -11.300 -21.169  0.00  0.00    +0.253 C 
ENDROOT
BRANCH   4  11
ATOM     11  O   UNL     1      33.738  -6.220 -23.221  0.00  0.00    -0.469 OA
ATOM     12  C   UNL     1      34.347  -6.594 -24.456  0.00  0.00    +0.253 C 
ENDBRANCH   4  11
BRANCH   3  13
ATOM     13  O   UNL     1      32.089  -5.521 -21.093  0.00  0.00    -0.472 OA
BRANCH  13  14
ATOM     14  C   UNL     1      30.833  -5.062 -20.613  0.00  0.00    +0.203 C 
BRANCH  14  15
ATOM     15  C   UNL     1      30.071  -4.419 -21.764  0.00  0.00    +0.025 C 
BRANCH  15  16
ATOM     16  C   UNL     1      30.886  -3.312 -22.426  0.00  0.00    -0.074 C 
BRANCH  16  17
ATOM     17  N   UNL     1      31.619  -3.838 -23.568  0.00  0.00    +0.387 N 
ATOM     18  C   UNL     1      30.799  -4.717 -24.402  0.00  0.00    -0.077 C 
ATOM     19  C   UNL     1      32.081  -2.782 -24.469  0.00  0.00    -0.077 C 
ATOM     20  C   UNL     1      31.606  -4.818 -25.687  0.00  0.00    -0.025 C 
ATOM     21  C   UNL     1      32.452  -3.549 -25.730  0.00  0.00    -0.025 C 
ATOM     22  H   UNL     1      32.401  -4.342 -23.150  0.00  0.00    -0.080 HD
ENDBRANCH  16  17
ENDBRANCH  15  16
ENDBRANCH  14  15
ENDBRANCH  13  14
ENDBRANCH   3  13
BRANCH   9  23
ATOM     23  O   UNL     1      33.003 -11.217 -23.819  0.00  0.00    -0.437 OA
BRANCH  23  31
ATOM     24  F   UNL     1      34.216 -12.637 -21.804  0.00  0.00    -0.201 F 
ATOM     25  N   UNL     1      33.880 -16.621 -24.113  0.00  0.00    -0.316 N 
ATOM     26  C   UNL     1      34.008 -14.661 -23.056  0.00  0.00    +0.045 C 
ATOM     27  C   UNL     1      33.573 -15.284 -24.228  0.00  0.00    +0.050 C 
ATOM     28  C   UNL     1      34.490 -16.865 -22.913  0.00  0.00    +0.026 C 
ATOM     29  C   UNL     1      34.583 -15.671 -22.235  0.00  0.00    +0.014 C 
ATOM     30  C   UNL     1      33.813 -13.273 -22.914  0.00  0.00    +0.176 C 
ATOM     31  C   UNL     1      33.195 -12.578 -23.949  0.00  0.00    +0.174 C 
ATOM     32  C   UNL     1      32.952 -14.586 -25.270  0.00  0.00    +0.018 C 
ATOM     33  C   UNL     1      32.770 -13.210 -25.106  0.00  0.00    +0.041 C 
ATOM     34  C   UNL     1      34.923 -18.223 -22.535  0.00  0.00    +0.047 C 
ATOM     35  H   UNL     1      33.686 -17.304 -24.796  0.00  0.00    +0.152 HD
ENDBRANCH  23  31
ENDBRANCH   9  23
TORSDOF 8
ENDMDL
