MODEL 1
REMARK VINA RESULT:     -10.6      0.000      0.000
REMARK  Name = 68770
REMARK  9 active torsions:
REMARK  status: ('A' for Active; 'I' for Inactive)
REMARK    1  A    between atoms: C_1  and  N_9
REMARK    2  A    between atoms: C_2  and  O_19
REMARK    3  A    between atoms: N_8  and  C_13
REMARK    4  A    between atoms: O_19  and  C_20
REMARK    5  A    between atoms: C_20  and  C_21
REMARK    6  A    between atoms: C_21  and  O_22
REMARK    7  A    between atoms: C_21  and  C_24
REMARK    8  A    between atoms: C_24  and  N_25
REMARK    9  A    between atoms: N_25  and  C_28
REMARK                            x       y       z     vdW  Elec       q    Type
REMARK                         _______ _______ _______ _____ _____    ______ ____
ROOT
ATOM      1  C   UNL     1      33.196 -13.237 -21.769  0.00  0.00    +0.052 C 
ATOM      2  C   UNL     1      31.889 -10.824 -22.271  0.00  0.00    +0.139 C 
ATOM      3  C   UNL     1      32.191 -12.795 -20.908  0.00  0.00    +0.018 C 
ATOM      4  C   UNL     1      33.548 -12.472 -22.881  0.00  0.00    +0.018 C 
ATOM      5  C   UNL     1      31.538 -11.589 -21.158  0.00  0.00    +0.038 C 
ATOM      6  C   UNL     1      32.894 -11.265 -23.131  0.00  0.00    +0.038 C 
ENDROOT
BRANCH   1   9
ATOM      7  O   UNL     1      33.872 -15.504 -23.615  0.00  0.00    -0.252 OA
ATOM      8  N   UNL     1      34.816 -16.529 -21.770  0.00  0.00    -0.290 N 
ATOM      9  N   UNL     1      33.859 -14.460 -21.512  0.00  0.00    -0.268 N 
ATOM     10  C   UNL     1      34.147 -15.484 -22.418  0.00  0.00    +0.304 C 
ATOM     11  H   UNL     1      35.003 -16.441 -20.808  0.00  0.00    +0.151 HD
ATOM     12  H   UNL     1      34.153 -14.607 -20.585  0.00  0.00    +0.156 HD
BRANCH   8  13
ATOM     13  C   UNL     1      35.247 -17.731 -22.449  0.00  0.00    +0.073 C 
ATOM     14  C   UNL     1      36.558 -18.258 -21.858  0.00  0.00    +0.020 C 
ATOM     15  C   UNL     1      34.152 -18.804 -22.416  0.00  0.00    +0.020 C 
ATOM     16  C   UNL     1      36.372 -18.866 -20.468  0.00  0.00    +0.002 C 
ATOM     17  C   UNL     1      33.970 -19.411 -21.025  0.00  0.00    +0.002 C 
ATOM     18  C   UNL     1      35.286 -19.937 -20.464  0.00  0.00    +0.000 C 
ENDBRANCH   8  13
ENDBRANCH   1   9
BRANCH   2  19
ATOM     19  O   UNL     1      31.253  -9.646 -22.515  0.00  0.00    -0.473 OA
BRANCH  19  20
ATOM     20  C   UNL     1      30.804  -8.903 -21.382  0.00  0.00    +0.232 C 
BRANCH  20  21
ATOM     21  C   UNL     1      31.936  -7.997 -20.906  0.00  0.00    +0.133 C 
BRANCH  21  22
ATOM     22  O   UNL     1      31.925  -7.968 -19.475  0.00  0.00    -0.383 OA
ATOM     23  H   UNL     1      32.802  -7.714 -19.150  0.00  0.00    +0.210 HD
ENDBRANCH  21  22
BRANCH  21  24
ATOM     24  C   UNL     1      31.816  -6.559 -21.414  0.00  0.00    -0.048 C 
BRANCH  24  25
ATOM     25  N   UNL     1      30.784  -6.422 -22.433  0.00  0.00    +0.388 N 
ATOM     26  H   UNL     1      30.455  -7.350 -22.701  0.00  0.00    -0.084 HD
ATOM     27  H   UNL     1      30.018  -5.869 -22.048  0.00  0.00    -0.084 HD
BRANCH  25  28
ATOM     28  C   UNL     1      31.302  -5.741 -23.611  0.00  0.00    -0.046 C 
ATOM     29  C   UNL     1      31.184  -6.685 -24.812  0.00  0.00    -0.022 C 
ATOM     30  C   UNL     1      30.487  -4.466 -23.861  0.00  0.00    -0.022 C 
ATOM     31  C   UNL     1      32.771  -5.386 -23.363  0.00  0.00    -0.022 C 
ENDBRANCH  25  28
ENDBRANCH  24  25
ENDBRANCH  21  24
ENDBRANCH  20  21
ENDBRANCH  19  20
ENDBRANCH   2  19
TORSDOF 9
ENDMDL
MODEL 2
REMARK VINA RESULT:     -10.3      5.672     13.304
REMARK  Name = 68770
REMARK  9 active torsions:
REMARK  status: ('A' for Active; 'I' for Inactive)
REMARK    1  A    between atoms: C_1  and  N_9
REMARK    2  A    between atoms: C_2  and  O_19
REMARK    3  A    between atoms: N_8  and  C_13
REMARK    4  A    between atoms: O_19  and  C_20
REMARK    5  A    between atoms: C_20  and  C_21
REMARK    6  A    between atoms: C_21  and  O_22
REMARK    7  A    between atoms: C_21  and  C_24
REMARK    8  A    between atoms: C_24  and  N_25
REMARK    9  A    between atoms: N_25  and  C_28
REMARK                            x       y       z     vdW  Elec       q    Type
REMARK                         _______ _______ _______ _____ _____    ______ ____
ROOT
ATOM      1  C   UNL     1      33.918 -19.867 -20.401  0.00  0.00    +0.052 C 
ATOM      2  C   UNL     1      34.039 -21.831 -18.424  0.00  0.00    +0.139 C 
ATOM      3  C   UNL     1      35.153 -20.366 -19.988  0.00  0.00    +0.018 C 
ATOM      4  C   UNL     1      32.743 -20.349 -19.825  0.00  0.00    +0.018 C 
ATOM      5  C   UNL     1      35.214 -21.348 -19.000  0.00  0.00    +0.038 C 
ATOM      6  C   UNL     1      32.804 -21.331 -18.836  0.00  0.00    +0.038 C 
ENDROOT
BRANCH   1   9
ATOM      7  O   UNL     1      35.449 -17.301 -20.680  0.00  0.00    -0.252 OA
ATOM      8  N   UNL     1      34.244 -16.966 -22.626  0.00  0.00    -0.290 N 
ATOM      9  N   UNL     1      33.858 -18.869 -21.402  0.00  0.00    -0.268 N 
ATOM     10  C   UNL     1      34.600 -17.687 -21.479  0.00  0.00    +0.304 C 
ATOM     11  H   UNL     1      33.555 -17.341 -23.220  0.00  0.00    +0.151 HD
ATOM     12  H   UNL     1      33.216 -19.025 -22.131  0.00  0.00    +0.156 HD
BRANCH   8  13
ATOM     13  C   UNL     1      34.844 -15.699 -22.977  0.00  0.00    +0.073 C 
ATOM     14  C   UNL     1      34.632 -15.382 -24.462  0.00  0.00    +0.020 C 
ATOM     15  C   UNL     1      34.309 -14.571 -22.088  0.00  0.00    +0.020 C 
ATOM     16  C   UNL     1      33.182 -15.018 -24.782  0.00  0.00    +0.002 C 
ATOM     17  C   UNL     1      32.859 -14.208 -22.411  0.00  0.00    +0.002 C 
ATOM     18  C   UNL     1      32.677 -13.887 -23.891  0.00  0.00    +0.000 C 
ENDBRANCH   8  13
ENDBRANCH   1   9
BRANCH   2  19
ATOM     19  O   UNL     1      34.098 -22.788 -17.458  0.00  0.00    -0.473 OA
BRANCH  19  20
ATOM     20  C   UNL     1      34.838 -22.477 -16.279  0.00  0.00    +0.232 C 
BRANCH  20  21
ATOM     21  C   UNL     1      34.476 -23.483 -15.189  0.00  0.00    +0.133 C 
BRANCH  21  22
ATOM     22  O   UNL     1      34.304 -22.776 -13.957  0.00  0.00    -0.383 OA
ATOM     23  H   UNL     1      33.509 -22.223 -14.010  0.00  0.00    +0.210 HD
ENDBRANCH  21  22
BRANCH  21  24
ATOM     24  C   UNL     1      35.544 -24.558 -14.978  0.00  0.00    -0.048 C 
BRANCH  24  25
ATOM     25  N   UNL     1      36.893 -24.010 -15.038  0.00  0.00    +0.388 N 
ATOM     26  H   UNL     1      37.239 -24.080 -15.994  0.00  0.00    -0.084 HD
ATOM     27  H   UNL     1      36.861 -23.035 -14.740  0.00  0.00    -0.084 HD
BRANCH  25  28
ATOM     28  C   UNL     1      37.790 -24.738 -14.151  0.00  0.00    -0.046 C 
ATOM     29  C   UNL     1      39.211 -24.654 -14.718  0.00  0.00    -0.022 C 
ATOM     30  C   UNL     1      37.743 -24.110 -12.752  0.00  0.00    -0.022 C 
ATOM     31  C   UNL     1      37.334 -26.199 -14.087  0.00  0.00    -0.022 C 
ENDBRANCH  25  28
ENDBRANCH  24  25
ENDBRANCH  21  24
ENDBRANCH  20  21
ENDBRANCH  19  20
ENDBRANCH   2  19
TORSDOF 9
ENDMDL
MODEL 3
REMARK VINA RESULT:     -10.3      1.155      2.238
REMARK  Name = 68770
REMARK  9 active torsions:
REMARK  status: ('A' for Active; 'I' for Inactive)
REMARK    1  A    between atoms: C_1  and  N_9
REMARK    2  A    between atoms: C_2  and  O_19
REMARK    3  A    between atoms: N_8  and  C_13
REMARK    4  A    between atoms: O_19  and  C_20
REMARK    5  A    between atoms: C_20  and  C_21
REMARK    6  A    between atoms: C_21  and  O_22
REMARK    7  A    between atoms: C_21  and  C_24
REMARK    8  A    between atoms: C_24  and  N_25
REMARK    9  A    between atoms: N_25  and  C_28
REMARK                            x       y       z     vdW  Elec       q    Type
REMARK                         _______ _______ _______ _____ _____    ______ ____
ROOT
ATOM      1  C   UNL     1      33.164 -13.196 -21.840  0.00  0.00    +0.052 C 
ATOM      2  C   UNL     1      31.845 -10.795 -22.367  0.00  0.00    +0.139 C 
ATOM      3  C   UNL     1      33.505 -12.444 -22.964  0.00  0.00    +0.018 C 
ATOM      4  C   UNL     1      32.162 -12.748 -20.979  0.00  0.00    +0.018 C 
ATOM      5  C   UNL     1      32.846 -11.244 -23.228  0.00  0.00    +0.038 C 
ATOM      6  C   UNL     1      31.502 -11.547 -21.243  0.00  0.00    +0.038 C 
ENDROOT
BRANCH   1   9
ATOM      7  O   UNL     1      33.845 -15.476 -23.668  0.00  0.00    -0.252 OA
ATOM      8  N   UNL     1      34.795 -16.483 -21.816  0.00  0.00    -0.290 N 
ATOM      9  N   UNL     1      33.832 -14.414 -21.574  0.00  0.00    -0.268 N 
ATOM     10  C   UNL     1      34.122 -15.445 -22.472  0.00  0.00    +0.304 C 
ATOM     11  H   UNL     1      34.983 -16.386 -20.855  0.00  0.00    +0.151 HD
ATOM     12  H   UNL     1      34.127 -14.553 -20.645  0.00  0.00    +0.156 HD
BRANCH   8  13
ATOM     13  C   UNL     1      35.228 -17.689 -22.485  0.00  0.00    +0.073 C 
ATOM     14  C   UNL     1      36.535 -18.215 -21.882  0.00  0.00    +0.020 C 
ATOM     15  C   UNL     1      34.132 -18.760 -22.455  0.00  0.00    +0.020 C 
ATOM     16  C   UNL     1      36.337 -18.815 -20.490  0.00  0.00    +0.002 C 
ATOM     17  C   UNL     1      33.938 -19.359 -21.062  0.00  0.00    +0.002 C 
ATOM     18  C   UNL     1      35.249 -19.885 -20.488  0.00  0.00    +0.000 C 
ENDBRANCH   8  13
ENDBRANCH   1   9
BRANCH   2  19
ATOM     19  O   UNL     1      31.199  -9.625 -22.625  0.00  0.00    -0.473 OA
BRANCH  19  20
ATOM     20  C   UNL     1      31.968  -8.574 -23.207  0.00  0.00    +0.232 C 
BRANCH  20  21
ATOM     21  C   UNL     1      31.028  -7.629 -23.953  0.00  0.00    +0.133 C 
BRANCH  21  22
ATOM     22  O   UNL     1      31.698  -7.148 -25.122  0.00  0.00    -0.383 OA
ATOM     23  H   UNL     1      31.815  -6.188 -25.054  0.00  0.00    +0.210 HD
ENDBRANCH  21  22
BRANCH  21  24
ATOM     24  C   UNL     1      30.595  -6.422 -23.118  0.00  0.00    -0.048 C 
BRANCH  24  25
ATOM     25  N   UNL     1      30.751  -6.660 -21.689  0.00  0.00    +0.388 N 
ATOM     26  H   UNL     1      29.829  -6.777 -21.268  0.00  0.00    -0.084 HD
ATOM     27  H   UNL     1      31.313  -7.501 -21.559  0.00  0.00    -0.084 HD
BRANCH  25  28
ATOM     28  C   UNL     1      31.430  -5.543 -21.046  0.00  0.00    -0.046 C 
ATOM     29  C   UNL     1      30.373  -4.579 -20.496  0.00  0.00    -0.022 C 
ATOM     30  C   UNL     1      32.307  -6.070 -19.904  0.00  0.00    -0.022 C 
ATOM     31  C   UNL     1      32.297  -4.833 -22.091  0.00  0.00    -0.022 C 
ENDBRANCH  25  28
ENDBRANCH  24  25
ENDBRANCH  21  24
ENDBRANCH  20  21
ENDBRANCH  19  20
ENDBRANCH   2  19
TORSDOF 9
ENDMDL
MODEL 4
REMARK VINA RESULT:     -10.1      5.844     13.089
REMARK  Name = 68770
REMARK  9 active torsions:
REMARK  status: ('A' for Active; 'I' for Inactive)
REMARK    1  A    between atoms: C_1  and  N_9
REMARK    2  A    between atoms: C_2  and  O_19
REMARK    3  A    between atoms: N_8  and  C_13
REMARK    4  A    between atoms: O_19  and  C_20
REMARK    5  A    between atoms: C_20  and  C_21
REMARK    6  A    between atoms: C_21  and  O_22
REMARK    7  A    between atoms: C_21  and  C_24
REMARK    8  A    between atoms: C_24  and  N_25
REMARK    9  A    between atoms: N_25  and  C_28
REMARK                            x       y       z     vdW  Elec       q    Type
REMARK                         _______ _______ _______ _____ _____    ______ ____
ROOT
ATOM      1  C   UNL     1      33.908 -19.872 -20.376  0.00  0.00    +0.052 C 
ATOM      2  C   UNL     1      34.051 -21.896 -18.462  0.00  0.00    +0.139 C 
ATOM      3  C   UNL     1      32.738 -20.401 -19.831  0.00  0.00    +0.018 C 
ATOM      4  C   UNL     1      35.150 -20.355 -19.965  0.00  0.00    +0.018 C 
ATOM      5  C   UNL     1      32.809 -21.413 -18.874  0.00  0.00    +0.038 C 
ATOM      6  C   UNL     1      35.221 -21.368 -19.007  0.00  0.00    +0.038 C 
ENDROOT
BRANCH   1   9
ATOM      7  O   UNL     1      35.479 -17.328 -20.639  0.00  0.00    -0.252 OA
ATOM      8  N   UNL     1      34.218 -16.920 -22.534  0.00  0.00    -0.290 N 
ATOM      9  N   UNL     1      33.835 -18.847 -21.349  0.00  0.00    -0.268 N 
ATOM     10  C   UNL     1      34.597 -17.678 -21.419  0.00  0.00    +0.304 C 
ATOM     11  H   UNL     1      33.503 -17.266 -23.115  0.00  0.00    +0.151 HD
ATOM     12  H   UNL     1      33.166 -18.972 -22.060  0.00  0.00    +0.156 HD
BRANCH   8  13
ATOM     13  C   UNL     1      34.831 -15.655 -22.873  0.00  0.00    +0.073 C 
ATOM     14  C   UNL     1      34.645 -15.334 -24.359  0.00  0.00    +0.020 C 
ATOM     15  C   UNL     1      34.288 -14.527 -21.988  0.00  0.00    +0.020 C 
ATOM     16  C   UNL     1      33.203 -14.960 -24.702  0.00  0.00    +0.002 C 
ATOM     17  C   UNL     1      32.846 -14.154 -22.335  0.00  0.00    +0.002 C 
ATOM     18  C   UNL     1      32.690 -13.828 -23.816  0.00  0.00    +0.000 C 
ENDBRANCH   8  13
ENDBRANCH   1   9
BRANCH   2  19
ATOM     19  O   UNL     1      34.121 -22.885 -17.529  0.00  0.00    -0.473 OA
BRANCH  19  20
ATOM     20  C   UNL     1      33.657 -22.574 -16.216  0.00  0.00    +0.232 C 
BRANCH  20  21
ATOM     21  C   UNL     1      34.812 -22.744 -15.232  0.00  0.00    +0.133 C 
BRANCH  21  22
ATOM     22  O   UNL     1      35.972 -23.162 -15.958  0.00  0.00    -0.383 OA
ATOM     23  H   UNL     1      36.700 -23.322 -15.339  0.00  0.00    +0.210 HD
ENDBRANCH  21  22
BRANCH  21  24
ATOM     24  C   UNL     1      34.532 -23.780 -14.142  0.00  0.00    -0.048 C 
BRANCH  24  25
ATOM     25  N   UNL     1      34.552 -23.192 -12.809  0.00  0.00    +0.388 N 
ATOM     26  H   UNL     1      34.576 -22.176 -12.893  0.00  0.00    -0.084 HD
ATOM     27  H   UNL     1      33.715 -23.490 -12.309  0.00  0.00    -0.084 HD
BRANCH  25  28
ATOM     28  C   UNL     1      35.721 -23.637 -12.062  0.00  0.00    -0.046 C 
ATOM     29  C   UNL     1      35.302 -23.905 -10.613  0.00  0.00    -0.022 C 
ATOM     30  C   UNL     1      36.272 -24.920 -12.696  0.00  0.00    -0.022 C 
ATOM     31  C   UNL     1      36.780 -22.531 -12.108  0.00  0.00    -0.022 C 
ENDBRANCH  25  28
ENDBRANCH  24  25
ENDBRANCH  21  24
ENDBRANCH  20  21
ENDBRANCH  19  20
ENDBRANCH   2  19
TORSDOF 9
ENDMDL
MODEL 5
REMARK VINA RESULT:     -10.1      5.799     12.631
REMARK  Name = 68770
REMARK  9 active torsions:
REMARK  status: ('A' for Active; 'I' for Inactive)
REMARK    1  A    between atoms: C_1  and  N_9
REMARK    2  A    between atoms: C_2  and  O_19
REMARK    3  A    between atoms: N_8  and  C_13
REMARK    4  A    between atoms: O_19  and  C_20
REMARK    5  A    between atoms: C_20  and  C_21
REMARK    6  A    between atoms: C_21  and  O_22
REMARK    7  A    between atoms: C_21  and  C_24
REMARK    8  A    between atoms: C_24  and  N_25
REMARK    9  A    between atoms: N_25  and  C_28
REMARK                            x       y       z     vdW  Elec       q    Type
REMARK                         _______ _______ _______ _____ _____    ______ ____
ROOT
ATOM      1  C   UNL     1      33.829 -19.786 -20.568  0.00  0.00    +0.052 C 
ATOM      2  C   UNL     1      33.910 -21.831 -18.673  0.00  0.00    +0.139 C 
ATOM      3  C   UNL     1      35.053 -20.332 -20.182  0.00  0.00    +0.018 C 
ATOM      4  C   UNL     1      32.645 -20.261 -20.005  0.00  0.00    +0.018 C 
ATOM      5  C   UNL     1      35.094 -21.355 -19.235  0.00  0.00    +0.038 C 
ATOM      6  C   UNL     1      32.685 -21.284 -19.057  0.00  0.00    +0.038 C 
ENDROOT
BRANCH   1   9
ATOM      7  O   UNL     1      35.353 -17.204 -20.700  0.00  0.00    -0.252 OA
ATOM      8  N   UNL     1      34.198 -16.794 -22.661  0.00  0.00    -0.290 N 
ATOM      9  N   UNL     1      33.790 -18.747 -21.528  0.00  0.00    -0.268 N 
ATOM     10  C   UNL     1      34.527 -17.560 -21.536  0.00  0.00    +0.304 C 
ATOM     11  H   UNL     1      33.526 -17.146 -23.288  0.00  0.00    +0.151 HD
ATOM     12  H   UNL     1      33.168 -18.876 -22.279  0.00  0.00    +0.156 HD
BRANCH   8  13
ATOM     13  C   UNL     1      34.799 -15.510 -22.944  0.00  0.00    +0.073 C 
ATOM     14  C   UNL     1      34.617 -15.129 -24.416  0.00  0.00    +0.020 C 
ATOM     15  C   UNL     1      34.241 -14.424 -22.016  0.00  0.00    +0.020 C 
ATOM     16  C   UNL     1      33.173 -14.755 -24.750  0.00  0.00    +0.002 C 
ATOM     17  C   UNL     1      32.798 -14.051 -22.354  0.00  0.00    +0.002 C 
ATOM     18  C   UNL     1      32.645 -13.666 -23.821  0.00  0.00    +0.000 C 
ENDBRANCH   8  13
ENDBRANCH   1   9
BRANCH   2  19
ATOM     19  O   UNL     1      33.948 -22.827 -17.746  0.00  0.00    -0.473 OA
BRANCH  19  20
ATOM     20  C   UNL     1      32.849 -22.916 -16.841  0.00  0.00    +0.232 C 
BRANCH  20  21
ATOM     21  C   UNL     1      33.389 -23.065 -15.421  0.00  0.00    +0.133 C 
BRANCH  21  22
ATOM     22  O   UNL     1      34.484 -23.987 -15.445  0.00  0.00    -0.383 OA
ATOM     23  H   UNL     1      34.573 -24.359 -16.335  0.00  0.00    +0.210 HD
ENDBRANCH  21  22
BRANCH  21  24
ATOM     24  C   UNL     1      32.348 -23.586 -14.428  0.00  0.00    -0.048 C 
BRANCH  24  25
ATOM     25  N   UNL     1      31.126 -24.018 -15.093  0.00  0.00    +0.388 N 
ATOM     26  H   UNL     1      31.053 -23.549 -15.995  0.00  0.00    -0.084 HD
ATOM     27  H   UNL     1      31.164 -25.030 -15.218  0.00  0.00    -0.084 HD
BRANCH  25  28
ATOM     28  C   UNL     1      29.954 -23.694 -14.290  0.00  0.00    -0.046 C 
ATOM     29  C   UNL     1      30.410 -23.396 -12.858  0.00  0.00    -0.022 C 
ATOM     30  C   UNL     1      29.253 -22.468 -14.886  0.00  0.00    -0.022 C 
ATOM     31  C   UNL     1      29.007 -24.898 -14.301  0.00  0.00    -0.022 C 
ENDBRANCH  25  28
ENDBRANCH  24  25
ENDBRANCH  21  24
ENDBRANCH  20  21
ENDBRANCH  19  20
ENDBRANCH   2  19
TORSDOF 9
ENDMDL
MODEL 6
REMARK VINA RESULT:      -9.9      1.766     10.382
REMARK  Name = 68770
REMARK  9 active torsions:
REMARK  status: ('A' for Active; 'I' for Inactive)
REMARK    1  A    between atoms: C_1  and  N_9
REMARK    2  A    between atoms: C_2  and  O_19
REMARK    3  A    between atoms: N_8  and  C_13
REMARK    4  A    between atoms: O_19  and  C_20
REMARK    5  A    between atoms: C_20  and  C_21
REMARK    6  A    between atoms: C_21  and  O_22
REMARK    7  A    between atoms: C_21  and  C_24
REMARK    8  A    between atoms: C_24  and  N_25
REMARK    9  A    between atoms: N_25  and  C_28
REMARK                            x       y       z     vdW  Elec       q    Type
REMARK                         _______ _______ _______ _____ _____    ______ ____
ROOT
ATOM      1  C   UNL     1      33.159 -11.648 -23.313  0.00  0.00    +0.052 C 
ATOM      2  C   UNL     1      33.381 -14.427 -23.403  0.00  0.00    +0.139 C 
ATOM      3  C   UNL     1      33.595 -12.350 -22.189  0.00  0.00    +0.018 C 
ATOM      4  C   UNL     1      32.833 -12.335 -24.482  0.00  0.00    +0.018 C 
ATOM      5  C   UNL     1      33.706 -13.739 -22.234  0.00  0.00    +0.038 C 
ATOM      6  C   UNL     1      32.944 -13.725 -24.526  0.00  0.00    +0.038 C 
ENDROOT
BRANCH   1   9
ATOM      7  O   UNL     1      30.990  -9.912 -22.177  0.00  0.00    -0.252 OA
ATOM      8  N   UNL     1      32.268  -8.115 -22.875  0.00  0.00    -0.290 N 
ATOM      9  N   UNL     1      33.045 -10.238 -23.266  0.00  0.00    -0.268 N 
ATOM     10  C   UNL     1      32.004  -9.481 -22.721  0.00  0.00    +0.304 C 
ATOM     11  H   UNL     1      33.103  -7.846 -23.321  0.00  0.00    +0.151 HD
ATOM     12  H   UNL     1      33.787  -9.730 -23.666  0.00  0.00    +0.156 HD
BRANCH   8  13
ATOM     13  C   UNL     1      31.371  -7.082 -22.409  0.00  0.00    +0.073 C 
ATOM     14  C   UNL     1      32.148  -5.840 -21.958  0.00  0.00    +0.020 C 
ATOM     15  C   UNL     1      30.333  -6.728 -23.480  0.00  0.00    +0.020 C 
ATOM     16  C   UNL     1      32.753  -5.070 -23.132  0.00  0.00    +0.002 C 
ATOM     17  C   UNL     1      30.941  -5.957 -24.651  0.00  0.00    +0.002 C 
ATOM     18  C   UNL     1      31.698  -4.721 -24.178  0.00  0.00    +0.000 C 
ENDBRANCH   8  13
ENDBRANCH   1   9
BRANCH   2  19
ATOM     19  O   UNL     1      33.487 -15.783 -23.446  0.00  0.00    -0.473 OA
BRANCH  19  20
ATOM     20  C   UNL     1      33.893 -16.363 -24.684  0.00  0.00    +0.232 C 
BRANCH  20  21
ATOM     21  C   UNL     1      33.503 -17.840 -24.689  0.00  0.00    +0.133 C 
BRANCH  21  22
ATOM     22  O   UNL     1      32.126 -17.946 -25.064  0.00  0.00    -0.383 OA
ATOM     23  H   UNL     1      31.629 -18.370 -24.349  0.00  0.00    +0.210 HD
ENDBRANCH  21  22
BRANCH  21  24
ATOM     24  C   UNL     1      33.682 -18.518 -23.329  0.00  0.00    -0.048 C 
BRANCH  24  25
ATOM     25  N   UNL     1      35.058 -18.443 -22.857  0.00  0.00    +0.388 N 
ATOM     26  H   UNL     1      35.570 -19.260 -23.189  0.00  0.00    -0.084 HD
ATOM     27  H   UNL     1      35.479 -17.587 -23.217  0.00  0.00    -0.084 HD
BRANCH  25  28
ATOM     28  C   UNL     1      35.108 -18.409 -21.402  0.00  0.00    -0.046 C 
ATOM     29  C   UNL     1      34.078 -19.403 -20.854  0.00  0.00    -0.022 C 
ATOM     30  C   UNL     1      36.515 -18.795 -20.931  0.00  0.00    -0.022 C 
ATOM     31  C   UNL     1      34.768 -16.989 -20.935  0.00  0.00    -0.022 C 
ENDBRANCH  25  28
ENDBRANCH  24  25
ENDBRANCH  21  24
ENDBRANCH  20  21
ENDBRANCH  19  20
ENDBRANCH   2  19
TORSDOF 9
ENDMDL
MODEL 7
REMARK VINA RESULT:      -9.8      1.976      3.219
REMARK  Name = 68770
REMARK  9 active torsions:
REMARK  status: ('A' for Active; 'I' for Inactive)
REMARK    1  A    between atoms: C_1  and  N_9
REMARK    2  A    between atoms: C_2  and  O_19
REMARK    3  A    between atoms: N_8  and  C_13
REMARK    4  A    between atoms: O_19  and  C_20
REMARK    5  A    between atoms: C_20  and  C_21
REMARK    6  A    between atoms: C_21  and  O_22
REMARK    7  A    between atoms: C_21  and  C_24
REMARK    8  A    between atoms: C_24  and  N_25
REMARK    9  A    between atoms: N_25  and  C_28
REMARK                            x       y       z     vdW  Elec       q    Type
REMARK                         _______ _______ _______ _____ _____    ______ ____
ROOT
ATOM      1  C   UNL     1      34.336 -15.718 -21.315  0.00  0.00    +0.052 C 
ATOM      2  C   UNL     1      33.814 -13.286 -22.578  0.00  0.00    +0.139 C 
ATOM      3  C   UNL     1      33.939 -14.612 -20.563  0.00  0.00    +0.018 C 
ATOM      4  C   UNL     1      34.473 -15.607 -22.699  0.00  0.00    +0.018 C 
ATOM      5  C   UNL     1      33.678 -13.396 -21.194  0.00  0.00    +0.038 C 
ATOM      6  C   UNL     1      34.211 -14.391 -23.330  0.00  0.00    +0.038 C 
ENDROOT
BRANCH   1   9
ATOM      7  O   UNL     1      33.993 -18.532 -22.298  0.00  0.00    -0.252 OA
ATOM      8  N   UNL     1      34.803 -19.194 -20.236  0.00  0.00    -0.290 N 
ATOM      9  N   UNL     1      34.602 -16.950 -20.674  0.00  0.00    -0.268 N 
ATOM     10  C   UNL     1      34.421 -18.238 -21.185  0.00  0.00    +0.304 C 
ATOM     11  H   UNL     1      35.138 -18.881 -19.365  0.00  0.00    +0.151 HD
ATOM     12  H   UNL     1      34.958 -16.894 -19.758  0.00  0.00    +0.156 HD
BRANCH   8  13
ATOM     13  C   UNL     1      34.729 -20.617 -20.477  0.00  0.00    +0.073 C 
ATOM     14  C   UNL     1      35.781 -21.370 -19.655  0.00  0.00    +0.020 C 
ATOM     15  C   UNL     1      33.320 -21.151 -20.197  0.00  0.00    +0.020 C 
ATOM     16  C   UNL     1      35.448 -21.398 -18.163  0.00  0.00    +0.002 C 
ATOM     17  C   UNL     1      32.991 -21.179 -18.704  0.00  0.00    +0.002 C 
ATOM     18  C   UNL     1      34.046 -21.943 -17.910  0.00  0.00    +0.000 C 
ENDBRANCH   8  13
ENDBRANCH   1   9
BRANCH   2  19
ATOM     19  O   UNL     1      33.561 -12.098 -23.194  0.00  0.00    -0.473 OA
BRANCH  19  20
ATOM     20  C   UNL     1      32.192 -11.741 -23.380  0.00  0.00    +0.232 C 
BRANCH  20  21
ATOM     21  C   UNL     1      31.764 -10.817 -22.243  0.00  0.00    +0.133 C 
BRANCH  21  22
ATOM     22  O   UNL     1      30.605 -11.374 -21.615  0.00  0.00    -0.383 OA
ATOM     23  H   UNL     1      29.825 -10.850 -21.855  0.00  0.00    +0.210 HD
ENDBRANCH  21  22
BRANCH  21  24
ATOM     24  C   UNL     1      31.422  -9.401 -22.709  0.00  0.00    -0.048 C 
BRANCH  24  25
ATOM     25  N   UNL     1      32.585  -8.523 -22.696  0.00  0.00    +0.388 N 
ATOM     26  H   UNL     1      33.321  -8.954 -22.137  0.00  0.00    -0.084 HD
ATOM     27  H   UNL     1      32.899  -8.386 -23.656  0.00  0.00    -0.084 HD
BRANCH  25  28
ATOM     28  C   UNL     1      32.250  -7.225 -22.127  0.00  0.00    -0.046 C 
ATOM     29  C   UNL     1      33.366  -6.235 -22.480  0.00  0.00    -0.022 C 
ATOM     30  C   UNL     1      30.915  -6.743 -22.708  0.00  0.00    -0.022 C 
ATOM     31  C   UNL     1      32.140  -7.372 -20.606  0.00  0.00    -0.022 C 
ENDBRANCH  25  28
ENDBRANCH  24  25
ENDBRANCH  21  24
ENDBRANCH  20  21
ENDBRANCH  19  20
ENDBRANCH   2  19
TORSDOF 9
ENDMDL
MODEL 8
REMARK VINA RESULT:      -9.7      4.768      8.667
REMARK  Name = 68770
REMARK  9 active torsions:
REMARK  status: ('A' for Active; 'I' for Inactive)
REMARK    1  A    between atoms: C_1  and  N_9
REMARK    2  A    between atoms: C_2  and  O_19
REMARK    3  A    between atoms: N_8  and  C_13
REMARK    4  A    between atoms: O_19  and  C_20
REMARK    5  A    between atoms: C_20  and  C_21
REMARK    6  A    between atoms: C_21  and  O_22
REMARK    7  A    between atoms: C_21  and  C_24
REMARK    8  A    between atoms: C_24  and  N_25
REMARK    9  A    between atoms: N_25  and  C_28
REMARK                            x       y       z     vdW  Elec       q    Type
REMARK                         _______ _______ _______ _____ _____    ______ ____
ROOT
ATOM      1  C   UNL     1      35.014 -20.892 -19.153  0.00  0.00    +0.052 C 
ATOM      2  C   UNL     1      34.439 -19.231 -21.318  0.00  0.00    +0.139 C 
ATOM      3  C   UNL     1      36.046 -20.237 -19.823  0.00  0.00    +0.018 C 
ATOM      4  C   UNL     1      33.693 -20.718 -19.566  0.00  0.00    +0.018 C 
ATOM      5  C   UNL     1      35.760 -19.406 -20.905  0.00  0.00    +0.038 C 
ATOM      6  C   UNL     1      33.406 -19.887 -20.649  0.00  0.00    +0.038 C 
ENDROOT
BRANCH   1   9
ATOM      7  O   UNL     1      36.775 -20.436 -16.766  0.00  0.00    -0.252 OA
ATOM      8  N   UNL     1      36.165 -22.563 -16.095  0.00  0.00    -0.290 N 
ATOM      9  N   UNL     1      35.306 -21.736 -18.055  0.00  0.00    -0.268 N 
ATOM     10  C   UNL     1      36.140 -21.468 -16.967  0.00  0.00    +0.304 C 
ATOM     11  H   UNL     1      35.628 -23.356 -16.322  0.00  0.00    +0.151 HD
ATOM     12  H   UNL     1      34.870 -22.619 -18.060  0.00  0.00    +0.156 HD
BRANCH   8  13
ATOM     13  C   UNL     1      36.941 -22.582 -14.875  0.00  0.00    +0.073 C 
ATOM     14  C   UNL     1      36.031 -22.619 -13.644  0.00  0.00    +0.020 C 
ATOM     15  C   UNL     1      37.930 -23.753 -14.870  0.00  0.00    +0.020 C 
ATOM     16  C   UNL     1      35.340 -23.972 -13.467  0.00  0.00    +0.002 C 
ATOM     17  C   UNL     1      37.237 -25.104 -14.692  0.00  0.00    +0.002 C 
ATOM     18  C   UNL     1      36.346 -25.119 -13.454  0.00  0.00    +0.000 C 
ENDBRANCH   8  13
ENDBRANCH   1   9
BRANCH   2  19
ATOM     19  O   UNL     1      34.158 -18.422 -22.376  0.00  0.00    -0.473 OA
BRANCH  19  20
ATOM     20  C   UNL     1      34.891 -17.202 -22.474  0.00  0.00    +0.232 C 
BRANCH  20  21
ATOM     21  C   UNL     1      34.054 -16.183 -23.244  0.00  0.00    +0.133 C 
BRANCH  21  22
ATOM     22  O   UNL     1      34.564 -16.089 -24.577  0.00  0.00    -0.383 OA
ATOM     23  H   UNL     1      35.509 -16.306 -24.577  0.00  0.00    +0.210 HD
ENDBRANCH  21  22
BRANCH  21  24
ATOM     24  C   UNL     1      34.078 -14.785 -22.622  0.00  0.00    -0.048 C 
BRANCH  24  25
ATOM     25  N   UNL     1      32.943 -13.977 -23.047  0.00  0.00    +0.388 N 
ATOM     26  H   UNL     1      32.993 -13.835 -24.056  0.00  0.00    -0.084 HD
ATOM     27  H   UNL     1      32.084 -14.466 -22.797  0.00  0.00    -0.084 HD
BRANCH  25  28
ATOM     28  C   UNL     1      32.949 -12.681 -22.383  0.00  0.00    -0.046 C 
ATOM     29  C   UNL     1      33.893 -12.753 -21.178  0.00  0.00    -0.022 C 
ATOM     30  C   UNL     1      33.430 -11.607 -23.366  0.00  0.00    -0.022 C 
ATOM     31  C   UNL     1      31.524 -12.365 -21.916  0.00  0.00    -0.022 C 
ENDBRANCH  25  28
ENDBRANCH  24  25
ENDBRANCH  21  24
ENDBRANCH  20  21
ENDBRANCH  19  20
ENDBRANCH   2  19
TORSDOF 9
ENDMDL
MODEL 9
REMARK VINA RESULT:      -9.6      5.495      9.333
REMARK  Name = 68770
REMARK  9 active torsions:
REMARK  status: ('A' for Active; 'I' for Inactive)
REMARK    1  A    between atoms: C_1  and  N_9
REMARK    2  A    between atoms: C_2  and  O_19
REMARK    3  A    between atoms: N_8  and  C_13
REMARK    4  A    between atoms: O_19  and  C_20
REMARK    5  A    between atoms: C_20  and  C_21
REMARK    6  A    between atoms: C_21  and  O_22
REMARK    7  A    between atoms: C_21  and  C_24
REMARK    8  A    between atoms: C_24  and  N_25
REMARK    9  A    between atoms: N_25  and  C_28
REMARK                            x       y       z     vdW  Elec       q    Type
REMARK                         _______ _______ _______ _____ _____    ______ ____
ROOT
ATOM      1  C   UNL     1      33.496 -21.453 -18.667  0.00  0.00    +0.052 C 
ATOM      2  C   UNL     1      34.713 -19.834 -20.585  0.00  0.00    +0.139 C 
ATOM      3  C   UNL     1      34.885 -21.437 -18.787  0.00  0.00    +0.018 C 
ATOM      4  C   UNL     1      32.714 -20.660 -19.508  0.00  0.00    +0.018 C 
ATOM      5  C   UNL     1      35.494 -20.628 -19.745  0.00  0.00    +0.038 C 
ATOM      6  C   UNL     1      33.324 -19.851 -20.467  0.00  0.00    +0.038 C 
ENDROOT
BRANCH   1   9
ATOM      7  O   UNL     1      30.685 -21.442 -17.616  0.00  0.00    -0.252 OA
ATOM      8  N   UNL     1      31.339 -23.208 -16.273  0.00  0.00    -0.290 N 
ATOM      9  N   UNL     1      32.879 -22.275 -17.695  0.00  0.00    -0.268 N 
ATOM     10  C   UNL     1      31.558 -22.223 -17.243  0.00  0.00    +0.304 C 
ATOM     11  H   UNL     1      32.087 -23.798 -16.027  0.00  0.00    +0.151 HD
ATOM     12  H   UNL     1      33.449 -22.966 -17.288  0.00  0.00    +0.156 HD
BRANCH   8  13
ATOM     13  C   UNL     1      30.064 -23.401 -15.619  0.00  0.00    +0.073 C 
ATOM     14  C   UNL     1      29.979 -24.791 -14.978  0.00  0.00    +0.020 C 
ATOM     15  C   UNL     1      29.801 -22.297 -14.588  0.00  0.00    +0.020 C 
ATOM     16  C   UNL     1      30.865 -24.919 -13.739  0.00  0.00    +0.002 C 
ATOM     17  C   UNL     1      30.688 -22.430 -13.350  0.00  0.00    +0.002 C 
ATOM     18  C   UNL     1      30.577 -23.816 -12.725  0.00  0.00    +0.000 C 
ENDBRANCH   8  13
ENDBRANCH   1   9
BRANCH   2  19
ATOM     19  O   UNL     1      35.307 -19.046 -21.523  0.00  0.00    -0.473 OA
BRANCH  19  20
ATOM     20  C   UNL     1      34.474 -18.114 -22.210  0.00  0.00    +0.232 C 
BRANCH  20  21
ATOM     21  C   UNL     1      34.954 -16.699 -21.897  0.00  0.00    +0.133 C 
BRANCH  21  22
ATOM     22  O   UNL     1      34.601 -16.386 -20.546  0.00  0.00    -0.383 OA
ATOM     23  H   UNL     1      33.970 -17.043 -20.217  0.00  0.00    +0.210 HD
ENDBRANCH  21  22
BRANCH  21  24
ATOM     24  C   UNL     1      34.341 -15.635 -22.810  0.00  0.00    -0.048 C 
BRANCH  24  25
ATOM     25  N   UNL     1      34.246 -14.338 -22.154  0.00  0.00    +0.388 N 
ATOM     26  H   UNL     1      34.015 -14.478 -21.170  0.00  0.00    -0.084 HD
ATOM     27  H   UNL     1      35.143 -13.861 -22.245  0.00  0.00    -0.084 HD
BRANCH  25  28
ATOM     28  C   UNL     1      33.217 -13.515 -22.773  0.00  0.00    -0.046 C 
ATOM     29  C   UNL     1      33.785 -12.110 -23.000  0.00  0.00    -0.022 C 
ATOM     30  C   UNL     1      32.804 -14.139 -24.112  0.00  0.00    -0.022 C 
ATOM     31  C   UNL     1      32.011 -13.449 -21.830  0.00  0.00    -0.022 C 
ENDBRANCH  25  28
ENDBRANCH  24  25
ENDBRANCH  21  24
ENDBRANCH  20  21
ENDBRANCH  19  20
ENDBRANCH   2  19
TORSDOF 9
ENDMDL
