MODEL 1
REMARK VINA RESULT:     -14.0      0.000      0.000
REMARK  Name = 24794406
REMARK  5 active torsions:
REMARK  status: ('A' for Active; 'I' for Inactive)
REMARK    1  A    between atoms: C_1  and  S_24
REMARK    2  A    between atoms: C_2  and  N_8
REMARK    3  A    between atoms: C_9  and  C_11
REMARK    4  A    between atoms: C_12  and  N_18
REMARK    5  A    between atoms: S_24  and  N_28
REMARK                            x       y       z     vdW  Elec       q    Type
REMARK                         _______ _______ _______ _____ _____    ______ ____
ROOT
ATOM      1  C   UNL     1      32.159 -23.683 -14.177  0.00  0.00    +0.139 C 
ATOM      2  C   UNL     1      31.371 -23.295 -15.261  0.00  0.00    +0.070 C 
ATOM      3  C   UNL     1      31.588 -24.385 -13.116  0.00  0.00    +0.021 C 
ATOM      4  C   UNL     1      30.011 -23.609 -15.282  0.00  0.00    +0.016 C 
ATOM      5  C   UNL     1      30.229 -24.699 -13.138  0.00  0.00    +0.001 C 
ATOM      6  C   UNL     1      29.441 -24.312 -14.222  0.00  0.00    +0.001 C 
ENDROOT
BRANCH   2   8
ATOM      7  O   UNL     1      33.141 -24.232 -17.492  0.00  0.00    -0.270 OA
ATOM      8  N   UNL     1      31.925 -22.581 -16.351  0.00  0.00    -0.279 N 
ATOM      9  C   UNL     1      32.753 -23.059 -17.378  0.00  0.00    +0.250 C 
ATOM     10  H   UNL     1      31.700 -21.623 -16.394  0.00  0.00    +0.155 HD
BRANCH   9  11
ATOM     11  C   UNL     1      33.190 -22.071 -18.351  0.00  0.00    +0.054 C 
ATOM     12  C   UNL     1      34.026 -20.176 -20.221  0.00  0.00    +0.058 C 
ATOM     13  C   UNL     1      32.261 -21.204 -18.929  0.00  0.00    +0.006 C 
ATOM     14  C   UNL     1      34.535 -21.991 -18.710  0.00  0.00    +0.006 C 
ATOM     15  C   UNL     1      32.680 -20.257 -19.863  0.00  0.00    +0.015 C 
ATOM     16  C   UNL     1      34.953 -21.044 -19.644  0.00  0.00    +0.015 C 
BRANCH  12  18
ATOM     17  O   UNL     1      36.443 -18.599 -20.034  0.00  0.00    -0.269 OA
ATOM     18  N   UNL     1      34.461 -19.191 -21.192  0.00  0.00    -0.233 N 
ATOM     19  C   UNL     1      35.691 -18.509 -21.005  0.00  0.00    +0.257 C 
ATOM     20  C   UNL     1      33.666 -18.890 -22.300  0.00  0.00    +0.072 C 
ATOM     21  C   UNL     1      36.087 -17.544 -22.077  0.00  0.00    +0.059 C 
ATOM     22  C   UNL     1      34.027 -17.997 -23.229  0.00  0.00    +0.017 C 
ATOM     23  C   UNL     1      35.278 -17.311 -23.113  0.00  0.00    +0.006 C 
ENDBRANCH  12  18
ENDBRANCH   9  11
ENDBRANCH   2   8
BRANCH   1  24
ATOM     24  S   UNL     1      33.869 -23.308 -14.112  0.00  0.00    +0.076 S 
ATOM     25  O   UNL     1      34.286 -23.406 -12.720  0.00  0.00    -0.150 OA
ATOM     26  O   UNL     1      34.096 -22.064 -14.832  0.00  0.00    -0.150 OA
BRANCH  24  28
ATOM     27 CL   UNL     1      40.275 -25.682 -14.003  0.00  0.00    -0.081 Cl
ATOM     28  N   UNL     1      34.574 -24.617 -14.979  0.00  0.00    -0.199 N 
ATOM     29  N   UNL     1      36.776 -23.858 -14.549  0.00  0.00    -0.227 NA
ATOM     30  C   UNL     1      35.961 -24.919 -14.744  0.00  0.00    +0.147 C 
ATOM     31  C   UNL     1      36.386 -26.237 -14.727  0.00  0.00    +0.036 C 
ATOM     32  C   UNL     1      37.735 -26.483 -14.494  0.00  0.00    +0.016 C 
ATOM     33  C   UNL     1      38.080 -24.136 -14.326  0.00  0.00    +0.112 C 
ATOM     34  C   UNL     1      38.605 -25.417 -14.289  0.00  0.00    +0.077 C 
ATOM     35  H   UNL     1      34.044 -25.145 -15.619  0.00  0.00    +0.175 HD
ENDBRANCH  24  28
ENDBRANCH   1  24
TORSDOF 5
ENDMDL
MODEL 2
REMARK VINA RESULT:     -13.7      1.216      1.487
REMARK  Name = 24794406
REMARK  5 active torsions:
REMARK  status: ('A' for Active; 'I' for Inactive)
REMARK    1  A    between atoms: C_1  and  S_24
REMARK    2  A    between atoms: C_2  and  N_8
REMARK    3  A    between atoms: C_9  and  C_11
REMARK    4  A    between atoms: C_12  and  N_18
REMARK    5  A    between atoms: S_24  and  N_28
REMARK                            x       y       z     vdW  Elec       q    Type
REMARK                         _______ _______ _______ _____ _____    ______ ____
ROOT
ATOM      1  C   UNL     1      32.951 -23.342 -14.710  0.00  0.00    +0.139 C 
ATOM      2  C   UNL     1      31.989 -22.930 -15.631  0.00  0.00    +0.070 C 
ATOM      3  C   UNL     1      32.575 -24.095 -13.597  0.00  0.00    +0.021 C 
ATOM      4  C   UNL     1      30.649 -23.269 -15.439  0.00  0.00    +0.016 C 
ATOM      5  C   UNL     1      31.235 -24.435 -13.407  0.00  0.00    +0.001 C 
ATOM      6  C   UNL     1      30.273 -24.022 -14.328  0.00  0.00    +0.001 C 
ENDROOT
BRANCH   2   8
ATOM      7  O   UNL     1      33.211 -23.778 -18.234  0.00  0.00    -0.270 OA
ATOM      8  N   UNL     1      32.344 -22.164 -16.768  0.00  0.00    -0.279 N 
ATOM      9  C   UNL     1      32.917 -22.601 -17.972  0.00  0.00    +0.250 C 
ATOM     10  H   UNL     1      32.167 -21.198 -16.706  0.00  0.00    +0.155 HD
BRANCH   9  11
ATOM     11  C   UNL     1      33.196 -21.567 -18.954  0.00  0.00    +0.054 C 
ATOM     12  C   UNL     1      33.730 -19.582 -20.840  0.00  0.00    +0.058 C 
ATOM     13  C   UNL     1      32.147 -20.849 -19.527  0.00  0.00    +0.006 C 
ATOM     14  C   UNL     1      34.512 -21.293 -19.325  0.00  0.00    +0.006 C 
ATOM     15  C   UNL     1      32.414 -19.856 -20.470  0.00  0.00    +0.015 C 
ATOM     16  C   UNL     1      34.780 -20.301 -20.268  0.00  0.00    +0.015 C 
BRANCH  12  18
ATOM     17  O   UNL     1      35.012 -17.050 -20.284  0.00  0.00    -0.269 OA
ATOM     18  N   UNL     1      34.008 -18.550 -21.820  0.00  0.00    -0.233 N 
ATOM     19  C   UNL     1      34.680 -17.364 -21.428  0.00  0.00    +0.257 C 
ATOM     20  C   UNL     1      33.597 -18.703 -23.147  0.00  0.00    +0.072 C 
ATOM     21  C   UNL     1      34.968 -16.372 -22.510  0.00  0.00    +0.059 C 
ATOM     22  C   UNL     1      33.838 -17.786 -24.090  0.00  0.00    +0.017 C 
ATOM     23  C   UNL     1      34.551 -16.589 -23.759  0.00  0.00    +0.006 C 
ENDBRANCH  12  18
ENDBRANCH   9  11
ENDBRANCH   2   8
BRANCH   1  24
ATOM     24  S   UNL     1      34.643 -22.937 -14.914  0.00  0.00    +0.076 S 
ATOM     25  O   UNL     1      34.744 -21.485 -14.965  0.00  0.00    -0.150 OA
ATOM     26  O   UNL     1      35.175 -23.722 -16.019  0.00  0.00    -0.150 OA
BRANCH  24  28
ATOM     27 CL   UNL     1      40.557 -26.166 -13.779  0.00  0.00    -0.081 Cl
ATOM     28  N   UNL     1      35.340 -23.474 -13.434  0.00  0.00    -0.199 N 
ATOM     29  N   UNL     1      36.852 -24.921 -14.544  0.00  0.00    -0.227 NA
ATOM     30  C   UNL     1      36.628 -24.115 -13.482  0.00  0.00    +0.147 C 
ATOM     31  C   UNL     1      37.549 -23.885 -12.474  0.00  0.00    +0.036 C 
ATOM     32  C   UNL     1      38.782 -24.523 -12.562  0.00  0.00    +0.016 C 
ATOM     33  C   UNL     1      38.061 -25.524 -14.595  0.00  0.00    +0.112 C 
ATOM     34  C   UNL     1      39.050 -25.360 -13.640  0.00  0.00    +0.077 C 
ATOM     35  H   UNL     1      34.871 -23.347 -12.578  0.00  0.00    +0.175 HD
ENDBRANCH  24  28
ENDBRANCH   1  24
TORSDOF 5
ENDMDL
MODEL 3
REMARK VINA RESULT:     -12.6      3.402      5.770
REMARK  Name = 24794406
REMARK  5 active torsions:
REMARK  status: ('A' for Active; 'I' for Inactive)
REMARK    1  A    between atoms: C_1  and  S_24
REMARK    2  A    between atoms: C_2  and  N_8
REMARK    3  A    between atoms: C_9  and  C_11
REMARK    4  A    between atoms: C_12  and  N_18
REMARK    5  A    between atoms: S_24  and  N_28
REMARK                            x       y       z     vdW  Elec       q    Type
REMARK                         _______ _______ _______ _____ _____    ______ ____
ROOT
ATOM      1  C   UNL     1      34.764 -22.850 -16.331  0.00  0.00    +0.139 C 
ATOM      2  C   UNL     1      35.741 -21.964 -16.783  0.00  0.00    +0.070 C 
ATOM      3  C   UNL     1      35.056 -23.745 -15.302  0.00  0.00    +0.021 C 
ATOM      4  C   UNL     1      37.012 -21.975 -16.208  0.00  0.00    +0.016 C 
ATOM      5  C   UNL     1      36.327 -23.755 -14.726  0.00  0.00    +0.001 C 
ATOM      6  C   UNL     1      37.305 -22.869 -15.179  0.00  0.00    +0.001 C 
ENDROOT
BRANCH   2   8
ATOM      7  O   UNL     1      35.536 -22.398 -19.742  0.00  0.00    -0.270 OA
ATOM      8  N   UNL     1      35.471 -21.045 -17.826  0.00  0.00    -0.279 N 
ATOM      9  C   UNL     1      35.384 -21.290 -19.205  0.00  0.00    +0.250 C 
ATOM     10  H   UNL     1      35.326 -20.112 -17.548  0.00  0.00    +0.155 HD
BRANCH   9  11
ATOM     11  C   UNL     1      35.119 -20.129 -20.039  0.00  0.00    +0.054 C 
ATOM     12  C   UNL     1      34.611 -17.901 -21.639  0.00  0.00    +0.058 C 
ATOM     13  C   UNL     1      36.161 -19.271 -20.390  0.00  0.00    +0.006 C 
ATOM     14  C   UNL     1      33.824 -19.873 -20.488  0.00  0.00    +0.006 C 
ATOM     15  C   UNL     1      35.906 -18.156 -21.190  0.00  0.00    +0.015 C 
ATOM     16  C   UNL     1      33.569 -18.759 -21.287  0.00  0.00    +0.015 C 
BRANCH  12  18
ATOM     17  O   UNL     1      34.313 -15.188 -20.682  0.00  0.00    -0.269 OA
ATOM     18  N   UNL     1      34.347 -16.743 -22.471  0.00  0.00    -0.233 N 
ATOM     19  C   UNL     1      34.261 -15.455 -21.884  0.00  0.00    +0.257 C 
ATOM     20  C   UNL     1      34.152 -16.888 -23.847  0.00  0.00    +0.072 C 
ATOM     21  C   UNL     1      34.032 -14.309 -22.819  0.00  0.00    +0.059 C 
ATOM     22  C   UNL     1      33.915 -15.852 -24.658  0.00  0.00    +0.017 C 
ATOM     23  C   UNL     1      33.861 -14.524 -24.125  0.00  0.00    +0.006 C 
ENDBRANCH  12  18
ENDBRANCH   9  11
ENDBRANCH   2   8
BRANCH   1  24
ATOM     24  S   UNL     1      33.156 -22.868 -17.026  0.00  0.00    +0.076 S 
ATOM     25  O   UNL     1      33.132 -23.905 -18.049  0.00  0.00    -0.150 OA
ATOM     26  O   UNL     1      32.797 -21.506 -17.393  0.00  0.00    -0.150 OA
BRANCH  24  28
ATOM     27 CL   UNL     1      26.403 -22.374 -16.112  0.00  0.00    -0.081 Cl
ATOM     28  N   UNL     1      32.181 -23.390 -15.707  0.00  0.00    -0.199 N 
ATOM     29  N   UNL     1      30.363 -22.025 -16.369  0.00  0.00    -0.227 NA
ATOM     30  C   UNL     1      30.760 -23.178 -15.786  0.00  0.00    +0.147 C 
ATOM     31  C   UNL     1      29.892 -24.132 -15.281  0.00  0.00    +0.036 C 
ATOM     32  C   UNL     1      28.526 -23.887 -15.381  0.00  0.00    +0.016 C 
ATOM     33  C   UNL     1      29.028 -21.821 -16.448  0.00  0.00    +0.112 C 
ATOM     34  C   UNL     1      28.078 -22.711 -15.975  0.00  0.00    +0.077 C 
ATOM     35  H   UNL     1      32.584 -23.821 -14.919  0.00  0.00    +0.175 HD
ENDBRANCH  24  28
ENDBRANCH   1  24
TORSDOF 5
ENDMDL
MODEL 4
REMARK VINA RESULT:     -12.2      3.061      5.375
REMARK  Name = 24794406
REMARK  5 active torsions:
REMARK  status: ('A' for Active; 'I' for Inactive)
REMARK    1  A    between atoms: C_1  and  S_24
REMARK    2  A    between atoms: C_2  and  N_8
REMARK    3  A    between atoms: C_9  and  C_11
REMARK    4  A    between atoms: C_12  and  N_18
REMARK    5  A    between atoms: S_24  and  N_28
REMARK                            x       y       z     vdW  Elec       q    Type
REMARK                         _______ _______ _______ _____ _____    ______ ____
ROOT
ATOM      1  C   UNL     1      35.142 -22.593 -16.253  0.00  0.00    +0.139 C 
ATOM      2  C   UNL     1      36.111 -21.776 -16.833  0.00  0.00    +0.070 C 
ATOM      3  C   UNL     1      35.496 -23.475 -15.231  0.00  0.00    +0.021 C 
ATOM      4  C   UNL     1      37.433 -21.840 -16.394  0.00  0.00    +0.016 C 
ATOM      5  C   UNL     1      36.818 -23.538 -14.790  0.00  0.00    +0.001 C 
ATOM      6  C   UNL     1      37.786 -22.720 -15.372  0.00  0.00    +0.001 C 
ENDROOT
BRANCH   2   8
ATOM      7  O   UNL     1      36.042 -22.181 -19.803  0.00  0.00    -0.270 OA
ATOM      8  N   UNL     1      35.780 -20.872 -17.873  0.00  0.00    -0.279 N 
ATOM      9  C   UNL     1      35.761 -21.103 -19.257  0.00  0.00    +0.250 C 
ATOM     10  H   UNL     1      35.532 -19.963 -17.588  0.00  0.00    +0.155 HD
BRANCH   9  11
ATOM     11  C   UNL     1      35.403 -19.962 -20.084  0.00  0.00    +0.054 C 
ATOM     12  C   UNL     1      34.714 -17.776 -21.674  0.00  0.00    +0.058 C 
ATOM     13  C   UNL     1      34.079 -19.780 -20.485  0.00  0.00    +0.006 C 
ATOM     14  C   UNL     1      36.381 -19.051 -20.480  0.00  0.00    +0.006 C 
ATOM     15  C   UNL     1      33.735 -18.687 -21.280  0.00  0.00    +0.015 C 
ATOM     16  C   UNL     1      36.038 -17.958 -21.274  0.00  0.00    +0.015 C 
BRANCH  12  18
ATOM     17  O   UNL     1      34.280 -15.082 -20.713  0.00  0.00    -0.269 OA
ATOM     18  N   UNL     1      34.357 -16.639 -22.500  0.00  0.00    -0.233 N 
ATOM     19  C   UNL     1      34.210 -15.356 -21.913  0.00  0.00    +0.257 C 
ATOM     20  C   UNL     1      34.132 -16.800 -23.869  0.00  0.00    +0.072 C 
ATOM     21  C   UNL     1      33.886 -14.230 -22.842  0.00  0.00    +0.059 C 
ATOM     22  C   UNL     1      33.810 -15.782 -24.675  0.00  0.00    +0.017 C 
ATOM     23  C   UNL     1      33.691 -14.458 -24.143  0.00  0.00    +0.006 C 
ENDBRANCH  12  18
ENDBRANCH   9  11
ENDBRANCH   2   8
BRANCH   1  24
ATOM     24  S   UNL     1      33.471 -22.543 -16.776  0.00  0.00    +0.076 S 
ATOM     25  O   UNL     1      33.099 -23.891 -17.184  0.00  0.00    -0.150 OA
ATOM     26  O   UNL     1      33.319 -21.451 -17.727  0.00  0.00    -0.150 OA
BRANCH  24  28
ATOM     27 CL   UNL     1      28.108 -25.644 -13.896  0.00  0.00    -0.081 Cl
ATOM     28  N   UNL     1      32.632 -22.168 -15.321  0.00  0.00    -0.199 N 
ATOM     29  N   UNL     1      30.759 -23.481 -15.935  0.00  0.00    -0.227 NA
ATOM     30  C   UNL     1      31.535 -23.015 -14.932  0.00  0.00    +0.147 C 
ATOM     31  C   UNL     1      31.331 -23.305 -13.593  0.00  0.00    +0.036 C 
ATOM     32  C   UNL     1      30.260 -24.129 -13.262  0.00  0.00    +0.016 C 
ATOM     33  C   UNL     1      29.728 -24.278 -15.575  0.00  0.00    +0.112 C 
ATOM     34  C   UNL     1      29.439 -24.629 -14.267  0.00  0.00    +0.077 C 
ATOM     35  H   UNL     1      32.894 -21.396 -14.771  0.00  0.00    +0.175 HD
ENDBRANCH  24  28
ENDBRANCH   1  24
TORSDOF 5
ENDMDL
MODEL 5
REMARK VINA RESULT:     -11.9     11.642     17.191
REMARK  Name = 24794406
REMARK  5 active torsions:
REMARK  status: ('A' for Active; 'I' for Inactive)
REMARK    1  A    between atoms: C_1  and  S_24
REMARK    2  A    between atoms: C_2  and  N_8
REMARK    3  A    between atoms: C_9  and  C_11
REMARK    4  A    between atoms: C_12  and  N_18
REMARK    5  A    between atoms: S_24  and  N_28
REMARK                            x       y       z     vdW  Elec       q    Type
REMARK                         _______ _______ _______ _____ _____    ______ ____
ROOT
ATOM      1  C   UNL     1      32.276  -6.081 -22.329  0.00  0.00    +0.139 C 
ATOM      2  C   UNL     1      31.988  -7.064 -21.383  0.00  0.00    +0.070 C 
ATOM      3  C   UNL     1      31.993  -4.743 -22.053  0.00  0.00    +0.021 C 
ATOM      4  C   UNL     1      31.417  -6.710 -20.161  0.00  0.00    +0.016 C 
ATOM      5  C   UNL     1      31.423  -4.389 -20.830  0.00  0.00    +0.001 C 
ATOM      6  C   UNL     1      31.136  -5.373 -19.884  0.00  0.00    +0.001 C 
ENDROOT
BRANCH   2   8
ATOM      7  O   UNL     1      30.220  -9.228 -22.470  0.00  0.00    -0.270 OA
ATOM      8  N   UNL     1      32.264  -8.430 -21.638  0.00  0.00    -0.279 N 
ATOM      9  C   UNL     1      31.404  -9.414 -22.149  0.00  0.00    +0.250 C 
ATOM     10  H   UNL     1      33.178  -8.729 -21.429  0.00  0.00    +0.155 HD
BRANCH   9  11
ATOM     11  C   UNL     1      31.970 -10.747 -22.276  0.00  0.00    +0.054 C 
ATOM     12  C   UNL     1      33.057 -13.305 -22.522  0.00  0.00    +0.058 C 
ATOM     13  C   UNL     1      32.880 -11.023 -23.297  0.00  0.00    +0.006 C 
ATOM     14  C   UNL     1      31.604 -11.750 -21.379  0.00  0.00    +0.006 C 
ATOM     15  C   UNL     1      33.423 -12.302 -23.420  0.00  0.00    +0.015 C 
ATOM     16  C   UNL     1      32.146 -13.028 -21.501  0.00  0.00    +0.015 C 
BRANCH  12  18
ATOM     17  O   UNL     1      34.278 -14.814 -20.378  0.00  0.00    -0.269 OA
ATOM     18  N   UNL     1      33.621 -14.634 -22.649  0.00  0.00    -0.233 N 
ATOM     19  C   UNL     1      34.158 -15.287 -21.509  0.00  0.00    +0.257 C 
ATOM     20  C   UNL     1      33.664 -15.270 -23.892  0.00  0.00    +0.072 C 
ATOM     21  C   UNL     1      34.678 -16.674 -21.718  0.00  0.00    +0.059 C 
ATOM     22  C   UNL     1      34.165 -16.499 -24.060  0.00  0.00    +0.017 C 
ATOM     23  C   UNL     1      34.680 -17.221 -22.936  0.00  0.00    +0.006 C 
ENDBRANCH  12  18
ENDBRANCH   9  11
ENDBRANCH   2   8
BRANCH   1  24
ATOM     24  S   UNL     1      32.992  -6.484 -23.876  0.00  0.00    +0.076 S 
ATOM     25  O   UNL     1      31.905  -6.727 -24.814  0.00  0.00    -0.150 OA
ATOM     26  O   UNL     1      33.988  -7.525 -23.665  0.00  0.00    -0.150 OA
BRANCH  24  28
ATOM     27 CL   UNL     1      33.319  -3.379 -29.953  0.00  0.00    -0.081 Cl
ATOM     28  N   UNL     1      33.772  -5.017 -24.323  0.00  0.00    -0.199 N 
ATOM     29  N   UNL     1      33.683  -5.545 -26.630  0.00  0.00    -0.227 NA
ATOM     30  C   UNL     1      33.660  -4.576 -25.689  0.00  0.00    +0.147 C 
ATOM     31  C   UNL     1      33.535  -3.225 -25.968  0.00  0.00    +0.036 C 
ATOM     32  C   UNL     1      33.427  -2.844 -27.302  0.00  0.00    +0.016 C 
ATOM     33  C   UNL     1      33.576  -5.137 -27.915  0.00  0.00    +0.112 C 
ATOM     34  C   UNL     1      33.447  -3.812 -28.299  0.00  0.00    +0.077 C 
ATOM     35  H   UNL     1      34.282  -4.493 -23.664  0.00  0.00    +0.175 HD
ENDBRANCH  24  28
ENDBRANCH   1  24
TORSDOF 5
ENDMDL
MODEL 6
REMARK VINA RESULT:     -11.8      3.086      5.519
REMARK  Name = 24794406
REMARK  5 active torsions:
REMARK  status: ('A' for Active; 'I' for Inactive)
REMARK    1  A    between atoms: C_1  and  S_24
REMARK    2  A    between atoms: C_2  and  N_8
REMARK    3  A    between atoms: C_9  and  C_11
REMARK    4  A    between atoms: C_12  and  N_18
REMARK    5  A    between atoms: S_24  and  N_28
REMARK                            x       y       z     vdW  Elec       q    Type
REMARK                         _______ _______ _______ _____ _____    ______ ____
ROOT
ATOM      1  C   UNL     1      35.096 -22.544 -16.326  0.00  0.00    +0.139 C 
ATOM      2  C   UNL     1      36.055 -21.719 -16.913  0.00  0.00    +0.070 C 
ATOM      3  C   UNL     1      35.458 -23.409 -15.293  0.00  0.00    +0.021 C 
ATOM      4  C   UNL     1      37.377 -21.760 -16.468  0.00  0.00    +0.016 C 
ATOM      5  C   UNL     1      36.780 -23.449 -14.848  0.00  0.00    +0.001 C 
ATOM      6  C   UNL     1      37.739 -22.623 -15.435  0.00  0.00    +0.001 C 
ENDROOT
BRANCH   2   8
ATOM      7  O   UNL     1      35.935 -22.177 -19.873  0.00  0.00    -0.270 OA
ATOM      8  N   UNL     1      35.714 -20.832 -17.963  0.00  0.00    -0.279 N 
ATOM      9  C   UNL     1      35.671 -21.087 -19.342  0.00  0.00    +0.250 C 
ATOM     10  H   UNL     1      35.478 -19.916 -17.691  0.00  0.00    +0.155 HD
BRANCH   9  11
ATOM     11  C   UNL     1      35.309 -19.959 -20.184  0.00  0.00    +0.054 C 
ATOM     12  C   UNL     1      34.617 -17.792 -21.800  0.00  0.00    +0.058 C 
ATOM     13  C   UNL     1      36.281 -19.032 -20.562  0.00  0.00    +0.006 C 
ATOM     14  C   UNL     1      33.993 -19.802 -20.615  0.00  0.00    +0.006 C 
ATOM     15  C   UNL     1      35.934 -17.948 -21.369  0.00  0.00    +0.015 C 
ATOM     16  C   UNL     1      33.646 -18.719 -21.422  0.00  0.00    +0.015 C 
BRANCH  12  18
ATOM     17  O   UNL     1      33.806 -17.966 -24.571  0.00  0.00    -0.269 OA
ATOM     18  N   UNL     1      34.257 -16.667 -22.640  0.00  0.00    -0.233 N 
ATOM     19  C   UNL     1      33.837 -16.887 -23.977  0.00  0.00    +0.257 C 
ATOM     20  C   UNL     1      34.343 -15.361 -22.151  0.00  0.00    +0.072 C 
ATOM     21  C   UNL     1      33.439 -15.676 -24.760  0.00  0.00    +0.059 C 
ATOM     22  C   UNL     1      34.014 -14.290 -22.882  0.00  0.00    +0.017 C 
ATOM     23  C   UNL     1      33.542 -14.458 -24.223  0.00  0.00    +0.006 C 
ENDBRANCH  12  18
ENDBRANCH   9  11
ENDBRANCH   2   8
BRANCH   1  24
ATOM     24  S   UNL     1      33.426 -22.524 -16.855  0.00  0.00    +0.076 S 
ATOM     25  O   UNL     1      33.069 -23.884 -17.234  0.00  0.00    -0.150 OA
ATOM     26  O   UNL     1      33.265 -21.454 -17.829  0.00  0.00    -0.150 OA
BRANCH  24  28
ATOM     27 CL   UNL     1      28.084 -25.616 -13.927  0.00  0.00    -0.081 Cl
ATOM     28  N   UNL     1      32.578 -22.126 -15.411  0.00  0.00    -0.199 N 
ATOM     29  N   UNL     1      30.720 -23.470 -16.003  0.00  0.00    -0.227 NA
ATOM     30  C   UNL     1      31.489 -22.975 -15.007  0.00  0.00    +0.147 C 
ATOM     31  C   UNL     1      31.283 -23.239 -13.663  0.00  0.00    +0.036 C 
ATOM     32  C   UNL     1      30.219 -24.067 -13.318  0.00  0.00    +0.016 C 
ATOM     33  C   UNL     1      29.696 -24.270 -15.630  0.00  0.00    +0.112 C 
ATOM     34  C   UNL     1      29.406 -24.596 -14.315  0.00  0.00    +0.077 C 
ATOM     35  H   UNL     1      32.831 -21.340 -14.876  0.00  0.00    +0.175 HD
ENDBRANCH  24  28
ENDBRANCH   1  24
TORSDOF 5
ENDMDL
MODEL 7
REMARK VINA RESULT:     -11.1      3.177      5.379
REMARK  Name = 24794406
REMARK  5 active torsions:
REMARK  status: ('A' for Active; 'I' for Inactive)
REMARK    1  A    between atoms: C_1  and  S_24
REMARK    2  A    between atoms: C_2  and  N_8
REMARK    3  A    between atoms: C_9  and  C_11
REMARK    4  A    between atoms: C_12  and  N_18
REMARK    5  A    between atoms: S_24  and  N_28
REMARK                            x       y       z     vdW  Elec       q    Type
REMARK                         _______ _______ _______ _____ _____    ______ ____
ROOT
ATOM      1  C   UNL     1      33.681 -23.330 -14.463  0.00  0.00    +0.139 C 
ATOM      2  C   UNL     1      34.694 -23.263 -15.419  0.00  0.00    +0.070 C 
ATOM      3  C   UNL     1      33.831 -24.151 -13.345  0.00  0.00    +0.021 C 
ATOM      4  C   UNL     1      35.857 -24.017 -15.257  0.00  0.00    +0.016 C 
ATOM      5  C   UNL     1      34.994 -24.904 -13.183  0.00  0.00    +0.001 C 
ATOM      6  C   UNL     1      36.007 -24.836 -14.140  0.00  0.00    +0.001 C 
ENDROOT
BRANCH   2   8
ATOM      7  O   UNL     1      33.250 -23.743 -18.002  0.00  0.00    -0.270 OA
ATOM      8  N   UNL     1      34.567 -22.438 -16.564  0.00  0.00    -0.279 N 
ATOM      9  C   UNL     1      33.880 -22.702 -17.758  0.00  0.00    +0.250 C 
ATOM     10  H   UNL     1      35.022 -21.567 -16.516  0.00  0.00    +0.155 HD
BRANCH   9  11
ATOM     11  C   UNL     1      33.954 -21.665 -18.774  0.00  0.00    +0.054 C 
ATOM     12  C   UNL     1      34.092 -19.675 -20.725  0.00  0.00    +0.058 C 
ATOM     13  C   UNL     1      32.783 -21.079 -19.257  0.00  0.00    +0.006 C 
ATOM     14  C   UNL     1      35.192 -21.256 -19.267  0.00  0.00    +0.006 C 
ATOM     15  C   UNL     1      32.853 -20.084 -20.233  0.00  0.00    +0.015 C 
ATOM     16  C   UNL     1      35.262 -20.262 -20.242  0.00  0.00    +0.015 C 
BRANCH  12  18
ATOM     17  O   UNL     1      35.086 -16.992 -20.307  0.00  0.00    -0.269 OA
ATOM     18  N   UNL     1      34.165 -18.641 -21.738  0.00  0.00    -0.233 N 
ATOM     19  C   UNL     1      34.711 -17.372 -21.417  0.00  0.00    +0.257 C 
ATOM     20  C   UNL     1      33.678 -18.876 -23.027  0.00  0.00    +0.072 C 
ATOM     21  C   UNL     1      34.791 -16.378 -22.532  0.00  0.00    +0.059 C 
ATOM     22  C   UNL     1      33.730 -17.959 -23.999  0.00  0.00    +0.017 C 
ATOM     23  C   UNL     1      34.311 -16.676 -23.741  0.00  0.00    +0.006 C 
ENDBRANCH  12  18
ENDBRANCH   9  11
ENDBRANCH   2   8
BRANCH   1  24
ATOM     24  S   UNL     1      32.206 -22.400 -14.628  0.00  0.00    +0.076 S 
ATOM     25  O   UNL     1      32.334 -21.584 -15.828  0.00  0.00    -0.150 OA
ATOM     26  O   UNL     1      31.929 -21.747 -13.357  0.00  0.00    -0.150 OA
BRANCH  24  28
ATOM     27 CL   UNL     1      25.569 -21.779 -16.128  0.00  0.00    -0.081 Cl
ATOM     28  N   UNL     1      31.025 -23.616 -14.926  0.00  0.00    -0.199 N 
ATOM     29  N   UNL     1      29.230 -22.107 -14.592  0.00  0.00    -0.227 NA
ATOM     30  C   UNL     1      29.686 -23.198 -15.247  0.00  0.00    +0.147 C 
ATOM     31  C   UNL     1      28.949 -23.907 -16.181  0.00  0.00    +0.036 C 
ATOM     32  C   UNL     1      27.659 -23.467 -16.463  0.00  0.00    +0.016 C 
ATOM     33  C   UNL     1      27.973 -21.710 -14.891  0.00  0.00    +0.112 C 
ATOM     34  C   UNL     1      27.155 -22.348 -15.809  0.00  0.00    +0.077 C 
ATOM     35  H   UNL     1      31.258 -24.571 -14.877  0.00  0.00    +0.175 HD
ENDBRANCH  24  28
ENDBRANCH   1  24
TORSDOF 5
ENDMDL
