MODEL 1
REMARK VINA RESULT:     -12.6      0.000      0.000
REMARK  Name = 16719221
REMARK  6 active torsions:
REMARK  status: ('A' for Active; 'I' for Inactive)
REMARK    1  A    between atoms: C_3  and  C_20
REMARK    2  A    between atoms: C_11  and  O_13
REMARK    3  A    between atoms: O_13  and  C_16
REMARK    4  A    between atoms: C_20  and  C_24
REMARK    5  A    between atoms: N_22  and  S_30
REMARK    6  A    between atoms: S_30  and  N_33
REMARK                            x       y       z     vdW  Elec       q    Type
REMARK                         _______ _______ _______ _____ _____    ______ ____
ROOT
ATOM      1  O   UNL     1      34.842 -15.855 -21.323  0.00  0.00    -0.421 OA
ATOM      2  O   UNL     1      35.677 -17.541 -20.054  0.00  0.00    -0.245 OA
ATOM      3  C   UNL     1      34.745 -18.166 -22.156  0.00  0.00    +0.054 A 
ATOM      4  C   UNL     1      34.110 -17.768 -23.279  0.00  0.00    -0.016 A 
ATOM      5  C   UNL     1      33.841 -16.331 -23.490  0.00  0.00    +0.031 A 
ATOM      6  C   UNL     1      34.214 -15.423 -22.502  0.00  0.00    +0.151 A 
ATOM      7  C   UNL     1      35.132 -17.190 -21.096  0.00  0.00    +0.342 A 
ATOM      8  C   UNL     1      33.634 -18.715 -24.352  0.00  0.00    +0.031 C 
ATOM      9  C   UNL     1      33.231 -15.807 -24.640  0.00  0.00    +0.006 C 
ATOM     10  C   UNL     1      33.996 -14.048 -22.621  0.00  0.00    +0.076 C 
ATOM     11  C   UNL     1      33.386 -13.553 -23.768  0.00  0.00    +0.162 C 
ATOM     12  C   UNL     1      33.004 -14.431 -24.778  0.00  0.00    +0.039 C 
ENDROOT
BRANCH  11  13
ATOM     13  O   UNL     1      33.164 -12.218 -23.903  0.00  0.00    -0.392 OA
BRANCH  13  16
ATOM     14  N   UNL     1      31.917 -12.369 -21.948  0.00  0.00    -0.185 NA
ATOM     15  N   UNL     1      32.211 -10.264 -23.083  0.00  0.00    -0.162 NA
ATOM     16  C   UNL     1      32.396 -11.590 -22.936  0.00  0.00    +0.196 C 
ATOM     17  C   UNL     1      31.175 -11.725 -21.023  0.00  0.00    +0.167 C 
ATOM     18  C   UNL     1      31.459  -9.685 -22.124  0.00  0.00    +0.110 C 
ATOM     19  C   UNL     1      30.910 -10.371 -21.060  0.00  0.00    +0.022 C 
ENDBRANCH  13  16
ENDBRANCH  11  13
BRANCH   3  20
ATOM     20  C   UNL     1      35.138 -19.588 -21.846  0.00  0.00    +0.061 C 
BRANCH  20  24
ATOM     21  F   UNL     1      36.104 -21.539 -20.023  0.00  0.00    -0.202 F 
ATOM     22  N   UNL     1      34.517 -22.631 -18.000  0.00  0.00    -0.187 N 
ATOM     23  N   UNL     1      32.722 -21.286 -18.728  0.00  0.00    -0.226 NA
ATOM     24  C   UNL     1      34.296 -20.183 -20.757  0.00  0.00    +0.014 C 
ATOM     25  C   UNL     1      34.832 -21.135 -19.896  0.00  0.00    +0.169 C 
ATOM     26  C   UNL     1      32.973 -19.781 -20.603  0.00  0.00    +0.019 C 
ATOM     27  C   UNL     1      34.012 -21.652 -18.908  0.00  0.00    +0.175 C 
ATOM     28  C   UNL     1      32.235 -20.358 -19.582  0.00  0.00    +0.100 C 
ATOM     29  H   UNL     1      35.086 -23.372 -18.314  0.00  0.00    +0.176 HD
BRANCH  22  30
ATOM     30  S   UNL     1      34.094 -22.468 -16.329  0.00  0.00    +0.111 S 
ATOM     31  O   UNL     1      34.913 -21.416 -15.757  0.00  0.00    -0.138 OA
ATOM     32  O   UNL     1      32.650 -22.410 -16.196  0.00  0.00    -0.138 OA
BRANCH  30  33
ATOM     33  N   UNL     1      34.625 -23.977 -15.690  0.00  0.00    -0.165 NA
ATOM     34  C   UNL     1      35.892 -23.991 -14.925  0.00  0.00    +0.112 C 
ATOM     35  H   UNL     1      34.737 -24.619 -16.476  0.00  0.00    +0.150 HD
ENDBRANCH  30  33
ENDBRANCH  22  30
ENDBRANCH  20  24
ENDBRANCH   3  20
TORSDOF 6
ENDMDL
MODEL 2
REMARK VINA RESULT:     -12.3      4.873     11.133
REMARK  Name = 16719221
REMARK  6 active torsions:
REMARK  status: ('A' for Active; 'I' for Inactive)
REMARK    1  A    between atoms: C_3  and  C_20
REMARK    2  A    between atoms: C_11  and  O_13
REMARK    3  A    between atoms: O_13  and  C_16
REMARK    4  A    between atoms: C_20  and  C_24
REMARK    5  A    between atoms: N_22  and  S_30
REMARK    6  A    between atoms: S_30  and  N_33
REMARK                            x       y       z     vdW  Elec       q    Type
REMARK                         _______ _______ _______ _____ _____    ______ ____
ROOT
ATOM      1  O   UNL     1      33.259 -14.139 -20.586  0.00  0.00    -0.421 OA
ATOM      2  O   UNL     1      32.019 -12.276 -20.207  0.00  0.00    -0.245 OA
ATOM      3  C   UNL     1      32.269 -12.931 -22.485  0.00  0.00    +0.054 A 
ATOM      4  C   UNL     1      32.825 -13.793 -23.363  0.00  0.00    -0.016 A 
ATOM      5  C   UNL     1      33.622 -14.929 -22.859  0.00  0.00    +0.031 A 
ATOM      6  C   UNL     1      33.814 -15.061 -21.486  0.00  0.00    +0.151 A 
ATOM      7  C   UNL     1      32.488 -13.071 -21.016  0.00  0.00    +0.342 A 
ATOM      8  C   UNL     1      32.696 -13.662 -24.860  0.00  0.00    +0.031 C 
ATOM      9  C   UNL     1      34.203 -15.907 -23.681  0.00  0.00    +0.006 C 
ATOM     10  C   UNL     1      34.554 -16.106 -20.926  0.00  0.00    +0.076 C 
ATOM     11  C   UNL     1      35.125 -17.060 -21.761  0.00  0.00    +0.162 C 
ATOM     12  C   UNL     1      34.948 -16.962 -23.138  0.00  0.00    +0.039 C 
ENDROOT
BRANCH  11  13
ATOM     13  O   UNL     1      35.849 -18.084 -21.236  0.00  0.00    -0.392 OA
BRANCH  13  16
ATOM     14  N   UNL     1      35.881 -19.938 -19.835  0.00  0.00    -0.185 NA
ATOM     15  N   UNL     1      33.835 -19.178 -20.856  0.00  0.00    -0.162 NA
ATOM     16  C   UNL     1      35.158 -19.112 -20.616  0.00  0.00    +0.196 C 
ATOM     17  C   UNL     1      35.177 -20.927 -19.247  0.00  0.00    +0.167 C 
ATOM     18  C   UNL     1      33.193 -20.191 -20.237  0.00  0.00    +0.110 C 
ATOM     19  C   UNL     1      33.818 -21.104 -19.413  0.00  0.00    +0.022 C 
ENDBRANCH  13  16
ENDBRANCH  11  13
BRANCH   3  20
ATOM     20  C   UNL     1      31.382 -11.771 -22.859  0.00  0.00    +0.061 C 
BRANCH  20  24
ATOM     21  F   UNL     1      30.247  -9.186 -22.552  0.00  0.00    -0.202 F 
ATOM     22  N   UNL     1      31.717  -6.839 -22.910  0.00  0.00    -0.187 N 
ATOM     23  N   UNL     1      33.617  -8.144 -23.406  0.00  0.00    -0.226 NA
ATOM     24  C   UNL     1      32.161 -10.503 -23.051  0.00  0.00    +0.014 C 
ATOM     25  C   UNL     1      31.542  -9.268 -22.883  0.00  0.00    +0.169 C 
ATOM     26  C   UNL     1      33.507 -10.559 -23.395  0.00  0.00    +0.019 C 
ATOM     27  C   UNL     1      32.307  -8.129 -23.072  0.00  0.00    +0.175 C 
ATOM     28  C   UNL     1      34.184  -9.362 -23.559  0.00  0.00    +0.100 C 
ATOM     29  H   UNL     1      30.820  -6.641 -23.264  0.00  0.00    +0.176 HD
BRANCH  22  30
ATOM     30  S   UNL     1      32.637  -5.637 -22.070  0.00  0.00    +0.111 S 
ATOM     31  O   UNL     1      31.799  -4.464 -21.902  0.00  0.00    -0.138 OA
ATOM     32  O   UNL     1      33.280  -6.234 -20.915  0.00  0.00    -0.138 OA
BRANCH  30  33
ATOM     33  N   UNL     1      33.860  -5.268 -23.226  0.00  0.00    -0.165 NA
ATOM     34  C   UNL     1      33.446  -4.578 -24.468  0.00  0.00    +0.112 C 
ATOM     35  H   UNL     1      34.298  -6.149 -23.499  0.00  0.00    +0.150 HD
ENDBRANCH  30  33
ENDBRANCH  22  30
ENDBRANCH  20  24
ENDBRANCH   3  20
TORSDOF 6
ENDMDL
MODEL 3
REMARK VINA RESULT:     -12.3      2.858      4.741
REMARK  Name = 16719221
REMARK  6 active torsions:
REMARK  status: ('A' for Active; 'I' for Inactive)
REMARK    1  A    between atoms: C_3  and  C_20
REMARK    2  A    between atoms: C_11  and  O_13
REMARK    3  A    between atoms: O_13  and  C_16
REMARK    4  A    between atoms: C_20  and  C_24
REMARK    5  A    between atoms: N_22  and  S_30
REMARK    6  A    between atoms: S_30  and  N_33
REMARK                            x       y       z     vdW  Elec       q    Type
REMARK                         _______ _______ _______ _____ _____    ______ ____
ROOT
ATOM      1  O   UNL     1      32.760 -19.552 -20.263  0.00  0.00    -0.421 OA
ATOM      2  O   UNL     1      31.601 -21.071 -19.038  0.00  0.00    -0.245 OA
ATOM      3  C   UNL     1      33.962 -21.378 -19.139  0.00  0.00    +0.054 A 
ATOM      4  C   UNL     1      35.140 -20.952 -19.640  0.00  0.00    -0.016 A 
ATOM      5  C   UNL     1      35.177 -19.736 -20.477  0.00  0.00    +0.031 A 
ATOM      6  C   UNL     1      33.983 -19.079 -20.762  0.00  0.00    +0.151 A 
ATOM      7  C   UNL     1      32.684 -20.676 -19.457  0.00  0.00    +0.342 A 
ATOM      8  C   UNL     1      36.453 -21.660 -19.409  0.00  0.00    +0.031 C 
ATOM      9  C   UNL     1      36.352 -19.183 -21.008  0.00  0.00    +0.006 C 
ATOM     10  C   UNL     1      33.928 -17.923 -21.545  0.00  0.00    +0.076 C 
ATOM     11  C   UNL     1      35.105 -17.395 -22.064  0.00  0.00    +0.162 C 
ATOM     12  C   UNL     1      36.317 -18.024 -21.795  0.00  0.00    +0.039 C 
ENDROOT
BRANCH  11  13
ATOM     13  O   UNL     1      35.073 -16.272 -22.829  0.00  0.00    -0.392 OA
BRANCH  13  16
ATOM     14  N   UNL     1      33.656 -14.498 -23.327  0.00  0.00    -0.185 NA
ATOM     15  N   UNL     1      34.280 -14.999 -21.054  0.00  0.00    -0.162 NA
ATOM     16  C   UNL     1      34.303 -15.209 -22.384  0.00  0.00    +0.196 C 
ATOM     17  C   UNL     1      32.916 -13.472 -22.860  0.00  0.00    +0.167 C 
ATOM     18  C   UNL     1      33.521 -13.957 -20.656  0.00  0.00    +0.110 C 
ATOM     19  C   UNL     1      32.810 -13.151 -21.521  0.00  0.00    +0.022 C 
ENDBRANCH  13  16
ENDBRANCH  11  13
BRANCH   3  20
ATOM     20  C   UNL     1      33.792 -22.562 -18.221  0.00  0.00    +0.061 C 
BRANCH  20  24
ATOM     21  F   UNL     1      32.688 -23.327 -15.719  0.00  0.00    -0.202 F 
ATOM     22  N   UNL     1      34.038 -22.966 -13.301  0.00  0.00    -0.187 N 
ATOM     23  N   UNL     1      35.842 -22.018 -14.487  0.00  0.00    -0.226 NA
ATOM     24  C   UNL     1      34.506 -22.372 -16.916  0.00  0.00    +0.014 C 
ATOM     25  C   UNL     1      33.907 -22.771 -15.725  0.00  0.00    +0.169 C 
ATOM     26  C   UNL     1      35.772 -21.798 -16.893  0.00  0.00    +0.019 C 
ATOM     27  C   UNL     1      34.610 -22.573 -14.548  0.00  0.00    +0.175 C 
ATOM     28  C   UNL     1      36.392 -21.644 -15.663  0.00  0.00    +0.100 C 
ATOM     29  H   UNL     1      33.089 -22.794 -13.098  0.00  0.00    +0.176 HD
BRANCH  22  30
ATOM     30  S   UNL     1      35.072 -23.755 -12.158  0.00  0.00    +0.111 S 
ATOM     31  O   UNL     1      36.021 -22.777 -11.659  0.00  0.00    -0.138 OA
ATOM     32  O   UNL     1      34.270 -24.522 -11.224  0.00  0.00    -0.138 OA
BRANCH  30  33
ATOM     33  N   UNL     1      35.918 -24.866 -13.168  0.00  0.00    -0.165 NA
ATOM     34  C   UNL     1      36.901 -25.766 -12.526  0.00  0.00    +0.112 C 
ATOM     35  H   UNL     1      36.418 -24.319 -13.870  0.00  0.00    +0.150 HD
ENDBRANCH  30  33
ENDBRANCH  22  30
ENDBRANCH  20  24
ENDBRANCH   3  20
TORSDOF 6
ENDMDL
MODEL 4
REMARK VINA RESULT:     -12.0      4.400     10.592
REMARK  Name = 16719221
REMARK  6 active torsions:
REMARK  status: ('A' for Active; 'I' for Inactive)
REMARK    1  A    between atoms: C_3  and  C_20
REMARK    2  A    between atoms: C_11  and  O_13
REMARK    3  A    between atoms: O_13  and  C_16
REMARK    4  A    between atoms: C_20  and  C_24
REMARK    5  A    between atoms: N_22  and  S_30
REMARK    6  A    between atoms: S_30  and  N_33
REMARK                            x       y       z     vdW  Elec       q    Type
REMARK                         _______ _______ _______ _____ _____    ______ ____
ROOT
ATOM      1  O   UNL     1      33.578 -15.999 -24.670  0.00  0.00    -0.421 OA
ATOM      2  O   UNL     1      32.913 -14.398 -26.134  0.00  0.00    -0.245 OA
ATOM      3  C   UNL     1      33.452 -13.657 -23.934  0.00  0.00    +0.054 A 
ATOM      4  C   UNL     1      33.833 -13.996 -22.685  0.00  0.00    -0.016 A 
ATOM      5  C   UNL     1      34.149 -15.406 -22.380  0.00  0.00    +0.031 A 
ATOM      6  C   UNL     1      34.008 -16.360 -23.384  0.00  0.00    +0.151 A 
ATOM      7  C   UNL     1      33.292 -14.686 -25.003  0.00  0.00    +0.342 A 
ATOM      8  C   UNL     1      33.945 -13.011 -21.547  0.00  0.00    +0.031 C 
ATOM      9  C   UNL     1      34.597 -15.858 -21.128  0.00  0.00    +0.006 C 
ATOM     10  C   UNL     1      34.286 -17.714 -23.180  0.00  0.00    +0.076 C 
ATOM     11  C   UNL     1      34.724 -18.139 -21.931  0.00  0.00    +0.162 C 
ATOM     12  C   UNL     1      34.881 -17.211 -20.906  0.00  0.00    +0.039 C 
ENDROOT
BRANCH  11  13
ATOM     13  O   UNL     1      34.999 -19.452 -21.712  0.00  0.00    -0.392 OA
BRANCH  13  16
ATOM     14  N   UNL     1      32.972 -19.864 -20.652  0.00  0.00    -0.185 NA
ATOM     15  N   UNL     1      35.011 -20.902 -19.896  0.00  0.00    -0.162 NA
ATOM     16  C   UNL     1      34.297 -20.101 -20.709  0.00  0.00    +0.196 C 
ATOM     17  C   UNL     1      32.319 -20.511 -19.664  0.00  0.00    +0.167 C 
ATOM     18  C   UNL     1      34.296 -21.517 -18.931  0.00  0.00    +0.110 C 
ATOM     19  C   UNL     1      32.936 -21.359 -18.765  0.00  0.00    +0.022 C 
ENDBRANCH  13  16
ENDBRANCH  11  13
BRANCH   3  20
ATOM     20  C   UNL     1      33.163 -12.251 -24.396  0.00  0.00    +0.061 C 
BRANCH  20  24
ATOM     21  F   UNL     1      33.920  -9.594 -23.739  0.00  0.00    -0.202 F 
ATOM     22  N   UNL     1      32.623  -8.100 -21.767  0.00  0.00    -0.187 N 
ATOM     23  N   UNL     1      31.190  -9.929 -21.370  0.00  0.00    -0.226 NA
ATOM     24  C   UNL     1      32.476 -11.439 -23.339  0.00  0.00    +0.014 C 
ATOM     25  C   UNL     1      32.897 -10.141 -23.067  0.00  0.00    +0.169 C 
ATOM     26  C   UNL     1      31.412 -11.982 -22.627  0.00  0.00    +0.019 C 
ATOM     27  C   UNL     1      32.228  -9.435 -22.082  0.00  0.00    +0.175 C 
ATOM     28  C   UNL     1      30.808 -11.193 -21.661  0.00  0.00    +0.100 C 
ATOM     29  H   UNL     1      33.573  -7.852 -21.699  0.00  0.00    +0.176 HD
BRANCH  22  30
ATOM     30  S   UNL     1      31.369  -6.933 -21.511  0.00  0.00    +0.111 S 
ATOM     31  O   UNL     1      30.368  -7.113 -22.546  0.00  0.00    -0.138 OA
ATOM     32  O   UNL     1      30.972  -6.943 -20.115  0.00  0.00    -0.138 OA
BRANCH  30  33
ATOM     33  N   UNL     1      32.204  -5.457 -21.815  0.00  0.00    -0.165 NA
ATOM     34  C   UNL     1      33.042  -5.380 -23.032  0.00  0.00    +0.112 C 
ATOM     35  H   UNL     1      32.812  -5.281 -21.015  0.00  0.00    +0.150 HD
ENDBRANCH  30  33
ENDBRANCH  22  30
ENDBRANCH  20  24
ENDBRANCH   3  20
TORSDOF 6
ENDMDL
MODEL 5
REMARK VINA RESULT:     -12.0      3.212      9.791
REMARK  Name = 16719221
REMARK  6 active torsions:
REMARK  status: ('A' for Active; 'I' for Inactive)
REMARK    1  A    between atoms: C_3  and  C_20
REMARK    2  A    between atoms: C_11  and  O_13
REMARK    3  A    between atoms: O_13  and  C_16
REMARK    4  A    between atoms: C_20  and  C_24
REMARK    5  A    between atoms: N_22  and  S_30
REMARK    6  A    between atoms: S_30  and  N_33
REMARK                            x       y       z     vdW  Elec       q    Type
REMARK                         _______ _______ _______ _____ _____    ______ ____
ROOT
ATOM      1  O   UNL     1      36.450 -19.635 -19.788  0.00  0.00    -0.421 OA
ATOM      2  O   UNL     1      37.313 -18.055 -21.170  0.00  0.00    -0.245 OA
ATOM      3  C   UNL     1      35.016 -18.600 -21.496  0.00  0.00    +0.054 A 
ATOM      4  C   UNL     1      33.970 -19.369 -21.128  0.00  0.00    -0.016 A 
ATOM      5  C   UNL     1      34.123 -20.314 -20.003  0.00  0.00    +0.031 A 
ATOM      6  C   UNL     1      35.360 -20.415 -19.373  0.00  0.00    +0.151 A 
ATOM      7  C   UNL     1      36.343 -18.722 -20.824  0.00  0.00    +0.342 A 
ATOM      8  C   UNL     1      32.627 -19.339 -21.815  0.00  0.00    +0.031 C 
ATOM      9  C   UNL     1      33.088 -21.124 -19.511  0.00  0.00    +0.006 C 
ATOM     10  C   UNL     1      35.591 -21.283 -18.302  0.00  0.00    +0.076 C 
ATOM     11  C   UNL     1      34.552 -22.080 -17.835  0.00  0.00    +0.162 C 
ATOM     12  C   UNL     1      33.300 -22.000 -18.438  0.00  0.00    +0.039 C 
ENDROOT
BRANCH  11  13
ATOM     13  O   UNL     1      34.755 -22.931 -16.795  0.00  0.00    -0.392 OA
BRANCH  13  16
ATOM     14  N   UNL     1      32.494 -22.891 -16.263  0.00  0.00    -0.185 NA
ATOM     15  N   UNL     1      34.170 -23.241 -14.568  0.00  0.00    -0.162 NA
ATOM     16  C   UNL     1      33.763 -23.024 -15.833  0.00  0.00    +0.196 C 
ATOM     17  C   UNL     1      31.553 -22.987 -15.301  0.00  0.00    +0.167 C 
ATOM     18  C   UNL     1      33.178 -23.326 -13.657  0.00  0.00    +0.110 C 
ATOM     19  C   UNL     1      31.839 -23.207 -13.968  0.00  0.00    +0.022 C 
ENDBRANCH  13  16
ENDBRANCH  11  13
BRANCH   3  20
ATOM     20  C   UNL     1      34.978 -17.553 -22.580  0.00  0.00    +0.061 C 
BRANCH  20  24
ATOM     21  F   UNL     1      34.653 -15.270 -24.237  0.00  0.00    -0.202 F 
ATOM     22  N   UNL     1      33.843 -12.788 -23.244  0.00  0.00    -0.187 N 
ATOM     23  N   UNL     1      33.737 -13.725 -21.083  0.00  0.00    -0.226 NA
ATOM     24  C   UNL     1      34.545 -16.215 -22.059  0.00  0.00    +0.014 C 
ATOM     25  C   UNL     1      34.405 -15.137 -22.927  0.00  0.00    +0.169 C 
ATOM     26  C   UNL     1      34.281 -16.049 -20.704  0.00  0.00    +0.019 C 
ATOM     27  C   UNL     1      34.003 -13.924 -22.394  0.00  0.00    +0.175 C 
ATOM     28  C   UNL     1      33.883 -14.795 -20.270  0.00  0.00    +0.100 C 
ATOM     29  H   UNL     1      34.498 -12.585 -23.951  0.00  0.00    +0.176 HD
BRANCH  22  30
ATOM     30  S   UNL     1      32.458 -11.782 -22.986  0.00  0.00    +0.111 S 
ATOM     31  O   UNL     1      32.695 -10.511 -23.646  0.00  0.00    -0.138 OA
ATOM     32  O   UNL     1      31.251 -12.532 -23.280  0.00  0.00    -0.138 OA
BRANCH  30  33
ATOM     33  N   UNL     1      32.526 -11.531 -21.283  0.00  0.00    -0.165 NA
ATOM     34  C   UNL     1      31.306 -11.026 -20.614  0.00  0.00    +0.112 C 
ATOM     35  H   UNL     1      33.272 -10.858 -21.104  0.00  0.00    +0.150 HD
ENDBRANCH  30  33
ENDBRANCH  22  30
ENDBRANCH  20  24
ENDBRANCH   3  20
TORSDOF 6
ENDMDL
MODEL 6
REMARK VINA RESULT:     -11.9      3.256     10.331
REMARK  Name = 16719221
REMARK  6 active torsions:
REMARK  status: ('A' for Active; 'I' for Inactive)
REMARK    1  A    between atoms: C_3  and  C_20
REMARK    2  A    between atoms: C_11  and  O_13
REMARK    3  A    between atoms: O_13  and  C_16
REMARK    4  A    between atoms: C_20  and  C_24
REMARK    5  A    between atoms: N_22  and  S_30
REMARK    6  A    between atoms: S_30  and  N_33
REMARK                            x       y       z     vdW  Elec       q    Type
REMARK                         _______ _______ _______ _____ _____    ______ ____
ROOT
ATOM      1  O   UNL     1      32.596 -20.853 -19.574  0.00  0.00    -0.421 OA
ATOM      2  O   UNL     1      31.768 -19.825 -21.420  0.00  0.00    -0.245 OA
ATOM      3  C   UNL     1      34.122 -19.664 -21.091  0.00  0.00    +0.054 A 
ATOM      4  C   UNL     1      35.180 -19.951 -20.303  0.00  0.00    -0.016 A 
ATOM      5  C   UNL     1      34.979 -20.767 -19.088  0.00  0.00    +0.031 A 
ATOM      6  C   UNL     1      33.692 -21.188 -18.765  0.00  0.00    +0.151 A 
ATOM      7  C   UNL     1      32.744 -20.107 -20.733  0.00  0.00    +0.342 A 
ATOM      8  C   UNL     1      36.584 -19.471 -20.578  0.00  0.00    +0.031 C 
ATOM      9  C   UNL     1      36.015 -21.161 -18.227  0.00  0.00    +0.006 C 
ATOM     10  C   UNL     1      33.414 -21.961 -17.635  0.00  0.00    +0.076 C 
ATOM     11  C   UNL     1      34.456 -22.336 -16.793  0.00  0.00    +0.162 C 
ATOM     12  C   UNL     1      35.756 -21.937 -17.089  0.00  0.00    +0.039 C 
ENDROOT
BRANCH  11  13
ATOM     13  O   UNL     1      34.207 -23.088 -15.688  0.00  0.00    -0.392 OA
BRANCH  13  16
ATOM     14  N   UNL     1      35.814 -22.722 -14.049  0.00  0.00    -0.185 NA
ATOM     15  N   UNL     1      35.716 -24.802 -15.261  0.00  0.00    -0.162 NA
ATOM     16  C   UNL     1      35.294 -23.558 -14.969  0.00  0.00    +0.196 C 
ATOM     17  C   UNL     1      36.870 -23.211 -13.367  0.00  0.00    +0.167 C 
ATOM     18  C   UNL     1      36.776 -25.227 -14.542  0.00  0.00    +0.110 C 
ATOM     19  C   UNL     1      37.399 -24.469 -13.573  0.00  0.00    +0.022 C 
ENDBRANCH  13  16
ENDBRANCH  11  13
BRANCH   3  20
ATOM     20  C   UNL     1      34.197 -18.899 -22.388  0.00  0.00    +0.061 C 
BRANCH  20  24
ATOM     21  F   UNL     1      34.095 -17.014 -24.510  0.00  0.00    -0.202 F 
ATOM     22  N   UNL     1      34.098 -14.255 -24.079  0.00  0.00    -0.187 N 
ATOM     23  N   UNL     1      34.201 -14.651 -21.757  0.00  0.00    -0.226 NA
ATOM     24  C   UNL     1      34.199 -17.415 -22.170  0.00  0.00    +0.014 C 
ATOM     25  C   UNL     1      34.147 -16.546 -23.255  0.00  0.00    +0.169 C 
ATOM     26  C   UNL     1      34.252 -16.902 -20.878  0.00  0.00    +0.019 C 
ATOM     27  C   UNL     1      34.151 -15.186 -22.998  0.00  0.00    +0.175 C 
ATOM     28  C   UNL     1      34.250 -15.525 -20.727  0.00  0.00    +0.100 C 
ATOM     29  H   UNL     1      34.630 -14.391 -24.896  0.00  0.00    +0.176 HD
BRANCH  22  30
ATOM     30  S   UNL     1      33.063 -12.878 -23.900  0.00  0.00    +0.111 S 
ATOM     31  O   UNL     1      33.855 -11.786 -23.364  0.00  0.00    -0.138 OA
ATOM     32  O   UNL     1      32.299 -12.682 -25.118  0.00  0.00    -0.138 OA
BRANCH  30  33
ATOM     33  N   UNL     1      31.980 -13.416 -22.674  0.00  0.00    -0.165 NA
ATOM     34  C   UNL     1      31.607 -12.452 -21.615  0.00  0.00    +0.112 C 
ATOM     35  H   UNL     1      32.414 -14.219 -22.216  0.00  0.00    +0.150 HD
ENDBRANCH  30  33
ENDBRANCH  22  30
ENDBRANCH  20  24
ENDBRANCH   3  20
TORSDOF 6
ENDMDL
MODEL 7
REMARK VINA RESULT:     -11.6      3.442      9.983
REMARK  Name = 16719221
REMARK  6 active torsions:
REMARK  status: ('A' for Active; 'I' for Inactive)
REMARK    1  A    between atoms: C_3  and  C_20
REMARK    2  A    between atoms: C_11  and  O_13
REMARK    3  A    between atoms: O_13  and  C_16
REMARK    4  A    between atoms: C_20  and  C_24
REMARK    5  A    between atoms: N_22  and  S_30
REMARK    6  A    between atoms: S_30  and  N_33
REMARK                            x       y       z     vdW  Elec       q    Type
REMARK                         _______ _______ _______ _____ _____    ______ ____
ROOT
ATOM      1  O   UNL     1      36.141 -20.000 -19.537  0.00  0.00    -0.421 OA
ATOM      2  O   UNL     1      37.273 -18.553 -20.870  0.00  0.00    -0.245 OA
ATOM      3  C   UNL     1      34.965 -18.866 -21.374  0.00  0.00    +0.054 A 
ATOM      4  C   UNL     1      33.817 -19.513 -21.081  0.00  0.00    -0.016 A 
ATOM      5  C   UNL     1      33.780 -20.440 -19.931  0.00  0.00    +0.031 A 
ATOM      6  C   UNL     1      34.946 -20.653 -19.200  0.00  0.00    +0.151 A 
ATOM      7  C   UNL     1      36.213 -19.107 -20.594  0.00  0.00    +0.342 A 
ATOM      8  C   UNL     1      32.544 -19.362 -21.875  0.00  0.00    +0.031 C 
ATOM      9  C   UNL     1      32.630 -21.127 -19.512  0.00  0.00    +0.006 C 
ATOM     10  C   UNL     1      34.998 -21.513 -18.099  0.00  0.00    +0.076 C 
ATOM     11  C   UNL     1      33.847 -22.186 -17.706  0.00  0.00    +0.162 C 
ATOM     12  C   UNL     1      32.663 -21.992 -18.411  0.00  0.00    +0.039 C 
ENDROOT
BRANCH  11  13
ATOM     13  O   UNL     1      33.876 -23.027 -16.639  0.00  0.00    -0.392 OA
BRANCH  13  16
ATOM     14  N   UNL     1      35.444 -24.292 -15.479  0.00  0.00    -0.185 NA
ATOM     15  N   UNL     1      35.642 -21.895 -15.639  0.00  0.00    -0.162 NA
ATOM     16  C   UNL     1      35.038 -23.073 -15.885  0.00  0.00    +0.196 C 
ATOM     17  C   UNL     1      36.578 -24.300 -14.748  0.00  0.00    +0.167 C 
ATOM     18  C   UNL     1      36.770 -21.977 -14.903  0.00  0.00    +0.110 C 
ATOM     19  C   UNL     1      37.291 -23.162 -14.426  0.00  0.00    +0.022 C 
ENDBRANCH  13  16
ENDBRANCH  11  13
BRANCH   3  20
ATOM     20  C   UNL     1      35.123 -17.848 -22.475  0.00  0.00    +0.061 C 
BRANCH  20  24
ATOM     21  F   UNL     1      34.876 -15.666 -24.275  0.00  0.00    -0.202 F 
ATOM     22  N   UNL     1      34.016 -13.134 -23.469  0.00  0.00    -0.187 N 
ATOM     23  N   UNL     1      33.806 -13.944 -21.264  0.00  0.00    -0.226 NA
ATOM     24  C   UNL     1      34.664 -16.484 -22.054  0.00  0.00    +0.014 C 
ATOM     25  C   UNL     1      34.564 -15.458 -22.988  0.00  0.00    +0.169 C 
ATOM     26  C   UNL     1      34.334 -16.240 -20.725  0.00  0.00    +0.019 C 
ATOM     27  C   UNL     1      34.135 -14.218 -22.547  0.00  0.00    +0.175 C 
ATOM     28  C   UNL     1      33.914 -14.965 -20.385  0.00  0.00    +0.100 C 
ATOM     29  H   UNL     1      34.704 -12.969 -24.154  0.00  0.00    +0.176 HD
BRANCH  22  30
ATOM     30  S   UNL     1      32.618 -12.121 -23.337  0.00  0.00    +0.111 S 
ATOM     31  O   UNL     1      31.798 -12.623 -22.250  0.00  0.00    -0.138 OA
ATOM     32  O   UNL     1      33.024 -10.728 -23.349  0.00  0.00    -0.138 OA
BRANCH  30  33
ATOM     33  N   UNL     1      31.811 -12.451 -24.823  0.00  0.00    -0.165 NA
ATOM     34  C   UNL     1      32.632 -12.917 -25.962  0.00  0.00    +0.112 C 
ATOM     35  H   UNL     1      31.345 -11.592 -25.114  0.00  0.00    +0.150 HD
ENDBRANCH  30  33
ENDBRANCH  22  30
ENDBRANCH  20  24
ENDBRANCH   3  20
TORSDOF 6
ENDMDL
MODEL 8
REMARK VINA RESULT:     -11.6      2.281      3.678
REMARK  Name = 16719221
REMARK  6 active torsions:
REMARK  status: ('A' for Active; 'I' for Inactive)
REMARK    1  A    between atoms: C_3  and  C_20
REMARK    2  A    between atoms: C_11  and  O_13
REMARK    3  A    between atoms: O_13  and  C_16
REMARK    4  A    between atoms: C_20  and  C_24
REMARK    5  A    between atoms: N_22  and  S_30
REMARK    6  A    between atoms: S_30  and  N_33
REMARK                            x       y       z     vdW  Elec       q    Type
REMARK                         _______ _______ _______ _____ _____    ______ ____
ROOT
ATOM      1  O   UNL     1      32.796 -14.118 -24.204  0.00  0.00    -0.421 OA
ATOM      2  O   UNL     1      33.667 -15.727 -25.546  0.00  0.00    -0.245 OA
ATOM      3  C   UNL     1      34.082 -15.962 -23.211  0.00  0.00    +0.054 A 
ATOM      4  C   UNL     1      33.933 -15.442 -21.975  0.00  0.00    -0.016 A 
ATOM      5  C   UNL     1      33.144 -14.206 -21.798  0.00  0.00    +0.031 A 
ATOM      6  C   UNL     1      32.604 -13.585 -22.921  0.00  0.00    +0.151 A 
ATOM      7  C   UNL     1      33.511 -15.286 -24.412  0.00  0.00    +0.342 A 
ATOM      8  C   UNL     1      34.546 -16.043 -20.734  0.00  0.00    +0.031 C 
ATOM      9  C   UNL     1      32.890 -13.608 -20.553  0.00  0.00    +0.006 C 
ATOM     10  C   UNL     1      31.846 -12.414 -22.842  0.00  0.00    +0.076 C 
ATOM     11  C   UNL     1      31.611 -11.837 -21.599  0.00  0.00    +0.162 C 
ATOM     12  C   UNL     1      32.132 -12.434 -20.455  0.00  0.00    +0.039 C 
ENDROOT
BRANCH  11  13
ATOM     13  O   UNL     1      30.877 -10.697 -21.500  0.00  0.00    -0.392 OA
BRANCH  13  16
ATOM     14  N   UNL     1      32.177  -9.334 -22.861  0.00  0.00    -0.185 NA
ATOM     15  N   UNL     1      31.446  -8.597 -20.687  0.00  0.00    -0.162 NA
ATOM     16  C   UNL     1      31.529  -9.490 -21.691  0.00  0.00    +0.196 C 
ATOM     17  C   UNL     1      32.800  -8.147 -23.014  0.00  0.00    +0.167 C 
ATOM     18  C   UNL     1      32.092  -7.433 -20.905  0.00  0.00    +0.110 C 
ATOM     19  C   UNL     1      32.792  -7.149 -22.060  0.00  0.00    +0.022 C 
ENDBRANCH  13  16
ENDBRANCH  11  13
BRANCH   3  20
ATOM     20  C   UNL     1      34.805 -17.248 -23.524  0.00  0.00    +0.061 C 
BRANCH  20  24
ATOM     21  F   UNL     1      32.909 -18.912 -22.221  0.00  0.00    -0.202 F 
ATOM     22  N   UNL     1      33.515 -20.374 -19.919  0.00  0.00    -0.187 N 
ATOM     23  N   UNL     1      35.706 -19.505 -19.984  0.00  0.00    -0.226 NA
ATOM     24  C   UNL     1      35.117 -18.037 -22.287  0.00  0.00    +0.014 C 
ATOM     25  C   UNL     1      34.141 -18.834 -21.699  0.00  0.00    +0.169 C 
ATOM     26  C   UNL     1      36.387 -17.974 -21.725  0.00  0.00    +0.019 C 
ATOM     27  C   UNL     1      34.482 -19.541 -20.558  0.00  0.00    +0.175 C 
ATOM     28  C   UNL     1      36.629 -18.721 -20.583  0.00  0.00    +0.100 C 
ATOM     29  H   UNL     1      32.584 -20.076 -19.800  0.00  0.00    +0.176 HD
BRANCH  22  30
ATOM     30  S   UNL     1      34.039 -21.927 -19.360  0.00  0.00    +0.111 S 
ATOM     31  O   UNL     1      32.877 -22.642 -18.864  0.00  0.00    -0.138 OA
ATOM     32  O   UNL     1      34.891 -22.542 -20.359  0.00  0.00    -0.138 OA
BRANCH  30  33
ATOM     33  N   UNL     1      35.024 -21.494 -18.014  0.00  0.00    -0.165 NA
ATOM     34  C   UNL     1      34.748 -22.156 -16.720  0.00  0.00    +0.112 C 
ATOM     35  H   UNL     1      34.920 -20.489 -17.871  0.00  0.00    +0.150 HD
ENDBRANCH  30  33
ENDBRANCH  22  30
ENDBRANCH  20  24
ENDBRANCH   3  20
TORSDOF 6
ENDMDL
MODEL 9
REMARK VINA RESULT:     -11.5      3.552      9.859
REMARK  Name = 16719221
REMARK  6 active torsions:
REMARK  status: ('A' for Active; 'I' for Inactive)
REMARK    1  A    between atoms: C_3  and  C_20
REMARK    2  A    between atoms: C_11  and  O_13
REMARK    3  A    between atoms: O_13  and  C_16
REMARK    4  A    between atoms: C_20  and  C_24
REMARK    5  A    between atoms: N_22  and  S_30
REMARK    6  A    between atoms: S_30  and  N_33
REMARK                            x       y       z     vdW  Elec       q    Type
REMARK                         _______ _______ _______ _____ _____    ______ ____
ROOT
ATOM      1  O   UNL     1      32.696 -20.612 -20.298  0.00  0.00    -0.421 OA
ATOM      2  O   UNL     1      32.201 -19.405 -22.156  0.00  0.00    -0.245 OA
ATOM      3  C   UNL     1      34.454 -19.284 -21.390  0.00  0.00    +0.054 A 
ATOM      4  C   UNL     1      35.355 -19.650 -20.454  0.00  0.00    -0.016 A 
ATOM      5  C   UNL     1      34.950 -20.581 -19.380  0.00  0.00    +0.031 A 
ATOM      6  C   UNL     1      33.632 -21.028 -19.339  0.00  0.00    +0.151 A 
ATOM      7  C   UNL     1      33.040 -19.757 -21.333  0.00  0.00    +0.342 A 
ATOM      8  C   UNL     1      36.778 -19.150 -20.421  0.00  0.00    +0.031 C 
ATOM      9  C   UNL     1      35.818 -21.061 -18.388  0.00  0.00    +0.006 C 
ATOM     10  C   UNL     1      33.165 -21.908 -18.359  0.00  0.00    +0.076 C 
ATOM     11  C   UNL     1      34.043 -22.366 -17.382  0.00  0.00    +0.162 C 
ATOM     12  C   UNL     1      35.369 -21.944 -17.397  0.00  0.00    +0.039 C 
ENDROOT
BRANCH  11  13
ATOM     13  O   UNL     1      33.609 -23.222 -16.419  0.00  0.00    -0.392 OA
BRANCH  13  16
ATOM     14  N   UNL     1      31.311 -22.896 -16.538  0.00  0.00    -0.185 NA
ATOM     15  N   UNL     1      32.497 -22.684 -14.451  0.00  0.00    -0.162 NA
ATOM     16  C   UNL     1      32.420 -22.920 -15.775  0.00  0.00    +0.196 C 
ATOM     17  C   UNL     1      30.172 -22.600 -15.878  0.00  0.00    +0.167 C 
ATOM     18  C   UNL     1      31.322 -22.393 -13.856  0.00  0.00    +0.110 C 
ATOM     19  C   UNL     1      30.117 -22.336 -14.524  0.00  0.00    +0.022 C 
ENDBRANCH  13  16
ENDBRANCH  11  13
BRANCH   3  20
ATOM     20  C   UNL     1      34.751 -18.396 -22.571  0.00  0.00    +0.061 C 
BRANCH  20  24
ATOM     21  F   UNL     1      34.466 -16.416 -24.587  0.00  0.00    -0.202 F 
ATOM     22  N   UNL     1      33.976 -13.729 -24.004  0.00  0.00    -0.187 N 
ATOM     23  N   UNL     1      33.999 -14.257 -21.706  0.00  0.00    -0.226 NA
ATOM     24  C   UNL     1      34.489 -16.950 -22.271  0.00  0.00    +0.014 C 
ATOM     25  C   UNL     1      34.359 -16.031 -23.307  0.00  0.00    +0.169 C 
ATOM     26  C   UNL     1      34.374 -16.523 -20.953  0.00  0.00    +0.019 C 
ATOM     27  C   UNL     1      34.118 -14.709 -22.975  0.00  0.00    +0.175 C 
ATOM     28  C   UNL     1      34.131 -15.178 -20.726  0.00  0.00    +0.100 C 
ATOM     29  H   UNL     1      34.573 -13.721 -24.787  0.00  0.00    +0.176 HD
BRANCH  22  30
ATOM     30  S   UNL     1      32.715 -12.556 -23.825  0.00  0.00    +0.111 S 
ATOM     31  O   UNL     1      32.234 -12.206 -25.148  0.00  0.00    -0.138 OA
ATOM     32  O   UNL     1      31.775 -13.002 -22.812  0.00  0.00    -0.138 OA
BRANCH  30  33
ATOM     33  N   UNL     1      33.583 -11.211 -23.189  0.00  0.00    -0.165 NA
ATOM     34  C   UNL     1      32.888  -9.905 -23.142  0.00  0.00    +0.112 C 
ATOM     35  H   UNL     1      34.419 -11.090 -23.760  0.00  0.00    +0.150 HD
ENDBRANCH  30  33
ENDBRANCH  22  30
ENDBRANCH  20  24
ENDBRANCH   3  20
TORSDOF 6
ENDMDL
