MODEL 1
REMARK VINA RESULT:     -11.8      0.000      0.000
REMARK  Name = 1723
REMARK  9 active torsions:
REMARK  status: ('A' for Active; 'I' for Inactive)
REMARK    1  A    between atoms: S_1  and  C_2
REMARK    2  A    between atoms: S_1  and  C_18
REMARK    3  A    between atoms: C_2  and  C_5
REMARK    4  A    between atoms: C_6  and  N_15
REMARK    5  A    between atoms: C_18  and  C_20
REMARK    6  A    between atoms: C_19  and  C_25
REMARK    7  A    between atoms: C_25  and  C_29
REMARK    8  A    between atoms: C_25  and  O_30
REMARK    9  A    between atoms: C_25  and  O_32
REMARK                            x       y       z     vdW  Elec       q    Type
REMARK                         _______ _______ _______ _____ _____    ______ ____
ROOT
ATOM      1  S   UNL     1      33.519 -22.841 -16.838  0.00  0.00    -0.131 S 
ENDROOT
BRANCH   1   2
ATOM      2  C   UNL     1      34.463 -22.101 -15.471  0.00  0.00    +0.087 C 
BRANCH   2   5
ATOM      3  F   UNL     1      36.380 -26.507 -13.475  0.00  0.00    -0.208 F 
ATOM      4  N   UNL     1      38.196 -22.601 -15.613  0.00  0.00    -0.410 NA
ATOM      5  C   UNL     1      35.806 -22.730 -15.299  0.00  0.00    +0.024 C 
ATOM      6  C   UNL     1      35.954 -23.970 -14.695  0.00  0.00    +0.030 C 
ATOM      7  C   UNL     1      37.229 -24.534 -14.548  0.00  0.00    +0.137 C 
ATOM      8  C   UNL     1      36.949 -22.091 -15.736  0.00  0.00    +0.107 C 
ATOM      9  C   UNL     1      38.337 -23.805 -15.027  0.00  0.00    +0.120 C 
ATOM     10  C   UNL     1      37.412 -25.789 -13.941  0.00  0.00    +0.129 C 
ATOM     11  C   UNL     1      36.863 -20.753 -16.395  0.00  0.00    +0.066 C 
ATOM     12  C   UNL     1      39.603 -24.366 -14.880  0.00  0.00    +0.028 C 
ATOM     13  C   UNL     1      38.690 -26.325 -13.807  0.00  0.00    +0.026 C 
ATOM     14  C   UNL     1      39.786 -25.613 -14.277  0.00  0.00    +0.004 C 
BRANCH   6  15
ATOM     15  N   UNL     1      34.790 -24.638 -14.240  0.00  0.00    -0.360 N 
ATOM     16  H   UNL     1      34.577 -24.656 -13.279  0.00  0.00    +0.142 HD
ATOM     17  H   UNL     1      34.193 -25.082 -14.885  0.00  0.00    +0.142 HD
ENDBRANCH   6  15
ENDBRANCH   2   5
ENDBRANCH   1   2
BRANCH   1  18
ATOM     18  C   UNL     1      34.660 -22.449 -18.183  0.00  0.00    +0.084 C 
BRANCH  18  20
ATOM     19  C   UNL     1      34.532 -19.365 -20.370  0.00  0.00    +0.036 C 
ATOM     20  C   UNL     1      34.139 -21.347 -19.065  0.00  0.00    -0.011 C 
ATOM     21  C   UNL     1      35.016 -20.386 -19.552  0.00  0.00    -0.003 C 
ATOM     22  C   UNL     1      33.177 -19.313 -20.694  0.00  0.00    +0.001 C 
ATOM     23  C   UNL     1      32.787 -21.305 -19.382  0.00  0.00    -0.003 C 
ATOM     24  C   UNL     1      32.305 -20.284 -20.201  0.00  0.00    -0.000 C 
BRANCH  19  25
ATOM     25  C   UNL     1      35.466 -18.327 -20.899  0.00  0.00    +0.291 C 
BRANCH  25  29
ATOM     26  F   UNL     1      34.916 -19.453 -22.939  0.00  0.00    -0.165 F 
ATOM     27  F   UNL     1      35.048 -17.278 -22.997  0.00  0.00    -0.165 F 
ATOM     28  F   UNL     1      36.863 -18.479 -22.825  0.00  0.00    -0.165 F 
ATOM     29  C   UNL     1      35.574 -18.385 -22.429  0.00  0.00    +0.449 C 
ENDBRANCH  25  29
BRANCH  25  30
ATOM     30  O   UNL     1      36.781 -18.504 -20.344  0.00  0.00    -0.355 OA
ATOM     31  H   UNL     1      36.874 -19.411 -20.013  0.00  0.00    +0.213 HD
ENDBRANCH  25  30
BRANCH  25  32
ATOM     32  O   UNL     1      35.020 -17.012 -20.525  0.00  0.00    -0.355 OA
ATOM     33  H   UNL     1      35.782 -16.414 -20.475  0.00  0.00    +0.213 HD
ENDBRANCH  25  32
ENDBRANCH  19  25
ENDBRANCH  18  20
ENDBRANCH   1  18
TORSDOF 9
ENDMDL
MODEL 2
REMARK VINA RESULT:     -11.6      9.267     13.893
REMARK  Name = 1723
REMARK  9 active torsions:
REMARK  status: ('A' for Active; 'I' for Inactive)
REMARK    1  A    between atoms: S_1  and  C_2
REMARK    2  A    between atoms: S_1  and  C_18
REMARK    3  A    between atoms: C_2  and  C_5
REMARK    4  A    between atoms: C_6  and  N_15
REMARK    5  A    between atoms: C_18  and  C_20
REMARK    6  A    between atoms: C_19  and  C_25
REMARK    7  A    between atoms: C_25  and  C_29
REMARK    8  A    between atoms: C_25  and  O_30
REMARK    9  A    between atoms: C_25  and  O_32
REMARK                            x       y       z     vdW  Elec       q    Type
REMARK                         _______ _______ _______ _____ _____    ______ ____
ROOT
ATOM      1  S   UNL     1      32.662 -11.631 -22.503  0.00  0.00    -0.131 S 
ENDROOT
BRANCH   1   2
ATOM      2  C   UNL     1      31.278 -11.010 -21.502  0.00  0.00    +0.087 C 
BRANCH   2   5
ATOM      3  F   UNL     1      31.525  -6.578 -24.217  0.00  0.00    -0.208 F 
ATOM      4  N   UNL     1      31.578  -7.791 -19.564  0.00  0.00    -0.410 NA
ATOM      5  C   UNL     1      31.395  -9.552 -21.206  0.00  0.00    +0.024 C 
ATOM      6  C   UNL     1      31.435  -8.606 -22.221  0.00  0.00    +0.030 C 
ATOM      7  C   UNL     1      31.546  -7.244 -21.911  0.00  0.00    +0.137 C 
ATOM      8  C   UNL     1      31.470  -9.096 -19.905  0.00  0.00    +0.107 C 
ATOM      9  C   UNL     1      31.615  -6.876 -20.551  0.00  0.00    +0.120 C 
ATOM     10  C   UNL     1      31.589  -6.262 -22.915  0.00  0.00    +0.129 C 
ATOM     11  C   UNL     1      31.433 -10.058 -18.763  0.00  0.00    +0.066 C 
ATOM     12  C   UNL     1      31.726  -5.522 -20.244  0.00  0.00    +0.028 C 
ATOM     13  C   UNL     1      31.700  -4.916 -22.579  0.00  0.00    +0.026 C 
ATOM     14  C   UNL     1      31.768  -4.546 -21.242  0.00  0.00    +0.004 C 
BRANCH   6  15
ATOM     15  N   UNL     1      31.360  -9.058 -23.561  0.00  0.00    -0.360 N 
ATOM     16  H   UNL     1      30.805  -8.574 -24.214  0.00  0.00    +0.142 HD
ATOM     17  H   UNL     1      31.864  -9.857 -23.840  0.00  0.00    +0.142 HD
ENDBRANCH   6  15
ENDBRANCH   2   5
ENDBRANCH   1   2
BRANCH   1  18
ATOM     18  C   UNL     1      33.093 -13.065 -21.492  0.00  0.00    +0.084 C 
BRANCH  18  20
ATOM     19  C   UNL     1      34.565 -16.398 -22.505  0.00  0.00    +0.036 C 
ATOM     20  C   UNL     1      33.512 -14.243 -22.327  0.00  0.00    -0.011 C 
ATOM     21  C   UNL     1      34.177 -15.306 -21.729  0.00  0.00    -0.003 C 
ATOM     22  C   UNL     1      34.286 -16.418 -23.871  0.00  0.00    +0.001 C 
ATOM     23  C   UNL     1      33.230 -14.253 -23.687  0.00  0.00    -0.003 C 
ATOM     24  C   UNL     1      33.618 -15.346 -24.462  0.00  0.00    -0.000 C 
BRANCH  19  25
ATOM     25  C   UNL     1      35.279 -17.546 -21.872  0.00  0.00    +0.291 C 
BRANCH  25  29
ATOM     26  F   UNL     1      34.865 -19.406 -23.320  0.00  0.00    -0.165 F 
ATOM     27  F   UNL     1      34.873 -19.788 -21.175  0.00  0.00    -0.165 F 
ATOM     28  F   UNL     1      33.209 -18.709 -22.088  0.00  0.00    -0.165 F 
ATOM     29  C   UNL     1      34.550 -18.875 -22.116  0.00  0.00    +0.449 C 
ENDBRANCH  25  29
BRANCH  25  30
ATOM     30  O   UNL     1      35.395 -17.346 -20.452  0.00  0.00    -0.355 OA
ATOM     31  H   UNL     1      34.776 -16.654 -20.172  0.00  0.00    +0.213 HD
ENDBRANCH  25  30
BRANCH  25  32
ATOM     32  O   UNL     1      36.614 -17.659 -22.396  0.00  0.00    -0.355 OA
ATOM     33  H   UNL     1      36.763 -18.564 -22.710  0.00  0.00    +0.213 HD
ENDBRANCH  25  32
ENDBRANCH  19  25
ENDBRANCH  18  20
ENDBRANCH   1  18
TORSDOF 9
ENDMDL
MODEL 3
REMARK VINA RESULT:     -11.4      4.637      9.830
REMARK  Name = 1723
REMARK  9 active torsions:
REMARK  status: ('A' for Active; 'I' for Inactive)
REMARK    1  A    between atoms: S_1  and  C_2
REMARK    2  A    between atoms: S_1  and  C_18
REMARK    3  A    between atoms: C_2  and  C_5
REMARK    4  A    between atoms: C_6  and  N_15
REMARK    5  A    between atoms: C_18  and  C_20
REMARK    6  A    between atoms: C_19  and  C_25
REMARK    7  A    between atoms: C_25  and  C_29
REMARK    8  A    between atoms: C_25  and  O_30
REMARK    9  A    between atoms: C_25  and  O_32
REMARK                            x       y       z     vdW  Elec       q    Type
REMARK                         _______ _______ _______ _____ _____    ______ ____
ROOT
ATOM      1  S   UNL     1      33.838 -19.666 -20.686  0.00  0.00    -0.131 S 
ENDROOT
BRANCH   1   2
ATOM      2  C   UNL     1      34.905 -19.159 -22.069  0.00  0.00    +0.087 C 
BRANCH   2   5
ATOM      3  F   UNL     1      34.364 -14.130 -20.848  0.00  0.00    -0.208 F 
ATOM      4  N   UNL     1      33.500 -16.865 -24.708  0.00  0.00    -0.410 NA
ATOM      5  C   UNL     1      34.420 -17.918 -22.740  0.00  0.00    +0.024 C 
ATOM      6  C   UNL     1      34.417 -16.693 -22.087  0.00  0.00    +0.030 C 
ATOM      7  C   UNL     1      33.954 -15.545 -22.744  0.00  0.00    +0.137 C 
ATOM      8  C   UNL     1      33.954 -17.949 -24.039  0.00  0.00    +0.107 C 
ATOM      9  C   UNL     1      33.499 -15.678 -24.072  0.00  0.00    +0.120 C 
ATOM     10  C   UNL     1      33.938 -14.291 -22.110  0.00  0.00    +0.129 C 
ATOM     11  C   UNL     1      33.929 -19.233 -24.802  0.00  0.00    +0.066 C 
ATOM     12  C   UNL     1      33.039 -14.537 -24.724  0.00  0.00    +0.028 C 
ATOM     13  C   UNL     1      33.473 -13.167 -22.786  0.00  0.00    +0.026 C 
ATOM     14  C   UNL     1      33.024 -13.290 -24.094  0.00  0.00    +0.004 C 
BRANCH   6  15
ATOM     15  N   UNL     1      34.891 -16.645 -20.752  0.00  0.00    -0.360 N 
ATOM     16  H   UNL     1      35.739 -16.190 -20.547  0.00  0.00    +0.142 HD
ATOM     17  H   UNL     1      34.370 -17.065 -20.029  0.00  0.00    +0.142 HD
ENDBRANCH   6  15
ENDBRANCH   2   5
ENDBRANCH   1   2
BRANCH   1  18
ATOM     18  C   UNL     1      34.977 -20.820 -19.889  0.00  0.00    +0.084 C 
BRANCH  18  20
ATOM     19  C   UNL     1      34.608 -22.470 -16.505  0.00  0.00    +0.036 C 
ATOM     20  C   UNL     1      34.364 -21.478 -18.683  0.00  0.00    -0.011 C 
ATOM     21  C   UNL     1      35.177 -21.859 -17.623  0.00  0.00    -0.003 C 
ATOM     22  C   UNL     1      33.232 -22.694 -16.457  0.00  0.00    +0.001 C 
ATOM     23  C   UNL     1      32.993 -21.698 -18.645  0.00  0.00    -0.003 C 
ATOM     24  C   UNL     1      32.425 -22.308 -17.527  0.00  0.00    -0.000 C 
BRANCH  19  25
ATOM     25  C   UNL     1      35.471 -22.882 -15.360  0.00  0.00    +0.291 C 
BRANCH  25  29
ATOM     26  F   UNL     1      37.741 -22.538 -16.037  0.00  0.00    -0.165 F 
ATOM     27  F   UNL     1      36.519 -20.767 -15.691  0.00  0.00    -0.165 F 
ATOM     28  F   UNL     1      37.206 -21.969 -14.002  0.00  0.00    -0.165 F 
ATOM     29  C   UNL     1      36.746 -22.031 -15.272  0.00  0.00    +0.449 C 
ENDBRANCH  25  29
BRANCH  25  30
ATOM     30  O   UNL     1      35.856 -24.262 -15.491  0.00  0.00    -0.355 OA
ATOM     31  H   UNL     1      35.516 -24.615 -16.328  0.00  0.00    +0.213 HD
ENDBRANCH  25  30
BRANCH  25  32
ATOM     32  O   UNL     1      34.755 -22.755 -14.119  0.00  0.00    -0.355 OA
ATOM     33  H   UNL     1      35.381 -22.562 -13.403  0.00  0.00    +0.213 HD
ENDBRANCH  25  32
ENDBRANCH  19  25
ENDBRANCH  18  20
ENDBRANCH   1  18
TORSDOF 9
ENDMDL
MODEL 4
REMARK VINA RESULT:     -11.4      9.679     13.020
REMARK  Name = 1723
REMARK  9 active torsions:
REMARK  status: ('A' for Active; 'I' for Inactive)
REMARK    1  A    between atoms: S_1  and  C_2
REMARK    2  A    between atoms: S_1  and  C_18
REMARK    3  A    between atoms: C_2  and  C_5
REMARK    4  A    between atoms: C_6  and  N_15
REMARK    5  A    between atoms: C_18  and  C_20
REMARK    6  A    between atoms: C_19  and  C_25
REMARK    7  A    between atoms: C_25  and  C_29
REMARK    8  A    between atoms: C_25  and  O_30
REMARK    9  A    between atoms: C_25  and  O_32
REMARK                            x       y       z     vdW  Elec       q    Type
REMARK                         _______ _______ _______ _____ _____    ______ ____
ROOT
ATOM      1  S   UNL     1      31.810 -11.814 -22.278  0.00  0.00    -0.131 S 
ENDROOT
BRANCH   1   2
ATOM      2  C   UNL     1      33.362 -12.210 -23.139  0.00  0.00    +0.087 C 
BRANCH   2   5
ATOM      3  F   UNL     1      34.781 -16.568 -20.676  0.00  0.00    -0.208 F 
ATOM      4  N   UNL     1      33.245 -15.433 -25.089  0.00  0.00    -0.410 NA
ATOM      5  C   UNL     1      33.480 -13.662 -23.466  0.00  0.00    +0.024 C 
ATOM      6  C   UNL     1      33.911 -14.585 -22.524  0.00  0.00    +0.030 C 
ATOM      7  C   UNL     1      34.011 -15.941 -22.862  0.00  0.00    +0.137 C 
ATOM      8  C   UNL     1      33.163 -14.133 -24.724  0.00  0.00    +0.107 C 
ATOM      9  C   UNL     1      33.663 -16.327 -24.173  0.00  0.00    +0.120 C 
ATOM     10  C   UNL     1      34.444 -16.901 -21.930  0.00  0.00    +0.129 C 
ATOM     11  C   UNL     1      32.691 -13.195 -25.787  0.00  0.00    +0.066 C 
ATOM     12  C   UNL     1      33.763 -17.675 -24.507  0.00  0.00    +0.028 C 
ATOM     13  C   UNL     1      34.534 -18.242 -22.293  0.00  0.00    +0.026 C 
ATOM     14  C   UNL     1      34.193 -18.629 -23.582  0.00  0.00    +0.004 C 
BRANCH   6  15
ATOM     15  N   UNL     1      34.241 -14.116 -21.228  0.00  0.00    -0.360 N 
ATOM     16  H   UNL     1      34.494 -14.755 -20.523  0.00  0.00    +0.142 HD
ATOM     17  H   UNL     1      34.217 -13.151 -21.033  0.00  0.00    +0.142 HD
ENDBRANCH   6  15
ENDBRANCH   2   5
ENDBRANCH   1   2
BRANCH   1  18
ATOM     18  C   UNL     1      31.642 -10.099 -22.821  0.00  0.00    +0.084 C 
BRANCH  18  20
ATOM     19  C   UNL     1      31.583  -6.901 -20.803  0.00  0.00    +0.036 C 
ATOM     20  C   UNL     1      31.529  -9.147 -21.662  0.00  0.00    -0.011 C 
ATOM     21  C   UNL     1      31.688  -7.784 -21.877  0.00  0.00    -0.003 C 
ATOM     22  C   UNL     1      31.321  -7.388 -19.522  0.00  0.00    +0.001 C 
ATOM     23  C   UNL     1      31.268  -9.642 -20.391  0.00  0.00    -0.003 C 
ATOM     24  C   UNL     1      31.162  -8.759 -19.317  0.00  0.00    -0.000 C 
BRANCH  19  25
ATOM     25  C   UNL     1      31.751  -5.434 -21.022  0.00  0.00    +0.291 C 
BRANCH  25  29
ATOM     26  F   UNL     1      29.614  -5.555 -22.093  0.00  0.00    -0.165 F 
ATOM     27  F   UNL     1      29.742  -4.423 -20.235  0.00  0.00    -0.165 F 
ATOM     28  F   UNL     1      30.613  -3.619 -22.069  0.00  0.00    -0.165 F 
ATOM     29  C   UNL     1      30.418  -4.752 -21.358  0.00  0.00    +0.449 C 
ENDBRANCH  25  29
BRANCH  25  30
ATOM     30  O   UNL     1      32.670  -5.189 -22.101  0.00  0.00    -0.355 OA
ATOM     31  H   UNL     1      32.473  -5.790 -22.837  0.00  0.00    +0.213 HD
ENDBRANCH  25  30
BRANCH  25  32
ATOM     32  O   UNL     1      32.297  -4.809 -19.848  0.00  0.00    -0.355 OA
ATOM     33  H   UNL     1      31.659  -4.169 -19.496  0.00  0.00    +0.213 HD
ENDBRANCH  25  32
ENDBRANCH  19  25
ENDBRANCH  18  20
ENDBRANCH   1  18
TORSDOF 9
ENDMDL
MODEL 5
REMARK VINA RESULT:     -11.3      3.651      8.437
REMARK  Name = 1723
REMARK  9 active torsions:
REMARK  status: ('A' for Active; 'I' for Inactive)
REMARK    1  A    between atoms: S_1  and  C_2
REMARK    2  A    between atoms: S_1  and  C_18
REMARK    3  A    between atoms: C_2  and  C_5
REMARK    4  A    between atoms: C_6  and  N_15
REMARK    5  A    between atoms: C_18  and  C_20
REMARK    6  A    between atoms: C_19  and  C_25
REMARK    7  A    between atoms: C_25  and  C_29
REMARK    8  A    between atoms: C_25  and  O_30
REMARK    9  A    between atoms: C_25  and  O_32
REMARK                            x       y       z     vdW  Elec       q    Type
REMARK                         _______ _______ _______ _____ _____    ______ ____
ROOT
ATOM      1  S   UNL     1      33.461 -22.234 -15.880  0.00  0.00    -0.131 S 
ENDROOT
BRANCH   1   2
ATOM      2  C   UNL     1      33.669 -22.736 -17.615  0.00  0.00    +0.087 C 
BRANCH   2   5
ATOM      3  F   UNL     1      32.428 -19.696 -21.652  0.00  0.00    -0.208 F 
ATOM      4  N   UNL     1      36.305 -20.361 -18.885  0.00  0.00    -0.410 NA
ATOM      5  C   UNL     1      34.336 -21.685 -18.438  0.00  0.00    +0.024 C 
ATOM      6  C   UNL     1      33.678 -21.055 -19.484  0.00  0.00    +0.030 C 
ATOM      7  C   UNL     1      34.332 -20.072 -20.238  0.00  0.00    +0.137 C 
ATOM      8  C   UNL     1      35.638 -21.305 -18.182  0.00  0.00    +0.107 C 
ATOM      9  C   UNL     1      35.663 -19.751 -19.899  0.00  0.00    +0.120 C 
ATOM     10  C   UNL     1      33.693 -19.415 -21.304  0.00  0.00    +0.129 C 
ATOM     11  C   UNL     1      36.407 -21.941 -17.070  0.00  0.00    +0.066 C 
ATOM     12  C   UNL     1      36.312 -18.774 -20.649  0.00  0.00    +0.028 C 
ATOM     13  C   UNL     1      34.366 -18.442 -22.037  0.00  0.00    +0.026 C 
ATOM     14  C   UNL     1      35.677 -18.121 -21.709  0.00  0.00    +0.004 C 
BRANCH   6  15
ATOM     15  N   UNL     1      32.341 -21.434 -19.760  0.00  0.00    -0.360 N 
ATOM     16  H   UNL     1      31.676 -21.458 -19.034  0.00  0.00    +0.142 HD
ATOM     17  H   UNL     1      32.076 -21.674 -20.678  0.00  0.00    +0.142 HD
ENDBRANCH   6  15
ENDBRANCH   2   5
ENDBRANCH   1   2
BRANCH   1  18
ATOM     18  C   UNL     1      33.794 -23.832 -15.105  0.00  0.00    +0.084 C 
BRANCH  18  20
ATOM     19  C   UNL     1      37.213 -24.555 -13.659  0.00  0.00    +0.036 C 
ATOM     20  C   UNL     1      35.001 -23.788 -14.209  0.00  0.00    -0.011 C 
ATOM     21  C   UNL     1      36.094 -24.597 -14.490  0.00  0.00    -0.003 C 
ATOM     22  C   UNL     1      37.229 -23.705 -12.553  0.00  0.00    +0.001 C 
ATOM     23  C   UNL     1      35.007 -22.938 -13.110  0.00  0.00    -0.003 C 
ATOM     24  C   UNL     1      36.126 -22.896 -12.279  0.00  0.00    -0.000 C 
BRANCH  19  25
ATOM     25  C   UNL     1      38.393 -25.419 -13.952  0.00  0.00    +0.291 C 
BRANCH  25  29
ATOM     26  F   UNL     1      38.967 -23.546 -15.328  0.00  0.00    -0.165 F 
ATOM     27  F   UNL     1      40.495 -24.296 -13.967  0.00  0.00    -0.165 F 
ATOM     28  F   UNL     1      39.961 -25.440 -15.749  0.00  0.00    -0.165 F 
ATOM     29  C   UNL     1      39.464 -24.668 -14.756  0.00  0.00    +0.449 C 
ENDBRANCH  25  29
BRANCH  25  30
ATOM     30  O   UNL     1      37.994 -26.580 -14.703  0.00  0.00    -0.355 OA
ATOM     31  H   UNL     1      38.289 -26.488 -15.622  0.00  0.00    +0.213 HD
ENDBRANCH  25  30
BRANCH  25  32
ATOM     32  O   UNL     1      38.990 -25.888 -12.730  0.00  0.00    -0.355 OA
ATOM     33  H   UNL     1      39.640 -25.238 -12.418  0.00  0.00    +0.213 HD
ENDBRANCH  25  32
ENDBRANCH  19  25
ENDBRANCH  18  20
ENDBRANCH   1  18
TORSDOF 9
ENDMDL
MODEL 6
REMARK VINA RESULT:     -11.3      9.069     12.457
REMARK  Name = 1723
REMARK  9 active torsions:
REMARK  status: ('A' for Active; 'I' for Inactive)
REMARK    1  A    between atoms: S_1  and  C_2
REMARK    2  A    between atoms: S_1  and  C_18
REMARK    3  A    between atoms: C_2  and  C_5
REMARK    4  A    between atoms: C_6  and  N_15
REMARK    5  A    between atoms: C_18  and  C_20
REMARK    6  A    between atoms: C_19  and  C_25
REMARK    7  A    between atoms: C_25  and  C_29
REMARK    8  A    between atoms: C_25  and  O_30
REMARK    9  A    between atoms: C_25  and  O_32
REMARK                            x       y       z     vdW  Elec       q    Type
REMARK                         _______ _______ _______ _____ _____    ______ ____
ROOT
ATOM      1  S   UNL     1      31.934 -12.205 -21.488  0.00  0.00    -0.131 S 
ENDROOT
BRANCH   1   2
ATOM      2  C   UNL     1      33.198 -12.382 -22.783  0.00  0.00    +0.087 C 
BRANCH   2   5
ATOM      3  F   UNL     1      34.859 -16.797 -20.586  0.00  0.00    -0.208 F 
ATOM      4  N   UNL     1      33.260 -15.481 -24.926  0.00  0.00    -0.410 NA
ATOM      5  C   UNL     1      33.397 -13.802 -23.197  0.00  0.00    +0.024 C 
ATOM      6  C   UNL     1      33.879 -14.756 -22.312  0.00  0.00    +0.030 C 
ATOM      7  C   UNL     1      34.054 -16.081 -22.732  0.00  0.00    +0.137 C 
ATOM      8  C   UNL     1      33.106 -14.213 -24.482  0.00  0.00    +0.107 C 
ATOM      9  C   UNL     1      33.728 -16.405 -24.065  0.00  0.00    +0.120 C 
ATOM     10  C   UNL     1      34.540 -17.071 -21.859  0.00  0.00    +0.129 C 
ATOM     11  C   UNL     1      32.583 -13.239 -25.488  0.00  0.00    +0.066 C 
ATOM     12  C   UNL     1      33.902 -17.722 -24.481  0.00  0.00    +0.028 C 
ATOM     13  C   UNL     1      34.705 -18.380 -22.302  0.00  0.00    +0.026 C 
ATOM     14  C   UNL     1      34.385 -18.706 -23.614  0.00  0.00    +0.004 C 
BRANCH   6  15
ATOM     15  N   UNL     1      34.183 -14.349 -20.989  0.00  0.00    -0.360 N 
ATOM     16  H   UNL     1      33.611 -13.691 -20.532  0.00  0.00    +0.142 HD
ATOM     17  H   UNL     1      34.966 -14.726 -20.526  0.00  0.00    +0.142 HD
ENDBRANCH   6  15
ENDBRANCH   2   5
ENDBRANCH   1   2
BRANCH   1  18
ATOM     18  C   UNL     1      31.001 -10.842 -22.220  0.00  0.00    +0.084 C 
BRANCH  18  20
ATOM     19  C   UNL     1      31.951  -7.216 -21.721  0.00  0.00    +0.036 C 
ATOM     20  C   UNL     1      31.304  -9.526 -21.558  0.00  0.00    -0.011 C 
ATOM     21  C   UNL     1      31.670  -8.436 -22.336  0.00  0.00    -0.003 C 
ATOM     22  C   UNL     1      31.864  -7.097 -20.333  0.00  0.00    +0.001 C 
ATOM     23  C   UNL     1      31.215  -9.419 -20.176  0.00  0.00    -0.003 C 
ATOM     24  C   UNL     1      31.496  -8.198 -19.562  0.00  0.00    -0.000 C 
BRANCH  19  25
ATOM     25  C   UNL     1      32.345  -6.037 -22.547  0.00  0.00    +0.291 C 
BRANCH  25  29
ATOM     26  F   UNL     1      33.961  -7.123 -23.939  0.00  0.00    -0.165 F 
ATOM     27  F   UNL     1      34.204  -4.984 -23.603  0.00  0.00    -0.165 F 
ATOM     28  F   UNL     1      34.637  -6.399 -21.998  0.00  0.00    -0.165 F 
ATOM     29  C   UNL     1      33.800  -6.137 -23.026  0.00  0.00    +0.449 C 
ENDBRANCH  25  29
BRANCH  25  30
ATOM     30  O   UNL     1      32.199  -4.821 -21.792  0.00  0.00    -0.355 OA
ATOM     31  H   UNL     1      31.579  -4.230 -22.247  0.00  0.00    +0.213 HD
ENDBRANCH  25  30
BRANCH  25  32
ATOM     32  O   UNL     1      31.494  -5.926 -23.702  0.00  0.00    -0.355 OA
ATOM     33  H   UNL     1      30.599  -5.677 -23.421  0.00  0.00    +0.213 HD
ENDBRANCH  25  32
ENDBRANCH  19  25
ENDBRANCH  18  20
ENDBRANCH   1  18
TORSDOF 9
ENDMDL
MODEL 7
REMARK VINA RESULT:     -11.2      1.291      2.268
REMARK  Name = 1723
REMARK  9 active torsions:
REMARK  status: ('A' for Active; 'I' for Inactive)
REMARK    1  A    between atoms: S_1  and  C_2
REMARK    2  A    between atoms: S_1  and  C_18
REMARK    3  A    between atoms: C_2  and  C_5
REMARK    4  A    between atoms: C_6  and  N_15
REMARK    5  A    between atoms: C_18  and  C_20
REMARK    6  A    between atoms: C_19  and  C_25
REMARK    7  A    between atoms: C_25  and  C_29
REMARK    8  A    between atoms: C_25  and  O_30
REMARK    9  A    between atoms: C_25  and  O_32
REMARK                            x       y       z     vdW  Elec       q    Type
REMARK                         _______ _______ _______ _____ _____    ______ ____
ROOT
ATOM      1  S   UNL     1      33.202 -22.893 -17.086  0.00  0.00    -0.131 S 
ENDROOT
BRANCH   1   2
ATOM      2  C   UNL     1      33.965 -22.018 -15.686  0.00  0.00    +0.087 C 
BRANCH   2   5
ATOM      3  F   UNL     1      38.969 -23.429 -15.474  0.00  0.00    -0.208 F 
ATOM      4  N   UNL     1      34.976 -24.463 -13.003  0.00  0.00    -0.410 NA
ATOM      5  C   UNL     1      34.813 -22.914 -14.847  0.00  0.00    +0.024 C 
ATOM      6  C   UNL     1      36.173 -23.057 -15.083  0.00  0.00    +0.030 C 
ATOM      7  C   UNL     1      36.943 -23.907 -14.278  0.00  0.00    +0.137 C 
ATOM      8  C   UNL     1      34.268 -23.634 -13.803  0.00  0.00    +0.107 C 
ATOM      9  C   UNL     1      36.295 -24.600 -13.234  0.00  0.00    +0.120 C 
ATOM     10  C   UNL     1      38.323 -24.073 -14.492  0.00  0.00    +0.129 C 
ATOM     11  C   UNL     1      32.810 -23.528 -13.491  0.00  0.00    +0.066 C 
ATOM     12  C   UNL     1      37.061 -25.443 -12.434  0.00  0.00    +0.028 C 
ATOM     13  C   UNL     1      39.063 -24.923 -13.676  0.00  0.00    +0.026 C 
ATOM     14  C   UNL     1      38.432 -25.609 -12.646  0.00  0.00    +0.004 C 
BRANCH   6  15
ATOM     15  N   UNL     1      36.748 -22.326 -16.152  0.00  0.00    -0.360 N 
ATOM     16  H   UNL     1      36.546 -21.368 -16.258  0.00  0.00    +0.142 HD
ATOM     17  H   UNL     1      37.350 -22.775 -16.789  0.00  0.00    +0.142 HD
ENDBRANCH   6  15
ENDBRANCH   2   5
ENDBRANCH   1   2
BRANCH   1  18
ATOM     18  C   UNL     1      34.419 -22.471 -18.352  0.00  0.00    +0.084 C 
BRANCH  18  20
ATOM     19  C   UNL     1      34.479 -19.308 -20.425  0.00  0.00    +0.036 C 
ATOM     20  C   UNL     1      33.970 -21.319 -19.209  0.00  0.00    -0.011 C 
ATOM     21  C   UNL     1      34.897 -20.375 -19.630  0.00  0.00    -0.003 C 
ATOM     22  C   UNL     1      33.139 -19.194 -20.792  0.00  0.00    +0.001 C 
ATOM     23  C   UNL     1      32.632 -21.215 -19.569  0.00  0.00    -0.003 C 
ATOM     24  C   UNL     1      32.216 -20.148 -20.364  0.00  0.00    -0.000 C 
BRANCH  19  25
ATOM     25  C   UNL     1      35.468 -18.288 -20.883  0.00  0.00    +0.291 C 
BRANCH  25  29
ATOM     26  F   UNL     1      35.075 -17.242 -23.000  0.00  0.00    -0.165 F 
ATOM     27  F   UNL     1      36.958 -18.309 -22.743  0.00  0.00    -0.165 F 
ATOM     28  F   UNL     1      35.090 -19.421 -22.947  0.00  0.00    -0.165 F 
ATOM     29  C   UNL     1      35.649 -18.315 -22.407  0.00  0.00    +0.449 C 
ENDBRANCH  25  29
BRANCH  25  30
ATOM     30  O   UNL     1      36.748 -18.516 -20.270  0.00  0.00    -0.355 OA
ATOM     31  H   UNL     1      36.649 -19.144 -19.537  0.00  0.00    +0.213 HD
ENDBRANCH  25  30
BRANCH  25  32
ATOM     32  O   UNL     1      35.042 -16.968 -20.501  0.00  0.00    -0.355 OA
ATOM     33  H   UNL     1      34.696 -16.502 -21.279  0.00  0.00    +0.213 HD
ENDBRANCH  25  32
ENDBRANCH  19  25
ENDBRANCH  18  20
ENDBRANCH   1  18
TORSDOF 9
ENDMDL
MODEL 8
REMARK VINA RESULT:     -11.2      3.794      8.129
REMARK  Name = 1723
REMARK  9 active torsions:
REMARK  status: ('A' for Active; 'I' for Inactive)
REMARK    1  A    between atoms: S_1  and  C_2
REMARK    2  A    between atoms: S_1  and  C_18
REMARK    3  A    between atoms: C_2  and  C_5
REMARK    4  A    between atoms: C_6  and  N_15
REMARK    5  A    between atoms: C_18  and  C_20
REMARK    6  A    between atoms: C_19  and  C_25
REMARK    7  A    between atoms: C_25  and  C_29
REMARK    8  A    between atoms: C_25  and  O_30
REMARK    9  A    between atoms: C_25  and  O_32
REMARK                            x       y       z     vdW  Elec       q    Type
REMARK                         _______ _______ _______ _____ _____    ______ ____
ROOT
ATOM      1  S   UNL     1      32.956 -22.642 -13.619  0.00  0.00    -0.131 S 
ENDROOT
BRANCH   1   2
ATOM      2  C   UNL     1      32.794 -23.645 -15.127  0.00  0.00    +0.087 C 
BRANCH   2   5
ATOM      3  F   UNL     1      36.488 -21.599 -18.168  0.00  0.00    -0.208 F 
ATOM      4  N   UNL     1      31.680 -21.661 -18.132  0.00  0.00    -0.410 NA
ATOM      5  C   UNL     1      32.854 -22.820 -16.370  0.00  0.00    +0.024 C 
ATOM      6  C   UNL     1      34.065 -22.439 -16.930  0.00  0.00    +0.030 C 
ATOM      7  C   UNL     1      34.089 -21.665 -18.098  0.00  0.00    +0.137 C 
ATOM      8  C   UNL     1      31.700 -22.408 -17.005  0.00  0.00    +0.107 C 
ATOM      9  C   UNL     1      32.856 -21.293 -18.674  0.00  0.00    +0.120 C 
ATOM     10  C   UNL     1      35.299 -21.262 -18.690  0.00  0.00    +0.129 C 
ATOM     11  C   UNL     1      30.361 -22.783 -16.457  0.00  0.00    +0.066 C 
ATOM     12  C   UNL     1      32.881 -20.524 -19.834  0.00  0.00    +0.028 C 
ATOM     13  C   UNL     1      35.293 -20.493 -19.850  0.00  0.00    +0.026 C 
ATOM     14  C   UNL     1      34.083 -20.124 -20.422  0.00  0.00    +0.004 C 
BRANCH   6  15
ATOM     15  N   UNL     1      35.260 -22.854 -16.290  0.00  0.00    -0.360 N 
ATOM     16  H   UNL     1      35.804 -22.201 -15.793  0.00  0.00    +0.142 HD
ATOM     17  H   UNL     1      35.545 -23.795 -16.342  0.00  0.00    +0.142 HD
ENDBRANCH   6  15
ENDBRANCH   2   5
ENDBRANCH   1   2
BRANCH   1  18
ATOM     18  C   UNL     1      33.589 -23.928 -12.519  0.00  0.00    +0.084 C 
BRANCH  18  20
ATOM     19  C   UNL     1      37.217 -24.632 -13.325  0.00  0.00    +0.036 C 
ATOM     20  C   UNL     1      35.091 -23.924 -12.449  0.00  0.00    -0.011 C 
ATOM     21  C   UNL     1      35.824 -24.636 -13.390  0.00  0.00    -0.003 C 
ATOM     22  C   UNL     1      37.866 -23.917 -12.318  0.00  0.00    +0.001 C 
ATOM     23  C   UNL     1      35.728 -23.209 -11.443  0.00  0.00    -0.003 C 
ATOM     24  C   UNL     1      37.121 -23.205 -11.378  0.00  0.00    -0.000 C 
BRANCH  19  25
ATOM     25  C   UNL     1      38.013 -25.393 -14.332  0.00  0.00    +0.291 C 
BRANCH  25  29
ATOM     26  F   UNL     1      39.889 -25.239 -15.811  0.00  0.00    -0.165 F 
ATOM     27  F   UNL     1      38.816 -23.397 -15.359  0.00  0.00    -0.165 F 
ATOM     28  F   UNL     1      40.087 -24.322 -13.844  0.00  0.00    -0.165 F 
ATOM     29  C   UNL     1      39.212 -24.581 -14.841  0.00  0.00    +0.449 C 
ENDBRANCH  25  29
BRANCH  25  30
ATOM     30  O   UNL     1      37.193 -25.747 -15.459  0.00  0.00    -0.355 OA
ATOM     31  H   UNL     1      37.450 -26.624 -15.783  0.00  0.00    +0.213 HD
ENDBRANCH  25  30
BRANCH  25  32
ATOM     32  O   UNL     1      38.506 -26.618 -13.762  0.00  0.00    -0.355 OA
ATOM     33  H   UNL     1      37.866 -26.954 -13.115  0.00  0.00    +0.213 HD
ENDBRANCH  25  32
ENDBRANCH  19  25
ENDBRANCH  18  20
ENDBRANCH   1  18
TORSDOF 9
ENDMDL
MODEL 9
REMARK VINA RESULT:     -10.9      9.070     12.295
REMARK  Name = 1723
REMARK  9 active torsions:
REMARK  status: ('A' for Active; 'I' for Inactive)
REMARK    1  A    between atoms: S_1  and  C_2
REMARK    2  A    between atoms: S_1  and  C_18
REMARK    3  A    between atoms: C_2  and  C_5
REMARK    4  A    between atoms: C_6  and  N_15
REMARK    5  A    between atoms: C_18  and  C_20
REMARK    6  A    between atoms: C_19  and  C_25
REMARK    7  A    between atoms: C_25  and  C_29
REMARK    8  A    between atoms: C_25  and  O_30
REMARK    9  A    between atoms: C_25  and  O_32
REMARK                            x       y       z     vdW  Elec       q    Type
REMARK                         _______ _______ _______ _____ _____    ______ ____
ROOT
ATOM      1  S   UNL     1      33.411 -11.571 -23.468  0.00  0.00    -0.131 S 
ENDROOT
BRANCH   1   2
ATOM      2  C   UNL     1      32.390 -13.069 -23.328  0.00  0.00    +0.087 C 
BRANCH   2   5
ATOM      3  F   UNL     1      34.090 -17.729 -24.900  0.00  0.00    -0.208 F 
ATOM      4  N   UNL     1      34.247 -15.185 -20.823  0.00  0.00    -0.410 NA
ATOM      5  C   UNL     1      33.139 -14.217 -22.736  0.00  0.00    +0.024 C 
ATOM      6  C   UNL     1      33.432 -15.352 -23.478  0.00  0.00    +0.030 C 
ATOM      7  C   UNL     1      34.137 -16.413 -22.893  0.00  0.00    +0.137 C 
ATOM      8  C   UNL     1      33.565 -14.184 -21.424  0.00  0.00    +0.107 C 
ATOM      9  C   UNL     1      34.531 -16.286 -21.545  0.00  0.00    +0.120 C 
ATOM     10  C   UNL     1      34.449 -17.577 -23.617  0.00  0.00    +0.129 C 
ATOM     11  C   UNL     1      33.284 -12.992 -20.567  0.00  0.00    +0.066 C 
ATOM     12  C   UNL     1      35.231 -17.340 -20.965  0.00  0.00    +0.028 C 
ATOM     13  C   UNL     1      35.150 -18.615 -23.012  0.00  0.00    +0.026 C 
ATOM     14  C   UNL     1      35.542 -18.497 -21.684  0.00  0.00    +0.004 C 
BRANCH   6  15
ATOM     15  N   UNL     1      33.001 -15.402 -24.826  0.00  0.00    -0.360 N 
ATOM     16  H   UNL     1      32.069 -15.639 -25.037  0.00  0.00    +0.142 HD
ATOM     17  H   UNL     1      33.634 -15.198 -25.553  0.00  0.00    +0.142 HD
ENDBRANCH   6  15
ENDBRANCH   2   5
ENDBRANCH   1   2
BRANCH   1  18
ATOM     18  C   UNL     1      32.077 -10.361 -23.619  0.00  0.00    +0.084 C 
BRANCH  18  20
ATOM     19  C   UNL     1      31.979  -7.754 -20.880  0.00  0.00    +0.036 C 
ATOM     20  C   UNL     1      31.783  -9.676 -22.312  0.00  0.00    -0.011 C 
ATOM     21  C   UNL     1      32.253  -8.388 -22.092  0.00  0.00    -0.003 C 
ATOM     22  C   UNL     1      31.238  -8.413 -19.899  0.00  0.00    +0.001 C 
ATOM     23  C   UNL     1      31.045 -10.342 -21.342  0.00  0.00    -0.003 C 
ATOM     24  C   UNL     1      30.771  -9.707 -20.130  0.00  0.00    -0.000 C 
BRANCH  19  25
ATOM     25  C   UNL     1      32.478  -6.369 -20.634  0.00  0.00    +0.291 C 
BRANCH  25  29
ATOM     26  F   UNL     1      30.643  -5.001 -19.931  0.00  0.00    -0.165 F 
ATOM     27  F   UNL     1      32.006  -4.167 -21.413  0.00  0.00    -0.165 F 
ATOM     28  F   UNL     1      30.610  -5.747 -21.979  0.00  0.00    -0.165 F 
ATOM     29  C   UNL     1      31.424  -5.311 -20.992  0.00  0.00    +0.449 C 
ENDBRANCH  25  29
BRANCH  25  30
ATOM     30  O   UNL     1      33.660  -6.114 -21.412  0.00  0.00    -0.355 OA
ATOM     31  H   UNL     1      33.416  -6.006 -22.345  0.00  0.00    +0.213 HD
ENDBRANCH  25  30
BRANCH  25  32
ATOM     32  O   UNL     1      32.834  -6.202 -19.250  0.00  0.00    -0.355 OA
ATOM     33  H   UNL     1      32.037  -6.019 -18.730  0.00  0.00    +0.213 HD
ENDBRANCH  25  32
ENDBRANCH  19  25
ENDBRANCH  18  20
ENDBRANCH   1  18
TORSDOF 9
ENDMDL
