MODEL 1
REMARK VINA RESULT:      -7.8      0.000      0.000
REMARK  Name = 10366136
REMARK  5 active torsions:
REMARK  status: ('A' for Active; 'I' for Inactive)
REMARK    1  A    between atoms: C_4  and  N_20
REMARK    2  A    between atoms: C_7  and  O_30
REMARK    3  A    between atoms: C_21  and  N_26
REMARK    4  A    between atoms: O_30  and  C_31
REMARK    5  A    between atoms: C_31  and  C_33
REMARK                            x       y       z     vdW  Elec       q    Type
REMARK                         _______ _______ _______ _____ _____    ______ ____
ROOT
ATOM      1  N   UNL     1      35.043 -22.337 -14.917  0.00  0.00    -0.389 NA
ATOM      2  N   UNL     1      36.474 -21.127 -16.324  0.00  0.00    -0.240 N 
ATOM      3  N   UNL     1      37.361 -19.578 -17.662  0.00  0.00    -0.246 NA
ATOM      4  C   UNL     1      33.559 -23.553 -13.520  0.00  0.00    +0.133 C 
ATOM      5  C   UNL     1      34.857 -23.095 -13.820  0.00  0.00    +0.129 C 
ATOM      6  C   UNL     1      33.356 -24.350 -12.370  0.00  0.00    -0.003 C 
ATOM      7  C   UNL     1      34.695 -20.763 -20.000  0.00  0.00    +0.122 C 
ATOM      8  C   UNL     1      35.925 -23.445 -12.967  0.00  0.00    +0.027 C 
ATOM      9  C   UNL     1      36.296 -21.906 -15.192  0.00  0.00    +0.188 C 
ATOM     10  C   UNL     1      34.413 -24.689 -11.534  0.00  0.00    -0.003 C 
ATOM     11  C   UNL     1      35.740 -21.171 -17.487  0.00  0.00    +0.069 C 
ATOM     12  C   UNL     1      35.783 -19.985 -19.587  0.00  0.00    +0.053 C 
ATOM     13  C   UNL     1      35.696 -24.238 -11.831  0.00  0.00    +0.002 C 
ATOM     14  C   UNL     1      36.312 -20.198 -18.302  0.00  0.00    +0.094 C 
ATOM     15  C   UNL     1      34.142 -21.732 -19.158  0.00  0.00    +0.091 C 
ATOM     16  C   UNL     1      37.207 -22.977 -13.289  0.00  0.00    +0.006 C 
ATOM     17  C   UNL     1      34.655 -21.958 -17.877  0.00  0.00    -0.002 C 
ATOM     18  C   UNL     1      37.401 -22.195 -14.418  0.00  0.00    +0.048 C 
ATOM     19  C   UNL     1      37.432 -20.157 -16.485  0.00  0.00    +0.226 C 
ENDROOT
BRANCH   4  20
ATOM     20  N   UNL     1      32.466 -23.232 -14.335  0.00  0.00    -0.265 NA
ATOM     21  C   UNL     1      30.147 -22.692 -15.970  0.00  0.00    -0.063 C 
ATOM     22  C   UNL     1      30.192 -22.298 -14.495  0.00  0.00    -0.004 C 
ATOM     23  C   UNL     1      31.558 -22.680 -16.557  0.00  0.00    -0.004 C 
ATOM     24  C   UNL     1      31.138 -23.201 -13.706  0.00  0.00    +0.071 C 
ATOM     25  C   UNL     1      32.504 -23.578 -15.760  0.00  0.00    +0.071 C 
BRANCH  21  26
ATOM     26  N   UNL     1      29.276 -21.809 -16.707  0.00  0.00    +0.382 N 
ATOM     27  H   UNL     1      28.676 -22.358 -17.323  0.00  0.00    -0.089 HD
ATOM     28  H   UNL     1      29.838 -21.166 -17.266  0.00  0.00    -0.089 HD
ATOM     29  H   UNL     1      28.699 -21.278 -16.056  0.00  0.00    -0.089 HD
ENDBRANCH  21  26
ENDBRANCH   4  20
BRANCH   7  30
ATOM     30  O   UNL     1      34.168 -20.571 -21.243  0.00  0.00    -0.479 OA
BRANCH  30  31
ATOM     31  C   UNL     1      33.477 -19.346 -21.470  0.00  0.00    +0.210 C 
BRANCH  31  33
ATOM     32  O   UNL     1      36.017 -17.515 -22.083  0.00  0.00    -0.353 OA
ATOM     33  C   UNL     1      34.217 -18.562 -22.536  0.00  0.00    +0.095 C 
ATOM     34  C   UNL     1      35.713 -18.838 -22.580  0.00  0.00    +0.148 C 
ATOM     35  C   UNL     1      34.616 -17.158 -22.104  0.00  0.00    +0.148 C 
ATOM     36  C   UNL     1      33.520 -18.641 -23.870  0.00  0.00    +0.009 C 
ENDBRANCH  31  33
ENDBRANCH  30  31
ENDBRANCH   7  30
TORSDOF 5
ENDMDL
MODEL 2
REMARK VINA RESULT:      -7.3     14.855     19.149
REMARK  Name = 10366136
REMARK  5 active torsions:
REMARK  status: ('A' for Active; 'I' for Inactive)
REMARK    1  A    between atoms: C_4  and  N_20
REMARK    2  A    between atoms: C_7  and  O_30
REMARK    3  A    between atoms: C_21  and  N_26
REMARK    4  A    between atoms: O_30  and  C_31
REMARK    5  A    between atoms: C_31  and  C_33
REMARK                            x       y       z     vdW  Elec       q    Type
REMARK                         _______ _______ _______ _____ _____    ______ ____
ROOT
ATOM      1  N   UNL     1      31.912  -4.511 -24.350  0.00  0.00    -0.389 NA
ATOM      2  N   UNL     1      32.356  -3.503 -26.418  0.00  0.00    -0.240 N 
ATOM      3  N   UNL     1      32.684  -3.121 -28.591  0.00  0.00    -0.246 NA
ATOM      4  C   UNL     1      31.488  -5.567 -22.267  0.00  0.00    +0.133 C 
ATOM      5  C   UNL     1      31.320  -4.474 -23.141  0.00  0.00    +0.129 C 
ATOM      6  C   UNL     1      30.870  -5.536 -20.996  0.00  0.00    -0.003 C 
ATOM      7  C   UNL     1      35.729  -5.208 -28.007  0.00  0.00    +0.122 C 
ATOM      8  C   UNL     1      30.542  -3.374 -22.726  0.00  0.00    +0.027 C 
ATOM      9  C   UNL     1      31.742  -3.454 -25.177  0.00  0.00    +0.188 C 
ATOM     10  C   UNL     1      30.104  -4.448 -20.595  0.00  0.00    -0.003 C 
ATOM     11  C   UNL     1      33.525  -4.154 -26.742  0.00  0.00    +0.069 C 
ATOM     12  C   UNL     1      34.830  -4.436 -28.751  0.00  0.00    +0.053 C 
ATOM     13  C   UNL     1      29.939  -3.369 -21.457  0.00  0.00    +0.002 C 
ATOM     14  C   UNL     1      33.705  -3.901 -28.099  0.00  0.00    +0.094 C 
ATOM     15  C   UNL     1      35.520  -5.446 -26.646  0.00  0.00    +0.091 C 
ATOM     16  C   UNL     1      30.392  -2.299 -23.613  0.00  0.00    +0.006 C 
ATOM     17  C   UNL     1      34.407  -4.921 -25.980  0.00  0.00    -0.002 C 
ATOM     18  C   UNL     1      30.999  -2.335 -24.861  0.00  0.00    +0.048 C 
ATOM     19  C   UNL     1      31.897  -2.900 -27.562  0.00  0.00    +0.226 C 
ENDROOT
BRANCH   4  20
ATOM     20  N   UNL     1      32.250  -6.684 -22.633  0.00  0.00    -0.265 NA
ATOM     21  C   UNL     1      33.813  -9.033 -23.251  0.00  0.00    -0.063 C 
ATOM     22  C   UNL     1      32.286  -9.067 -23.255  0.00  0.00    -0.004 C 
ATOM     23  C   UNL     1      34.304  -7.631 -23.608  0.00  0.00    -0.004 C 
ATOM     24  C   UNL     1      31.703  -8.010 -22.319  0.00  0.00    +0.071 C 
ATOM     25  C   UNL     1      33.713  -6.575 -22.674  0.00  0.00    +0.071 C 
BRANCH  21  26
ATOM     26  N   UNL     1      34.347 -10.013 -24.166  0.00  0.00    +0.382 N 
ATOM     27  H   UNL     1      33.842 -10.892 -24.055  0.00  0.00    -0.089 HD
ATOM     28  H   UNL     1      35.336 -10.161 -23.967  0.00  0.00    -0.089 HD
ATOM     29  H   UNL     1      34.239  -9.679 -25.124  0.00  0.00    -0.089 HD
ENDBRANCH  21  26
ENDBRANCH   4  20
BRANCH   7  30
ATOM     30  O   UNL     1      36.826  -5.736 -28.621  0.00  0.00    -0.479 OA
BRANCH  30  31
ATOM     31  C   UNL     1      37.460  -4.933 -29.613  0.00  0.00    +0.210 C 
BRANCH  31  33
ATOM     32  O   UNL     1      39.743  -2.856 -28.800  0.00  0.00    -0.353 OA
ATOM     33  C   UNL     1      38.922  -4.773 -29.245  0.00  0.00    +0.095 C 
ATOM     34  C   UNL     1      39.158  -3.916 -28.009  0.00  0.00    +0.148 C 
ATOM     35  C   UNL     1      39.629  -3.656 -30.000  0.00  0.00    +0.148 C 
ATOM     36  C   UNL     1      39.645  -6.095 -29.246  0.00  0.00    +0.009 C 
ENDBRANCH  31  33
ENDBRANCH  30  31
ENDBRANCH   7  30
TORSDOF 5
ENDMDL
MODEL 3
REMARK VINA RESULT:      -7.2     11.392     16.938
REMARK  Name = 10366136
REMARK  5 active torsions:
REMARK  status: ('A' for Active; 'I' for Inactive)
REMARK    1  A    between atoms: C_4  and  N_20
REMARK    2  A    between atoms: C_7  and  O_30
REMARK    3  A    between atoms: C_21  and  N_26
REMARK    4  A    between atoms: O_30  and  C_31
REMARK    5  A    between atoms: C_31  and  C_33
REMARK                            x       y       z     vdW  Elec       q    Type
REMARK                         _______ _______ _______ _____ _____    ______ ____
ROOT
ATOM      1  N   UNL     1      31.459  -5.735 -22.298  0.00  0.00    -0.389 NA
ATOM      2  N   UNL     1      31.256  -7.618 -20.918  0.00  0.00    -0.240 N 
ATOM      3  N   UNL     1      31.673  -9.445 -19.709  0.00  0.00    -0.246 NA
ATOM      4  C   UNL     1      31.692  -3.851 -23.722  0.00  0.00    +0.133 C 
ATOM      5  C   UNL     1      31.136  -4.458 -22.579  0.00  0.00    +0.129 C 
ATOM      6  C   UNL     1      31.358  -2.511 -24.024  0.00  0.00    -0.003 C 
ATOM      7  C   UNL     1      32.324 -10.939 -23.073  0.00  0.00    +0.122 C 
ATOM      8  C   UNL     1      30.257  -3.716 -21.763  0.00  0.00    +0.027 C 
ATOM      9  C   UNL     1      30.917  -6.304 -21.196  0.00  0.00    +0.188 C 
ATOM     10  C   UNL     1      30.492  -1.786 -23.215  0.00  0.00    -0.003 C 
ATOM     11  C   UNL     1      31.590  -8.600 -21.823  0.00  0.00    +0.069 C 
ATOM     12  C   UNL     1      32.219 -10.924 -21.677  0.00  0.00    +0.053 C 
ATOM     13  C   UNL     1      29.942  -2.386 -22.086  0.00  0.00    +0.002 C 
ATOM     14  C   UNL     1      31.845  -9.725 -21.045  0.00  0.00    +0.094 C 
ATOM     15  C   UNL     1      32.062  -9.792 -23.827  0.00  0.00    +0.091 C 
ATOM     16  C   UNL     1      29.717  -4.343 -20.632  0.00  0.00    +0.006 C 
ATOM     17  C   UNL     1      31.688  -8.591 -23.215  0.00  0.00    -0.002 C 
ATOM     18  C   UNL     1      30.050  -5.658 -20.339  0.00  0.00    +0.048 C 
ATOM     19  C   UNL     1      31.321  -8.180 -19.668  0.00  0.00    +0.226 C 
ENDROOT
BRANCH   4  20
ATOM     20  N   UNL     1      32.571  -4.546 -24.563  0.00  0.00    -0.265 NA
ATOM     21  C   UNL     1      34.317  -6.102 -26.258  0.00  0.00    -0.063 C 
ATOM     22  C   UNL     1      32.932  -5.663 -26.729  0.00  0.00    -0.004 C 
ATOM     23  C   UNL     1      34.871  -5.092 -25.254  0.00  0.00    -0.004 C 
ATOM     24  C   UNL     1      31.981  -5.461 -25.550  0.00  0.00    +0.071 C 
ATOM     25  C   UNL     1      33.913  -4.885 -24.080  0.00  0.00    +0.071 C 
BRANCH  21  26
ATOM     26  N   UNL     1      35.212  -6.255 -27.379  0.00  0.00    +0.382 N 
ATOM     27  H   UNL     1      34.876  -7.006 -27.982  0.00  0.00    -0.089 HD
ATOM     28  H   UNL     1      36.146  -6.484 -27.040  0.00  0.00    -0.089 HD
ATOM     29  H   UNL     1      35.246  -5.385 -27.909  0.00  0.00    -0.089 HD
ENDBRANCH  21  26
ENDBRANCH   4  20
BRANCH   7  30
ATOM     30  O   UNL     1      32.686 -12.092 -23.704  0.00  0.00    -0.479 OA
BRANCH  30  31
ATOM     31  C   UNL     1      33.925 -12.680 -23.317  0.00  0.00    +0.210 C 
BRANCH  31  33
ATOM     32  O   UNL     1      33.836 -15.364 -25.040  0.00  0.00    -0.353 OA
ATOM     33  C   UNL     1      33.752 -14.186 -23.266  0.00  0.00    +0.095 C 
ATOM     34  C   UNL     1      34.806 -14.956 -24.049  0.00  0.00    +0.148 C 
ATOM     35  C   UNL     1      32.771 -14.728 -24.296  0.00  0.00    +0.148 C 
ATOM     36  C   UNL     1      33.526 -14.673 -21.858  0.00  0.00    +0.009 C 
ENDBRANCH  31  33
ENDBRANCH  30  31
ENDBRANCH   7  30
TORSDOF 5
ENDMDL
MODEL 4
REMARK VINA RESULT:      -7.1      1.915      4.691
REMARK  Name = 10366136
REMARK  5 active torsions:
REMARK  status: ('A' for Active; 'I' for Inactive)
REMARK    1  A    between atoms: C_4  and  N_20
REMARK    2  A    between atoms: C_7  and  O_30
REMARK    3  A    between atoms: C_21  and  N_26
REMARK    4  A    between atoms: O_30  and  C_31
REMARK    5  A    between atoms: C_31  and  C_33
REMARK                            x       y       z     vdW  Elec       q    Type
REMARK                         _______ _______ _______ _____ _____    ______ ____
ROOT
ATOM      1  N   UNL     1      34.472 -23.381 -14.011  0.00  0.00    -0.389 NA
ATOM      2  N   UNL     1      33.059 -22.715 -15.758  0.00  0.00    -0.240 N 
ATOM      3  N   UNL     1      32.010 -22.538 -17.718  0.00  0.00    -0.246 NA
ATOM      4  C   UNL     1      35.937 -24.058 -12.271  0.00  0.00    +0.133 C 
ATOM      5  C   UNL     1      34.662 -23.644 -12.704  0.00  0.00    +0.129 C 
ATOM      6  C   UNL     1      36.144 -24.336 -10.900  0.00  0.00    -0.003 C 
ATOM      7  C   UNL     1      35.369 -21.369 -18.867  0.00  0.00    +0.122 C 
ATOM      8  C   UNL     1      33.622 -23.514 -11.760  0.00  0.00    +0.027 C 
ATOM      9  C   UNL     1      33.242 -22.983 -14.411  0.00  0.00    +0.188 C 
ATOM     10  C   UNL     1      35.114 -24.206  -9.976  0.00  0.00    -0.003 C 
ATOM     11  C   UNL     1      34.002 -22.253 -16.649  0.00  0.00    +0.069 C 
ATOM     12  C   UNL     1      34.015 -21.701 -18.997  0.00  0.00    +0.053 C 
ATOM     13  C   UNL     1      33.855 -23.796 -10.404  0.00  0.00    +0.002 C 
ATOM     14  C   UNL     1      33.323 -22.153 -17.860  0.00  0.00    +0.094 C 
ATOM     15  C   UNL     1      36.023 -21.481 -17.637  0.00  0.00    +0.091 C 
ATOM     16  C   UNL     1      32.363 -23.100 -12.217  0.00  0.00    +0.006 C 
ATOM     17  C   UNL     1      35.350 -21.928 -16.495  0.00  0.00    -0.002 C 
ATOM     18  C   UNL     1      32.165 -22.829 -13.563  0.00  0.00    +0.048 C 
ATOM     19  C   UNL     1      31.885 -22.867 -16.452  0.00  0.00    +0.226 C 
ENDROOT
BRANCH   4  20
ATOM     20  N   UNL     1      37.001 -24.202 -13.169  0.00  0.00    -0.265 NA
ATOM     21  C   UNL     1      39.288 -24.478 -14.912  0.00  0.00    -0.063 C 
ATOM     22  C   UNL     1      38.768 -25.653 -14.087  0.00  0.00    -0.004 C 
ATOM     23  C   UNL     1      38.140 -23.527 -15.246  0.00  0.00    -0.004 C 
ATOM     24  C   UNL     1      38.049 -25.174 -12.827  0.00  0.00    +0.071 C 
ATOM     25  C   UNL     1      37.417 -23.056 -13.984  0.00  0.00    +0.071 C 
BRANCH  21  26
ATOM     26  N   UNL     1      39.934 -24.946 -16.115  0.00  0.00    +0.382 N 
ATOM     27  H   UNL     1      40.925 -24.707 -16.083  0.00  0.00    -0.089 HD
ATOM     28  H   UNL     1      39.503 -24.503 -16.926  0.00  0.00    -0.089 HD
ATOM     29  H   UNL     1      39.830 -25.958 -16.186  0.00  0.00    -0.089 HD
ENDBRANCH  21  26
ENDBRANCH   4  20
BRANCH   7  30
ATOM     30  O   UNL     1      36.058 -20.929 -19.958  0.00  0.00    -0.479 OA
BRANCH  30  31
ATOM     31  C   UNL     1      36.428 -19.553 -19.977  0.00  0.00    +0.210 C 
BRANCH  31  33
ATOM     32  O   UNL     1      33.742 -19.084 -21.636  0.00  0.00    -0.353 OA
ATOM     33  C   UNL     1      35.822 -18.906 -21.208  0.00  0.00    +0.095 C 
ATOM     34  C   UNL     1      34.551 -18.117 -20.930  0.00  0.00    +0.148 C 
ATOM     35  C   UNL     1      34.921 -19.833 -22.012  0.00  0.00    +0.148 C 
ATOM     36  C   UNL     1      36.859 -18.171 -22.018  0.00  0.00    +0.009 C 
ENDBRANCH  31  33
ENDBRANCH  30  31
ENDBRANCH   7  30
TORSDOF 5
ENDMDL
MODEL 5
REMARK VINA RESULT:      -6.6     15.026     19.323
REMARK  Name = 10366136
REMARK  5 active torsions:
REMARK  status: ('A' for Active; 'I' for Inactive)
REMARK    1  A    between atoms: C_4  and  N_20
REMARK    2  A    between atoms: C_7  and  O_30
REMARK    3  A    between atoms: C_21  and  N_26
REMARK    4  A    between atoms: O_30  and  C_31
REMARK    5  A    between atoms: C_31  and  C_33
REMARK                            x       y       z     vdW  Elec       q    Type
REMARK                         _______ _______ _______ _____ _____    ______ ____
ROOT
ATOM      1  N   UNL     1      31.870  -4.256 -24.474  0.00  0.00    -0.389 NA
ATOM      2  N   UNL     1      32.375  -3.191 -26.499  0.00  0.00    -0.240 N 
ATOM      3  N   UNL     1      32.725  -2.739 -28.655  0.00  0.00    -0.246 NA
ATOM      4  C   UNL     1      31.383  -5.371 -22.435  0.00  0.00    +0.133 C 
ATOM      5  C   UNL     1      31.281  -4.234 -23.262  0.00  0.00    +0.129 C 
ATOM      6  C   UNL     1      30.768  -5.355 -21.163  0.00  0.00    -0.003 C 
ATOM      7  C   UNL     1      35.638  -5.030 -28.166  0.00  0.00    +0.122 C 
ATOM      8  C   UNL     1      30.571  -3.107 -22.800  0.00  0.00    +0.027 C 
ATOM      9  C   UNL     1      31.764  -3.157 -25.256  0.00  0.00    +0.188 C 
ATOM     10  C   UNL     1      30.069  -4.241 -20.714  0.00  0.00    -0.003 C 
ATOM     11  C   UNL     1      33.501  -3.898 -26.853  0.00  0.00    +0.069 C 
ATOM     12  C   UNL     1      34.787  -4.174 -28.875  0.00  0.00    +0.053 C 
ATOM     13  C   UNL     1      29.970  -3.118 -21.531  0.00  0.00    +0.002 C 
ATOM     14  C   UNL     1      33.697  -3.599 -28.198  0.00  0.00    +0.094 C 
ATOM     15  C   UNL     1      35.415  -5.311 -26.815  0.00  0.00    +0.091 C 
ATOM     16  C   UNL     1      30.486  -1.989 -23.642  0.00  0.00    +0.006 C 
ATOM     17  C   UNL     1      34.336  -4.748 -26.126  0.00  0.00    -0.002 C 
ATOM     18  C   UNL     1      31.090  -2.010 -24.891  0.00  0.00    +0.048 C 
ATOM     19  C   UNL     1      31.952  -2.515 -27.616  0.00  0.00    +0.226 C 
ENDROOT
BRANCH   4  20
ATOM     20  N   UNL     1      32.076  -6.515 -22.849  0.00  0.00    -0.265 NA
ATOM     21  C   UNL     1      33.532  -8.809 -23.831  0.00  0.00    -0.063 C 
ATOM     22  C   UNL     1      34.252  -7.612 -23.212  0.00  0.00    -0.004 C 
ATOM     23  C   UNL     1      32.136  -8.949 -23.224  0.00  0.00    -0.004 C 
ATOM     24  C   UNL     1      33.438  -6.330 -23.370  0.00  0.00    +0.071 C 
ATOM     25  C   UNL     1      31.327  -7.660 -23.377  0.00  0.00    +0.071 C 
BRANCH  21  26
ATOM     26  N   UNL     1      34.297 -10.018 -23.642  0.00  0.00    +0.382 N 
ATOM     27  H   UNL     1      33.791 -10.646 -23.017  0.00  0.00    -0.089 HD
ATOM     28  H   UNL     1      35.201  -9.787 -23.232  0.00  0.00    -0.089 HD
ATOM     29  H   UNL     1      34.438 -10.476 -24.542  0.00  0.00    -0.089 HD
ENDBRANCH  21  26
ENDBRANCH   4  20
BRANCH   7  30
ATOM     30  O   UNL     1      36.701  -5.596 -28.805  0.00  0.00    -0.479 OA
BRANCH  30  31
ATOM     31  C   UNL     1      37.525  -4.731 -29.581  0.00  0.00    +0.210 C 
BRANCH  31  33
ATOM     32  O   UNL     1      40.564  -5.630 -29.954  0.00  0.00    -0.353 OA
ATOM     33  C   UNL     1      38.913  -4.707 -28.971  0.00  0.00    +0.095 C 
ATOM     34  C   UNL     1      40.009  -4.296 -29.944  0.00  0.00    +0.148 C 
ATOM     35  C   UNL     1      39.605  -6.063 -28.961  0.00  0.00    +0.148 C 
ATOM     36  C   UNL     1      38.930  -3.977 -27.653  0.00  0.00    +0.009 C 
ENDBRANCH  31  33
ENDBRANCH  30  31
ENDBRANCH   7  30
TORSDOF 5
ENDMDL
MODEL 6
REMARK VINA RESULT:      -6.1     15.656     20.116
REMARK  Name = 10366136
REMARK  5 active torsions:
REMARK  status: ('A' for Active; 'I' for Inactive)
REMARK    1  A    between atoms: C_4  and  N_20
REMARK    2  A    between atoms: C_7  and  O_30
REMARK    3  A    between atoms: C_21  and  N_26
REMARK    4  A    between atoms: O_30  and  C_31
REMARK    5  A    between atoms: C_31  and  C_33
REMARK                            x       y       z     vdW  Elec       q    Type
REMARK                         _______ _______ _______ _____ _____    ______ ____
ROOT
ATOM      1  N   UNL     1      32.134  -3.797 -25.088  0.00  0.00    -0.389 NA
ATOM      2  N   UNL     1      32.580  -2.816 -27.169  0.00  0.00    -0.240 N 
ATOM      3  N   UNL     1      33.001  -2.476 -29.333  0.00  0.00    -0.246 NA
ATOM      4  C   UNL     1      31.714  -4.821 -22.988  0.00  0.00    +0.133 C 
ATOM      5  C   UNL     1      31.461  -3.795 -23.921  0.00  0.00    +0.129 C 
ATOM      6  C   UNL     1      31.012  -4.826 -21.761  0.00  0.00    -0.003 C 
ATOM      7  C   UNL     1      36.250  -4.106 -28.463  0.00  0.00    +0.122 C 
ATOM      8  C   UNL     1      30.517  -2.796 -23.608  0.00  0.00    +0.027 C 
ATOM      9  C   UNL     1      31.881  -2.805 -25.973  0.00  0.00    +0.188 C 
ATOM     10  C   UNL     1      30.082  -3.838 -21.460  0.00  0.00    -0.003 C 
ATOM     11  C   UNL     1      33.844  -3.315 -27.389  0.00  0.00    +0.069 C 
ATOM     12  C   UNL     1      35.308  -3.492 -29.297  0.00  0.00    +0.053 C 
ATOM     13  C   UNL     1      29.834  -2.825 -22.381  0.00  0.00    +0.002 C 
ATOM     14  C   UNL     1      34.081  -3.090 -28.742  0.00  0.00    +0.094 C 
ATOM     15  C   UNL     1      35.982  -4.318 -27.108  0.00  0.00    +0.091 C 
ATOM     16  C   UNL     1      30.285  -1.786 -24.552  0.00  0.00    +0.006 C 
ATOM     17  C   UNL     1      34.767  -3.925 -26.539  0.00  0.00    -0.002 C 
ATOM     18  C   UNL     1      30.975  -1.787 -25.756  0.00  0.00    +0.048 C 
ATOM     19  C   UNL     1      32.123  -2.326 -28.367  0.00  0.00    +0.226 C 
ENDROOT
BRANCH   4  20
ATOM     20  N   UNL     1      32.642  -5.836 -23.253  0.00  0.00    -0.265 NA
ATOM     21  C   UNL     1      34.590  -7.930 -23.659  0.00  0.00    -0.063 C 
ATOM     22  C   UNL     1      33.170  -8.241 -23.189  0.00  0.00    -0.004 C 
ATOM     23  C   UNL     1      34.590  -6.662 -24.513  0.00  0.00    -0.004 C 
ATOM     24  C   UNL     1      32.559  -7.058 -22.442  0.00  0.00    +0.071 C 
ATOM     25  C   UNL     1      33.970  -5.482 -23.765  0.00  0.00    +0.071 C 
BRANCH  21  26
ATOM     26  N   UNL     1      35.140  -9.043 -24.393  0.00  0.00    +0.382 N 
ATOM     27  H   UNL     1      35.781  -8.696 -25.107  0.00  0.00    -0.089 HD
ATOM     28  H   UNL     1      34.384  -9.563 -24.838  0.00  0.00    -0.089 HD
ATOM     29  H   UNL     1      35.645  -9.657 -23.754  0.00  0.00    -0.089 HD
ENDBRANCH  21  26
ENDBRANCH   4  20
BRANCH   7  30
ATOM     30  O   UNL     1      37.447  -4.502 -28.983  0.00  0.00    -0.479 OA
BRANCH  30  31
ATOM     31  C   UNL     1      38.277  -3.487 -29.541  0.00  0.00    +0.210 C 
BRANCH  31  33
ATOM     32  O   UNL     1      41.157  -4.569 -28.692  0.00  0.00    -0.353 OA
ATOM     33  C   UNL     1      39.465  -3.274 -28.623  0.00  0.00    +0.095 C 
ATOM     34  C   UNL     1      40.811  -3.320 -29.333  0.00  0.00    +0.148 C 
ATOM     35  C   UNL     1      39.935  -4.539 -27.919  0.00  0.00    +0.148 C 
ATOM     36  C   UNL     1      39.265  -2.083 -27.721  0.00  0.00    +0.009 C 
ENDBRANCH  31  33
ENDBRANCH  30  31
ENDBRANCH   7  30
TORSDOF 5
ENDMDL
MODEL 7
REMARK VINA RESULT:      -5.7      3.358      6.859
REMARK  Name = 10366136
REMARK  5 active torsions:
REMARK  status: ('A' for Active; 'I' for Inactive)
REMARK    1  A    between atoms: C_4  and  N_20
REMARK    2  A    between atoms: C_7  and  O_30
REMARK    3  A    between atoms: C_21  and  N_26
REMARK    4  A    between atoms: O_30  and  C_31
REMARK    5  A    between atoms: C_31  and  C_33
REMARK                            x       y       z     vdW  Elec       q    Type
REMARK                         _______ _______ _______ _____ _____    ______ ____
ROOT
ATOM      1  N   UNL     1      34.421 -23.243 -14.861  0.00  0.00    -0.389 NA
ATOM      2  N   UNL     1      32.684 -23.997 -13.480  0.00  0.00    -0.240 N 
ATOM      3  N   UNL     1      30.805 -24.917 -12.708  0.00  0.00    -0.246 NA
ATOM      4  C   UNL     1      36.151 -22.465 -16.288  0.00  0.00    +0.133 C 
ATOM      5  C   UNL     1      35.738 -23.067 -15.083  0.00  0.00    +0.129 C 
ATOM      6  C   UNL     1      37.531 -22.277 -16.528  0.00  0.00    -0.003 C 
ATOM      7  C   UNL     1      29.222 -22.097 -14.581  0.00  0.00    +0.122 C 
ATOM      8  C   UNL     1      36.711 -23.466 -14.143  0.00  0.00    +0.027 C 
ATOM      9  C   UNL     1      34.041 -23.822 -13.698  0.00  0.00    +0.188 C 
ATOM     10  C   UNL     1      38.484 -22.673 -15.598  0.00  0.00    -0.003 C 
ATOM     11  C   UNL     1      31.658 -23.215 -13.959  0.00  0.00    +0.069 C 
ATOM     12  C   UNL     1      29.253 -23.243 -13.778  0.00  0.00    +0.053 C 
ATOM     13  C   UNL     1      38.077 -23.267 -14.408  0.00  0.00    +0.002 C 
ATOM     14  C   UNL     1      30.501 -23.809 -13.464  0.00  0.00    +0.094 C 
ATOM     15  C   UNL     1      30.401 -21.523 -15.063  0.00  0.00    +0.091 C 
ATOM     16  C   UNL     1      36.274 -24.061 -12.952  0.00  0.00    +0.006 C 
ATOM     17  C   UNL     1      31.651 -22.073 -14.761  0.00  0.00    -0.002 C 
ATOM     18  C   UNL     1      34.919 -24.245 -12.721  0.00  0.00    +0.048 C 
ATOM     19  C   UNL     1      32.116 -25.001 -12.737  0.00  0.00    +0.226 C 
ENDROOT
BRANCH   4  20
ATOM     20  N   UNL     1      35.223 -22.053 -17.253  0.00  0.00    -0.265 NA
ATOM     21  C   UNL     1      33.308 -21.338 -19.295  0.00  0.00    -0.063 C 
ATOM     22  C   UNL     1      32.869 -21.968 -17.974  0.00  0.00    -0.004 C 
ATOM     23  C   UNL     1      34.593 -20.535 -19.088  0.00  0.00    -0.004 C 
ATOM     24  C   UNL     1      33.979 -22.825 -17.369  0.00  0.00    +0.071 C 
ATOM     25  C   UNL     1      35.698 -21.395 -18.475  0.00  0.00    +0.071 C 
BRANCH  21  26
ATOM     26  N   UNL     1      32.263 -20.504 -19.834  0.00  0.00    +0.382 N 
ATOM     27  H   UNL     1      32.618 -19.996 -20.644  0.00  0.00    -0.089 HD
ATOM     28  H   UNL     1      31.957 -19.839 -19.124  0.00  0.00    -0.089 HD
ATOM     29  H   UNL     1      31.474 -21.085 -20.118  0.00  0.00    -0.089 HD
ENDBRANCH  21  26
ENDBRANCH   4  20
BRANCH   7  30
ATOM     30  O   UNL     1      28.021 -21.532 -14.895  0.00  0.00    -0.479 OA
BRANCH  30  31
ATOM     31  C   UNL     1      27.770 -21.272 -16.274  0.00  0.00    +0.210 C 
BRANCH  31  33
ATOM     32  O   UNL     1      25.569 -21.545 -18.569  0.00  0.00    -0.353 OA
ATOM     33  C   UNL     1      26.325 -21.620 -16.577  0.00  0.00    +0.095 C 
ATOM     34  C   UNL     1      26.152 -22.580 -17.745  0.00  0.00    +0.148 C 
ATOM     35  C   UNL     1      25.622 -20.606 -17.469  0.00  0.00    +0.148 C 
ATOM     36  C   UNL     1      25.569 -21.997 -15.329  0.00  0.00    +0.009 C 
ENDBRANCH  31  33
ENDBRANCH  30  31
ENDBRANCH   7  30
TORSDOF 5
ENDMDL
MODEL 8
REMARK VINA RESULT:      -5.0     12.237     16.016
REMARK  Name = 10366136
REMARK  5 active torsions:
REMARK  status: ('A' for Active; 'I' for Inactive)
REMARK    1  A    between atoms: C_4  and  N_20
REMARK    2  A    between atoms: C_7  and  O_30
REMARK    3  A    between atoms: C_21  and  N_26
REMARK    4  A    between atoms: O_30  and  C_31
REMARK    5  A    between atoms: C_31  and  C_33
REMARK                            x       y       z     vdW  Elec       q    Type
REMARK                         _______ _______ _______ _____ _____    ______ ____
ROOT
ATOM      1  N   UNL     1      31.987  -7.887 -21.731  0.00  0.00    -0.389 NA
ATOM      2  N   UNL     1      32.188  -5.733 -22.633  0.00  0.00    -0.240 N 
ATOM      3  N   UNL     1      32.098  -3.953 -23.975  0.00  0.00    -0.246 NA
ATOM      4  C   UNL     1      31.797 -10.085 -20.857  0.00  0.00    +0.133 C 
ATOM      5  C   UNL     1      31.715  -8.689 -20.684  0.00  0.00    +0.129 C 
ATOM      6  C   UNL     1      31.513 -10.934 -19.763  0.00  0.00    -0.003 C 
ATOM      7  C   UNL     1      34.572  -5.927 -25.963  0.00  0.00    +0.122 C 
ATOM      8  C   UNL     1      31.353  -8.171 -19.424  0.00  0.00    +0.027 C 
ATOM      9  C   UNL     1      31.905  -6.548 -21.549  0.00  0.00    +0.188 C 
ATOM     10  C   UNL     1      31.157 -10.416 -18.524  0.00  0.00    -0.003 C 
ATOM     11  C   UNL     1      33.050  -6.002 -23.672  0.00  0.00    +0.069 C 
ATOM     12  C   UNL     1      33.750  -4.834 -25.663  0.00  0.00    +0.053 C 
ATOM     13  C   UNL     1      31.076  -9.037 -18.353  0.00  0.00    +0.002 C 
ATOM     14  C   UNL     1      32.975  -4.879 -24.492  0.00  0.00    +0.094 C 
ATOM     15  C   UNL     1      34.625  -7.040 -25.121  0.00  0.00    +0.091 C 
ATOM     16  C   UNL     1      31.280  -6.779 -19.278  0.00  0.00    +0.006 C 
ATOM     17  C   UNL     1      33.861  -7.102 -23.951  0.00  0.00    -0.002 C 
ATOM     18  C   UNL     1      31.558  -5.950 -20.356  0.00  0.00    +0.048 C 
ATOM     19  C   UNL     1      31.646  -4.494 -22.865  0.00  0.00    +0.226 C 
ENDROOT
BRANCH   4  20
ATOM     20  N   UNL     1      32.151 -10.648 -22.089  0.00  0.00    -0.265 NA
ATOM     21  C   UNL     1      33.015 -11.833 -24.579  0.00  0.00    -0.063 C 
ATOM     22  C   UNL     1      32.529 -12.692 -23.413  0.00  0.00    -0.004 C 
ATOM     23  C   UNL     1      32.333 -10.466 -24.539  0.00  0.00    -0.004 C 
ATOM     24  C   UNL     1      32.749 -11.990 -22.074  0.00  0.00    +0.071 C 
ATOM     25  C   UNL     1      32.550  -9.770 -23.195  0.00  0.00    +0.071 C 
BRANCH  21  26
ATOM     26  N   UNL     1      32.767 -12.494 -25.837  0.00  0.00    +0.382 N 
ATOM     27  H   UNL     1      32.041 -13.200 -25.712  0.00  0.00    -0.089 HD
ATOM     28  H   UNL     1      33.625 -12.942 -26.160  0.00  0.00    -0.089 HD
ATOM     29  H   UNL     1      32.460 -11.809 -26.527  0.00  0.00    -0.089 HD
ENDBRANCH  21  26
ENDBRANCH   4  20
BRANCH   7  30
ATOM     30  O   UNL     1      35.331  -5.902 -27.095  0.00  0.00    -0.479 OA
BRANCH  30  31
ATOM     31  C   UNL     1      35.402  -4.665 -27.800  0.00  0.00    +0.210 C 
BRANCH  31  33
ATOM     32  O   UNL     1      33.172  -4.058 -30.001  0.00  0.00    -0.353 OA
ATOM     33  C   UNL     1      34.975  -4.901 -29.235  0.00  0.00    +0.095 C 
ATOM     34  C   UNL     1      34.555  -3.636 -29.971  0.00  0.00    +0.148 C 
ATOM     35  C   UNL     1      33.519  -5.320 -29.384  0.00  0.00    +0.148 C 
ATOM     36  C   UNL     1      35.962  -5.765 -29.976  0.00  0.00    +0.009 C 
ENDBRANCH  31  33
ENDBRANCH  30  31
ENDBRANCH   7  30
TORSDOF 5
ENDMDL
