MODEL 1
REMARK VINA RESULT:     -11.6      0.000      0.000
REMARK  Name = 448202
REMARK  4 active torsions:
REMARK  status: ('A' for Active; 'I' for Inactive)
REMARK    1  A    between atoms: C_3  and  C_20
REMARK    2  A    between atoms: C_8  and  C_31
REMARK    3  A    between atoms: C_14  and  N_23
REMARK    4  A    between atoms: C_34  and  N_37
REMARK                            x       y       z     vdW  Elec       q    Type
REMARK                         _______ _______ _______ _____ _____    ______ ____
ROOT
ATOM      1  N   UNL     1      34.209 -15.387 -21.427  0.00  0.00    -0.315 N 
ATOM      2  N   UNL     1      33.838 -16.487 -23.322  0.00  0.00    -0.315 N 
ATOM      3  C   UNL     1      33.517 -12.350 -23.456  0.00  0.00    +0.016 C 
ATOM      4  C   UNL     1      33.922 -14.423 -22.359  0.00  0.00    +0.059 C 
ATOM      5  C   UNL     1      33.844 -13.033 -22.278  0.00  0.00    +0.015 C 
ATOM      6  C   UNL     1      33.694 -15.135 -23.534  0.00  0.00    +0.059 C 
ATOM      7  C   UNL     1      33.283 -13.037 -24.650  0.00  0.00    +0.000 C 
ATOM      8  C   UNL     1      34.147 -16.603 -22.050  0.00  0.00    +0.168 C 
ATOM      9  C   UNL     1      33.367 -14.434 -24.707  0.00  0.00    +0.015 C 
ATOM     10  H   UNL     1      34.422 -15.231 -20.478  0.00  0.00    +0.149 HD
ATOM     11  H   UNL     1      33.733 -17.211 -23.981  0.00  0.00    +0.149 HD
ENDROOT
BRANCH   3  20
ATOM     12  N   UNL     1      32.280 -10.266 -23.046  0.00  0.00    -0.314 N 
ATOM     13  N   UNL     1      34.371 -10.067 -23.770  0.00  0.00    -0.315 N 
ATOM     14  C   UNL     1      32.261  -6.524 -23.074  0.00  0.00    +0.049 C 
ATOM     15  C   UNL     1      31.704  -7.809 -22.869  0.00  0.00    +0.030 C 
ATOM     16  C   UNL     1      32.508  -8.917 -23.137  0.00  0.00    +0.061 C 
ATOM     17  C   UNL     1      33.593  -6.420 -23.534  0.00  0.00    +0.016 C 
ATOM     18  C   UNL     1      33.820  -8.819 -23.591  0.00  0.00    +0.059 C 
ATOM     19  C   UNL     1      34.381  -7.546 -23.796  0.00  0.00    +0.017 C 
ATOM     20  C   UNL     1      33.421 -10.911 -23.434  0.00  0.00    +0.168 C 
ATOM     21  H   UNL     1      31.442 -10.694 -22.754  0.00  0.00    +0.149 HD
ATOM     22  H   UNL     1      35.280 -10.282 -24.082  0.00  0.00    +0.149 HD
BRANCH  14  23
ATOM     23  N   UNL     1      31.502  -5.376 -22.822  0.00  0.00    -0.312 N 
ATOM     24  N   UNL     1      29.767  -3.136 -22.458  0.00  0.00    +0.388 N 
ATOM     25  C   UNL     1      30.520  -5.377 -21.733  0.00  0.00    +0.068 C 
ATOM     26  C   UNL     1      31.196  -4.490 -23.953  0.00  0.00    +0.068 C 
ATOM     27  C   UNL     1      30.188  -3.944 -21.307  0.00  0.00    -0.056 C 
ATOM     28  C   UNL     1      30.845  -3.086 -23.455  0.00  0.00    -0.056 C 
ATOM     29  C   UNL     1      29.402  -1.786 -22.030  0.00  0.00    -0.101 C 
ATOM     30  H   UNL     1      28.947  -3.568 -22.882  0.00  0.00    -0.080 HD
ENDBRANCH  14  23
ENDBRANCH   3  20
BRANCH   8  31
ATOM     31  C   UNL     1      34.398 -17.837 -21.345  0.00  0.00    +0.014 C 
ATOM     32  C   UNL     1      33.339 -18.690 -21.038  0.00  0.00    +0.000 C 
ATOM     33  C   UNL     1      35.698 -18.175 -20.972  0.00  0.00    +0.000 C 
ATOM     34  C   UNL     1      34.881 -20.221 -19.982  0.00  0.00    +0.048 C 
ATOM     35  C   UNL     1      33.580 -19.883 -20.356  0.00  0.00    +0.014 C 
ATOM     36  C   UNL     1      35.939 -19.367 -20.289  0.00  0.00    +0.014 C 
BRANCH  34  37
ATOM     37  N   UNL     1      35.125 -21.428 -19.293  0.00  0.00    -0.304 N 
ATOM     38  C   UNL     1      36.187 -21.509 -18.309  0.00  0.00    +0.112 C 
ATOM     39  C   UNL     1      34.310 -22.598 -19.550  0.00  0.00    +0.112 C 
ENDBRANCH  34  37
ENDBRANCH   8  31
TORSDOF 4
ENDMDL
MODEL 2
REMARK VINA RESULT:     -10.6      1.851     13.004
REMARK  Name = 448202
REMARK  4 active torsions:
REMARK  status: ('A' for Active; 'I' for Inactive)
REMARK    1  A    between atoms: C_3  and  C_20
REMARK    2  A    between atoms: C_8  and  C_31
REMARK    3  A    between atoms: C_14  and  N_23
REMARK    4  A    between atoms: C_34  and  N_37
REMARK                            x       y       z     vdW  Elec       q    Type
REMARK                         _______ _______ _______ _____ _____    ______ ____
ROOT
ATOM      1  N   UNL     1      32.291  -8.507 -24.011  0.00  0.00    -0.315 N 
ATOM      2  N   UNL     1      30.926  -7.916 -22.360  0.00  0.00    -0.315 N 
ATOM      3  C   UNL     1      32.460 -11.773 -22.244  0.00  0.00    +0.016 C 
ATOM      4  C   UNL     1      32.202  -9.608 -23.199  0.00  0.00    +0.059 C 
ATOM      5  C   UNL     1      32.780 -10.875 -23.269  0.00  0.00    +0.015 C 
ATOM      6  C   UNL     1      31.344  -9.215 -22.175  0.00  0.00    +0.059 C 
ATOM      7  C   UNL     1      31.601 -11.406 -21.204  0.00  0.00    +0.000 C 
ATOM      8  C   UNL     1      31.512  -7.523 -23.468  0.00  0.00    +0.168 C 
ATOM      9  C   UNL     1      31.032 -10.127 -21.154  0.00  0.00    +0.015 C 
ATOM     10  H   UNL     1      32.823  -8.437 -24.837  0.00  0.00    +0.149 HD
ATOM     11  H   UNL     1      30.318  -7.396 -21.786  0.00  0.00    +0.149 HD
ENDROOT
BRANCH   3  20
ATOM     12  N   UNL     1      33.095 -13.873 -21.138  0.00  0.00    -0.314 N 
ATOM     13  N   UNL     1      33.532 -13.710 -23.310  0.00  0.00    -0.315 N 
ATOM     14  C   UNL     1      34.611 -17.283 -21.424  0.00  0.00    +0.049 C 
ATOM     15  C   UNL     1      33.994 -16.205 -20.745  0.00  0.00    +0.030 C 
ATOM     16  C   UNL     1      33.682 -15.064 -21.483  0.00  0.00    +0.061 C 
ATOM     17  C   UNL     1      34.880 -17.158 -22.805  0.00  0.00    +0.016 C 
ATOM     18  C   UNL     1      33.945 -14.937 -22.844  0.00  0.00    +0.059 C 
ATOM     19  C   UNL     1      34.557 -16.003 -23.526  0.00  0.00    +0.017 C 
ATOM     20  C   UNL     1      33.027 -13.099 -22.262  0.00  0.00    +0.168 C 
ATOM     21  H   UNL     1      32.778 -13.622 -20.239  0.00  0.00    +0.149 HD
ATOM     22  H   UNL     1      33.599 -13.364 -24.229  0.00  0.00    +0.149 HD
BRANCH  14  23
ATOM     23  N   UNL     1      34.949 -18.453 -20.735  0.00  0.00    -0.312 N 
ATOM     24  N   UNL     1      35.657 -20.959 -19.561  0.00  0.00    +0.388 N 
ATOM     25  C   UNL     1      36.361 -18.801 -20.541  0.00  0.00    +0.068 C 
ATOM     26  C   UNL     1      34.019 -19.587 -20.804  0.00  0.00    +0.068 C 
ATOM     27  C   UNL     1      36.517 -19.784 -19.378  0.00  0.00    -0.056 C 
ATOM     28  C   UNL     1      34.250 -20.543 -19.631  0.00  0.00    -0.056 C 
ATOM     29  C   UNL     1      35.855 -21.915 -18.472  0.00  0.00    -0.101 C 
ATOM     30  H   UNL     1      35.908 -21.418 -20.436  0.00  0.00    -0.080 HD
ENDBRANCH  14  23
ENDBRANCH   3  20
BRANCH   8  31
ATOM     31  C   UNL     1      31.383  -6.224 -24.083  0.00  0.00    +0.014 C 
ATOM     32  C   UNL     1      32.038  -5.954 -25.285  0.00  0.00    +0.000 C 
ATOM     33  C   UNL     1      30.605  -5.239 -23.477  0.00  0.00    +0.000 C 
ATOM     34  C   UNL     1      31.135  -3.713 -25.272  0.00  0.00    +0.048 C 
ATOM     35  C   UNL     1      31.914  -4.699 -25.879  0.00  0.00    +0.014 C 
ATOM     36  C   UNL     1      30.482  -3.983 -24.070  0.00  0.00    +0.014 C 
BRANCH  34  37
ATOM     37  N   UNL     1      31.009  -2.444 -25.874  0.00  0.00    -0.304 N 
ATOM     38  C   UNL     1      32.166  -1.786 -26.449  0.00  0.00    +0.112 C 
ATOM     39  C   UNL     1      29.719  -1.786 -25.938  0.00  0.00    +0.112 C 
ENDBRANCH  34  37
ENDBRANCH   8  31
TORSDOF 4
ENDMDL
MODEL 3
REMARK VINA RESULT:      -8.7      1.940      4.958
REMARK  Name = 448202
REMARK  4 active torsions:
REMARK  status: ('A' for Active; 'I' for Inactive)
REMARK    1  A    between atoms: C_3  and  C_20
REMARK    2  A    between atoms: C_8  and  C_31
REMARK    3  A    between atoms: C_14  and  N_23
REMARK    4  A    between atoms: C_34  and  N_37
REMARK                            x       y       z     vdW  Elec       q    Type
REMARK                         _______ _______ _______ _____ _____    ______ ____
ROOT
ATOM      1  N   UNL     1      34.680 -18.990 -19.482  0.00  0.00    -0.315 N 
ATOM      2  N   UNL     1      34.996 -20.692 -20.877  0.00  0.00    -0.315 N 
ATOM      3  C   UNL     1      34.152 -16.999 -22.577  0.00  0.00    +0.016 C 
ATOM      4  C   UNL     1      34.527 -18.466 -20.740  0.00  0.00    +0.059 C 
ATOM      5  C   UNL     1      34.237 -17.178 -21.191  0.00  0.00    +0.015 C 
ATOM      6  C   UNL     1      34.728 -19.548 -21.593  0.00  0.00    +0.059 C 
ATOM      7  C   UNL     1      34.349 -18.066 -23.457  0.00  0.00    +0.000 C 
ATOM      8  C   UNL     1      34.960 -20.322 -19.616  0.00  0.00    +0.168 C 
ATOM      9  C   UNL     1      34.639 -19.351 -22.981  0.00  0.00    +0.015 C 
ATOM     10  H   UNL     1      34.604 -18.496 -18.634  0.00  0.00    +0.149 HD
ATOM     11  H   UNL     1      35.176 -21.592 -21.232  0.00  0.00    +0.149 HD
ENDROOT
BRANCH   3  20
ATOM     12  N   UNL     1      33.912 -14.566 -22.326  0.00  0.00    -0.314 N 
ATOM     13  N   UNL     1      33.505 -15.414 -24.339  0.00  0.00    -0.315 N 
ATOM     14  C   UNL     1      33.096 -11.275 -23.908  0.00  0.00    +0.049 C 
ATOM     15  C   UNL     1      33.474 -12.129 -22.846  0.00  0.00    +0.030 C 
ATOM     16  C   UNL     1      33.577 -13.494 -23.113  0.00  0.00    +0.061 C 
ATOM     17  C   UNL     1      32.842 -11.834 -25.181  0.00  0.00    +0.016 C 
ATOM     18  C   UNL     1      33.328 -14.050 -24.365  0.00  0.00    +0.059 C 
ATOM     19  C   UNL     1      32.952 -13.208 -25.426  0.00  0.00    +0.017 C 
ATOM     20  C   UNL     1      33.855 -15.690 -23.103  0.00  0.00    +0.168 C 
ATOM     21  H   UNL     1      34.151 -14.532 -21.371  0.00  0.00    +0.149 HD
ATOM     22  H   UNL     1      33.394 -16.047 -25.085  0.00  0.00    +0.149 HD
BRANCH  14  23
ATOM     23  N   UNL     1      32.976  -9.896 -23.700  0.00  0.00    -0.312 N 
ATOM     24  N   UNL     1      32.745  -7.131 -23.020  0.00  0.00    +0.388 N 
ATOM     25  C   UNL     1      34.182  -9.079 -23.526  0.00  0.00    +0.068 C 
ATOM     26  C   UNL     1      31.772  -9.404 -23.020  0.00  0.00    +0.068 C 
ATOM     27  C   UNL     1      33.881  -7.607 -23.819  0.00  0.00    -0.056 C 
ATOM     28  C   UNL     1      31.548  -7.922 -23.332  0.00  0.00    -0.056 C 
ATOM     29  C   UNL     1      32.502  -5.711 -23.269  0.00  0.00    -0.101 C 
ATOM     30  H   UNL     1      32.968  -7.247 -22.031  0.00  0.00    -0.080 HD
ENDBRANCH  14  23
ENDBRANCH   3  20
BRANCH   8  31
ATOM     31  C   UNL     1      35.179 -21.176 -18.473  0.00  0.00    +0.014 C 
ATOM     32  C   UNL     1      34.173 -22.045 -18.052  0.00  0.00    +0.000 C 
ATOM     33  C   UNL     1      36.394 -21.132 -17.791  0.00  0.00    +0.000 C 
ATOM     34  C   UNL     1      35.599 -22.826 -16.265  0.00  0.00    +0.048 C 
ATOM     35  C   UNL     1      34.383 -22.870 -16.947  0.00  0.00    +0.014 C 
ATOM     36  C   UNL     1      36.604 -21.956 -16.686  0.00  0.00    +0.014 C 
BRANCH  34  37
ATOM     37  N   UNL     1      35.812 -23.661 -15.148  0.00  0.00    -0.304 N 
ATOM     38  C   UNL     1      34.698 -24.344 -14.519  0.00  0.00    +0.112 C 
ATOM     39  C   UNL     1      37.149 -23.858 -14.623  0.00  0.00    +0.112 C 
ENDBRANCH  34  37
ENDBRANCH   8  31
TORSDOF 4
ENDMDL
