MODEL 1
REMARK VINA RESULT:      -8.6      0.000      0.000
REMARK  Name = 51346455
REMARK  5 active torsions:
REMARK  status: ('A' for Active; 'I' for Inactive)
REMARK    1  A    between atoms: C_9  and  C_32
REMARK    2  A    between atoms: C_12  and  N_15
REMARK    3  A    between atoms: N_14  and  C_28
REMARK    4  A    between atoms: C_20  and  C_27
REMARK    5  A    between atoms: C_32  and  N_34
REMARK                            x       y       z     vdW  Elec       q    Type
REMARK                         _______ _______ _______ _____ _____    ______ ____
ROOT
ATOM      1  O   UNL     1      35.308 -15.390 -22.414  0.00  0.00    -0.273 OA
ATOM      2  N   UNL     1      34.537 -17.553 -22.308  0.00  0.00    -0.274 N 
ATOM      3  C   UNL     1      35.793 -18.292 -22.209  0.00  0.00    +0.098 C 
ATOM      4  C   UNL     1      33.571 -18.652 -22.316  0.00  0.00    +0.098 C 
ATOM      5  C   UNL     1      35.650 -19.165 -23.476  0.00  0.00    +0.026 C 
ATOM      6  C   UNL     1      34.099 -19.417 -23.550  0.00  0.00    +0.026 C 
ATOM      7  C   UNL     1      35.456 -19.180 -21.033  0.00  0.00    -0.005 C 
ATOM      8  C   UNL     1      34.060 -19.406 -21.100  0.00  0.00    -0.007 C 
ATOM      9  C   UNL     1      34.380 -16.199 -22.444  0.00  0.00    +0.246 C 
ATOM     10  C   UNL     1      36.235 -19.747 -20.051  0.00  0.00    +0.012 C 
ATOM     11  C   UNL     1      33.413 -20.205 -20.186  0.00  0.00    -0.002 C 
ATOM     12  C   UNL     1      35.586 -20.555 -19.112  0.00  0.00    +0.057 C 
ATOM     13  C   UNL     1      34.194 -20.780 -19.179  0.00  0.00    +0.015 C 
ENDROOT
BRANCH  12  15
ATOM     14  N   UNL     1      32.945 -22.791 -15.241  0.00  0.00    -0.309 N 
ATOM     15  N   UNL     1      36.335 -21.161 -18.080  0.00  0.00    -0.247 N 
ATOM     16  N   UNL     1      34.641 -21.964 -16.678  0.00  0.00    -0.322 NA
ATOM     17  N   UNL     1      36.964 -22.299 -16.132  0.00  0.00    -0.170 NA
ATOM     18  C   UNL     1      34.319 -22.623 -15.545  0.00  0.00    +0.198 C 
ATOM     19  C   UNL     1      35.962 -21.840 -16.906  0.00  0.00    +0.150 C 
ATOM     20  C   UNL     1      35.249 -23.141 -14.668  0.00  0.00    +0.136 C 
ATOM     21  C   UNL     1      36.570 -22.946 -15.016  0.00  0.00    +0.119 C 
ATOM     22  H   UNL     1      32.737 -23.274 -14.408  0.00  0.00    +0.149 HD
ATOM     23  H   UNL     1      37.310 -21.096 -18.206  0.00  0.00    +0.165 HD
BRANCH  20  27
ATOM     24  F   UNL     1      34.685 -23.030 -12.360  0.00  0.00    -0.166 F 
ATOM     25  F   UNL     1      33.741 -24.605 -13.524  0.00  0.00    -0.166 F 
ATOM     26  F   UNL     1      35.842 -24.755 -13.005  0.00  0.00    -0.166 F 
ATOM     27  C   UNL     1      34.888 -23.867 -13.421  0.00  0.00    +0.424 C 
ENDBRANCH  20  27
BRANCH  14  28
ATOM     28  C   UNL     1      31.836 -22.339 -16.002  0.00  0.00    +0.071 C 
ATOM     29  C   UNL     1      30.619 -21.980 -15.124  0.00  0.00    +0.020 C 
ATOM     30  C   UNL     1      30.990 -23.499 -16.567  0.00  0.00    +0.020 C 
ATOM     31  C   UNL     1      29.743 -22.672 -16.189  0.00  0.00    +0.003 C 
ENDBRANCH  14  28
ENDBRANCH  12  15
BRANCH   9  32
ATOM     32  C   UNL     1      32.960 -15.738 -22.635  0.00  0.00    +0.176 C 
BRANCH  32  34
ATOM     33  O   UNL     1      32.995 -15.764 -25.538  0.00  0.00    -0.275 OA
ATOM     34  N   UNL     1      33.037 -14.614 -23.511  0.00  0.00    -0.297 N 
ATOM     35  C   UNL     1      33.050 -14.716 -24.902  0.00  0.00    +0.223 C 
ATOM     36  C   UNL     1      33.113 -13.375 -25.584  0.00  0.00    +0.095 C 
ATOM     37  H   UNL     1      33.086 -13.717 -23.111  0.00  0.00    +0.150 HD
ENDBRANCH  32  34
ENDBRANCH   9  32
TORSDOF 5
ENDMDL
MODEL 2
REMARK VINA RESULT:      -8.4      6.955     10.656
REMARK  Name = 51346455
REMARK  5 active torsions:
REMARK  status: ('A' for Active; 'I' for Inactive)
REMARK    1  A    between atoms: C_9  and  C_32
REMARK    2  A    between atoms: C_12  and  N_15
REMARK    3  A    between atoms: N_14  and  C_28
REMARK    4  A    between atoms: C_20  and  C_27
REMARK    5  A    between atoms: C_32  and  N_34
REMARK                            x       y       z     vdW  Elec       q    Type
REMARK                         _______ _______ _______ _____ _____    ______ ____
ROOT
ATOM      1  O   UNL     1      34.225  -6.306 -22.138  0.00  0.00    -0.273 OA
ATOM      2  N   UNL     1      32.347  -7.612 -22.371  0.00  0.00    -0.274 N 
ATOM      3  C   UNL     1      32.465  -8.023 -23.767  0.00  0.00    +0.098 C 
ATOM      4  C   UNL     1      31.086  -8.255 -21.999  0.00  0.00    +0.098 C 
ATOM      5  C   UNL     1      31.134  -7.442 -24.295  0.00  0.00    +0.026 C 
ATOM      6  C   UNL     1      30.172  -7.604 -23.061  0.00  0.00    +0.026 C 
ATOM      7  C   UNL     1      32.249  -9.509 -23.598  0.00  0.00    -0.005 C 
ATOM      8  C   UNL     1      31.383  -9.656 -22.488  0.00  0.00    -0.007 C 
ATOM      9  C   UNL     1      33.181  -6.773 -21.680  0.00  0.00    +0.246 C 
ATOM     10  C   UNL     1      32.703 -10.595 -24.309  0.00  0.00    +0.012 C 
ATOM     11  C   UNL     1      30.953 -10.892 -22.065  0.00  0.00    -0.002 C 
ATOM     12  C   UNL     1      32.278 -11.857 -23.884  0.00  0.00    +0.057 C 
ATOM     13  C   UNL     1      31.414 -12.003 -22.776  0.00  0.00    +0.015 C 
ENDROOT
BRANCH  12  15
ATOM     14  N   UNL     1      34.092 -15.806 -21.042  0.00  0.00    -0.309 N 
ATOM     15  N   UNL     1      32.715 -13.009 -24.576  0.00  0.00    -0.247 N 
ATOM     16  N   UNL     1      33.397 -14.387 -22.811  0.00  0.00    -0.322 NA
ATOM     17  N   UNL     1      33.565 -15.127 -25.098  0.00  0.00    -0.170 NA
ATOM     18  C   UNL     1      33.912 -15.575 -22.428  0.00  0.00    +0.198 C 
ATOM     19  C   UNL     1      33.252 -14.233 -24.141  0.00  0.00    +0.150 C 
ATOM     20  C   UNL     1      34.274 -16.573 -23.308  0.00  0.00    +0.136 C 
ATOM     21  C   UNL     1      34.076 -16.291 -24.645  0.00  0.00    +0.119 C 
ATOM     22  H   UNL     1      34.470 -16.680 -20.790  0.00  0.00    +0.149 HD
ATOM     23  H   UNL     1      32.626 -12.941 -25.555  0.00  0.00    +0.165 HD
BRANCH  20  27
ATOM     24  F   UNL     1      34.735 -18.843 -23.847  0.00  0.00    -0.166 F 
ATOM     25  F   UNL     1      36.170 -17.829 -22.566  0.00  0.00    -0.166 F 
ATOM     26  F   UNL     1      34.236 -18.409 -21.775  0.00  0.00    -0.166 F 
ATOM     27  C   UNL     1      34.840 -17.880 -22.882  0.00  0.00    +0.424 C 
ENDBRANCH  20  27
BRANCH  14  28
ATOM     28  C   UNL     1      33.789 -14.919 -19.977  0.00  0.00    +0.071 C 
ATOM     29  C   UNL     1      32.271 -14.709 -19.792  0.00  0.00    +0.020 C 
ATOM     30  C   UNL     1      33.864 -13.436 -20.399  0.00  0.00    +0.020 C 
ATOM     31  C   UNL     1      32.582 -13.215 -19.569  0.00  0.00    +0.003 C 
ENDBRANCH  14  28
ENDBRANCH  12  15
BRANCH   9  32
ATOM     32  C   UNL     1      32.738  -6.444 -20.279  0.00  0.00    +0.176 C 
BRANCH  32  34
ATOM     33  O   UNL     1      32.068  -4.008 -21.711  0.00  0.00    -0.275 OA
ATOM     34  N   UNL     1      31.450  -5.845 -20.416  0.00  0.00    -0.297 N 
ATOM     35  C   UNL     1      31.214  -4.667 -21.125  0.00  0.00    +0.223 C 
ATOM     36  C   UNL     1      29.762  -4.271 -21.131  0.00  0.00    +0.095 C 
ATOM     37  H   UNL     1      30.685  -6.289 -19.985  0.00  0.00    +0.150 HD
ENDBRANCH  32  34
ENDBRANCH   9  32
TORSDOF 5
ENDMDL
MODEL 3
REMARK VINA RESULT:      -8.1      7.293     11.492
REMARK  Name = 51346455
REMARK  5 active torsions:
REMARK  status: ('A' for Active; 'I' for Inactive)
REMARK    1  A    between atoms: C_9  and  C_32
REMARK    2  A    between atoms: C_12  and  N_15
REMARK    3  A    between atoms: N_14  and  C_28
REMARK    4  A    between atoms: C_20  and  C_27
REMARK    5  A    between atoms: C_32  and  N_34
REMARK                            x       y       z     vdW  Elec       q    Type
REMARK                         _______ _______ _______ _____ _____    ______ ____
ROOT
ATOM      1  O   UNL     1      31.570  -4.770 -20.198  0.00  0.00    -0.273 OA
ATOM      2  N   UNL     1      31.310  -6.455 -21.738  0.00  0.00    -0.274 N 
ATOM      3  C   UNL     1      32.539  -7.215 -21.531  0.00  0.00    +0.098 C 
ATOM      4  C   UNL     1      30.693  -7.218 -22.825  0.00  0.00    +0.098 C 
ATOM      5  C   UNL     1      33.124  -7.108 -22.958  0.00  0.00    +0.026 C 
ATOM      6  C   UNL     1      31.835  -7.110 -23.860  0.00  0.00    +0.026 C 
ATOM      7  C   UNL     1      31.947  -8.600 -21.412  0.00  0.00    -0.005 C 
ATOM      8  C   UNL     1      30.787  -8.603 -22.224  0.00  0.00    -0.007 C 
ATOM      9  C   UNL     1      30.936  -5.296 -21.112  0.00  0.00    +0.246 C 
ATOM     10  C   UNL     1      32.353  -9.723 -20.727  0.00  0.00    +0.012 C 
ATOM     11  C   UNL     1      30.009  -9.727 -22.370  0.00  0.00    -0.002 C 
ATOM     12  C   UNL     1      31.564 -10.870 -20.862  0.00  0.00    +0.057 C 
ATOM     13  C   UNL     1      30.408 -10.872 -21.672  0.00  0.00    +0.015 C 
ENDROOT
BRANCH  12  15
ATOM     14  N   UNL     1      34.090 -14.507 -23.574  0.00  0.00    -0.309 N 
ATOM     15  N   UNL     1      31.932 -12.051 -20.180  0.00  0.00    -0.247 N 
ATOM     16  N   UNL     1      33.000 -13.260 -21.876  0.00  0.00    -0.322 NA
ATOM     17  N   UNL     1      32.790 -14.165 -19.653  0.00  0.00    -0.170 NA
ATOM     18  C   UNL     1      33.646 -14.390 -22.234  0.00  0.00    +0.198 C 
ATOM     19  C   UNL     1      32.606 -13.215 -20.590  0.00  0.00    +0.150 C 
ATOM     20  C   UNL     1      33.897 -15.436 -21.371  0.00  0.00    +0.136 C 
ATOM     21  C   UNL     1      33.441 -15.267 -20.079  0.00  0.00    +0.119 C 
ATOM     22  H   UNL     1      34.557 -15.341 -23.810  0.00  0.00    +0.149 HD
ATOM     23  H   UNL     1      31.664 -12.061 -19.232  0.00  0.00    +0.165 HD
BRANCH  20  27
ATOM     24  F   UNL     1      35.043 -17.408 -20.698  0.00  0.00    -0.166 F 
ATOM     25  F   UNL     1      33.847 -17.540 -22.509  0.00  0.00    -0.166 F 
ATOM     26  F   UNL     1      35.725 -16.455 -22.530  0.00  0.00    -0.166 F 
ATOM     27  C   UNL     1      34.610 -16.679 -21.770  0.00  0.00    +0.424 C 
ENDBRANCH  20  27
BRANCH  14  28
ATOM     28  C   UNL     1      33.934 -13.555 -24.616  0.00  0.00    +0.071 C 
ATOM     29  C   UNL     1      32.788 -12.559 -24.345  0.00  0.00    +0.020 C 
ATOM     30  C   UNL     1      33.088 -14.091 -25.790  0.00  0.00    +0.020 C 
ATOM     31  C   UNL     1      32.411 -12.705 -25.833  0.00  0.00    +0.003 C 
ENDBRANCH  14  28
ENDBRANCH  12  15
BRANCH   9  32
ATOM     32  C   UNL     1      29.658  -4.681 -21.618  0.00  0.00    +0.176 C 
BRANCH  32  34
ATOM     33  O   UNL     1      30.469  -4.101 -24.345  0.00  0.00    -0.275 OA
ATOM     34  N   UNL     1      30.031  -3.415 -22.160  0.00  0.00    -0.297 N 
ATOM     35  C   UNL     1      30.410  -3.223 -23.489  0.00  0.00    +0.223 C 
ATOM     36  C   UNL     1      30.731  -1.786 -23.802  0.00  0.00    +0.095 C 
ATOM     37  H   UNL     1      30.022  -2.634 -21.563  0.00  0.00    +0.150 HD
ENDBRANCH  32  34
ENDBRANCH   9  32
TORSDOF 5
ENDMDL
MODEL 4
REMARK VINA RESULT:      -7.2      9.459     15.445
REMARK  Name = 51346455
REMARK  5 active torsions:
REMARK  status: ('A' for Active; 'I' for Inactive)
REMARK    1  A    between atoms: C_9  and  C_32
REMARK    2  A    between atoms: C_12  and  N_15
REMARK    3  A    between atoms: N_14  and  C_28
REMARK    4  A    between atoms: C_20  and  C_27
REMARK    5  A    between atoms: C_32  and  N_34
REMARK                            x       y       z     vdW  Elec       q    Type
REMARK                         _______ _______ _______ _____ _____    ______ ____
ROOT
ATOM      1  O   UNL     1      32.755 -14.711 -20.655  0.00  0.00    -0.273 OA
ATOM      2  N   UNL     1      32.927 -13.214 -22.391  0.00  0.00    -0.274 N 
ATOM      3  C   UNL     1      31.576 -12.660 -22.416  0.00  0.00    +0.098 C 
ATOM      4  C   UNL     1      33.539 -12.499 -23.512  0.00  0.00    +0.098 C 
ATOM      5  C   UNL     1      31.191 -13.047 -23.862  0.00  0.00    +0.026 C 
ATOM      6  C   UNL     1      32.562 -12.935 -24.626  0.00  0.00    +0.026 C 
ATOM      7  C   UNL     1      31.922 -11.189 -22.442  0.00  0.00    -0.005 C 
ATOM      8  C   UNL     1      33.155 -11.087 -23.130  0.00  0.00    -0.007 C 
ATOM      9  C   UNL     1      33.403 -14.202 -21.570  0.00  0.00    +0.246 C 
ATOM     10  C   UNL     1      31.263 -10.077 -21.970  0.00  0.00    +0.012 C 
ATOM     11  C   UNL     1      33.756  -9.872 -23.361  0.00  0.00    -0.002 C 
ATOM     12  C   UNL     1      31.869  -8.837 -22.192  0.00  0.00    +0.057 C 
ATOM     13  C   UNL     1      33.099  -8.736 -22.878  0.00  0.00    +0.015 C 
ENDROOT
BRANCH  12  15
ATOM     14  N   UNL     1      32.091  -4.641 -25.242  0.00  0.00    -0.309 N 
ATOM     15  N   UNL     1      31.239  -7.661 -21.727  0.00  0.00    -0.247 N 
ATOM     16  N   UNL     1      31.671  -6.171 -23.480  0.00  0.00    -0.322 NA
ATOM     17  N   UNL     1      30.423  -5.474 -21.540  0.00  0.00    -0.170 NA
ATOM     18  C   UNL     1      31.521  -4.925 -23.977  0.00  0.00    +0.198 C 
ATOM     19  C   UNL     1      31.106  -6.373 -22.275  0.00  0.00    +0.150 C 
ATOM     20  C   UNL     1      30.847  -3.915 -23.324  0.00  0.00    +0.136 C 
ATOM     21  C   UNL     1      30.313  -4.250 -22.096  0.00  0.00    +0.119 C 
ATOM     22  H   UNL     1      31.968  -3.725 -25.582  0.00  0.00    +0.149 HD
ATOM     23  H   UNL     1      30.809  -7.763 -20.846  0.00  0.00    +0.165 HD
BRANCH  20  27
ATOM     24  F   UNL     1      29.801  -1.786 -23.159  0.00  0.00    -0.166 F 
ATOM     25  F   UNL     1      31.842  -1.819 -23.906  0.00  0.00    -0.166 F 
ATOM     26  F   UNL     1      30.220  -2.519 -25.164  0.00  0.00    -0.166 F 
ATOM     27  C   UNL     1      30.683  -2.544 -23.877  0.00  0.00    +0.424 C 
ENDBRANCH  20  27
BRANCH  14  28
ATOM     28  C   UNL     1      32.821  -5.530 -26.074  0.00  0.00    +0.071 C 
ATOM     29  C   UNL     1      34.343  -5.457 -25.832  0.00  0.00    +0.020 C 
ATOM     30  C   UNL     1      33.094  -4.943 -27.476  0.00  0.00    +0.020 C 
ATOM     31  C   UNL     1      34.514  -5.537 -27.363  0.00  0.00    +0.003 C 
ENDBRANCH  14  28
ENDBRANCH  12  15
BRANCH   9  32
ATOM     32  C   UNL     1      34.814 -14.644 -21.855  0.00  0.00    +0.176 C 
BRANCH  32  34
ATOM     33  O   UNL     1      35.315 -17.203 -20.577  0.00  0.00    -0.275 OA
ATOM     34  N   UNL     1      34.697 -15.942 -22.438  0.00  0.00    -0.297 N 
ATOM     35  C   UNL     1      34.959 -17.126 -21.749  0.00  0.00    +0.223 C 
ATOM     36  C   UNL     1      34.735 -18.353 -22.593  0.00  0.00    +0.095 C 
ATOM     37  H   UNL     1      34.418 -16.004 -23.379  0.00  0.00    +0.150 HD
ENDBRANCH  32  34
ENDBRANCH   9  32
TORSDOF 5
ENDMDL
MODEL 5
REMARK VINA RESULT:      -7.0      7.272     11.307
REMARK  Name = 51346455
REMARK  5 active torsions:
REMARK  status: ('A' for Active; 'I' for Inactive)
REMARK    1  A    between atoms: C_9  and  C_32
REMARK    2  A    between atoms: C_12  and  N_15
REMARK    3  A    between atoms: N_14  and  C_28
REMARK    4  A    between atoms: C_20  and  C_27
REMARK    5  A    between atoms: C_32  and  N_34
REMARK                            x       y       z     vdW  Elec       q    Type
REMARK                         _______ _______ _______ _____ _____    ______ ____
ROOT
ATOM      1  O   UNL     1      33.793  -6.586 -24.247  0.00  0.00    -0.273 OA
ATOM      2  N   UNL     1      32.058  -7.338 -22.941  0.00  0.00    -0.274 N 
ATOM      3  C   UNL     1      31.906  -8.702 -23.438  0.00  0.00    +0.098 C 
ATOM      4  C   UNL     1      30.985  -7.285 -21.947  0.00  0.00    +0.098 C 
ATOM      5  C   UNL     1      30.438  -8.617 -23.913  0.00  0.00    +0.026 C 
ATOM      6  C   UNL     1      29.796  -7.628 -22.872  0.00  0.00    +0.026 C 
ATOM      7  C   UNL     1      31.890  -9.437 -22.117  0.00  0.00    -0.005 C 
ATOM      8  C   UNL     1      31.311  -8.547 -21.180  0.00  0.00    -0.007 C 
ATOM      9  C   UNL     1      32.932  -6.384 -23.392  0.00  0.00    +0.246 C 
ATOM     10  C   UNL     1      32.286 -10.705 -21.761  0.00  0.00    +0.012 C 
ATOM     11  C   UNL     1      31.117  -8.906 -19.867  0.00  0.00    -0.002 C 
ATOM     12  C   UNL     1      32.099 -11.078 -20.426  0.00  0.00    +0.057 C 
ATOM     13  C   UNL     1      31.523 -10.190 -19.492  0.00  0.00    +0.015 C 
ENDROOT
BRANCH  12  15
ATOM     14  N   UNL     1      33.950 -14.317 -24.038  0.00  0.00    -0.309 N 
ATOM     15  N   UNL     1      32.490 -12.368 -20.003  0.00  0.00    -0.247 N 
ATOM     16  N   UNL     1      33.211 -13.324 -22.015  0.00  0.00    -0.322 NA
ATOM     17  N   UNL     1      33.283 -14.571 -19.954  0.00  0.00    -0.170 NA
ATOM     18  C   UNL     1      33.722 -14.404 -22.642  0.00  0.00    +0.198 C 
ATOM     19  C   UNL     1      33.019 -13.475 -20.691  0.00  0.00    +0.150 C 
ATOM     20  C   UNL     1      34.034 -15.586 -22.003  0.00  0.00    +0.136 C 
ATOM     21  C   UNL     1      33.790 -15.613 -20.645  0.00  0.00    +0.119 C 
ATOM     22  H   UNL     1      34.323 -15.119 -24.472  0.00  0.00    +0.149 HD
ATOM     23  H   UNL     1      32.368 -12.523 -19.038  0.00  0.00    +0.165 HD
BRANCH  20  27
ATOM     24  F   UNL     1      34.773 -16.568 -24.039  0.00  0.00    -0.166 F 
ATOM     25  F   UNL     1      35.824 -17.157 -22.229  0.00  0.00    -0.166 F 
ATOM     26  F   UNL     1      33.818 -17.892 -22.602  0.00  0.00    -0.166 F 
ATOM     27  C   UNL     1      34.598 -16.773 -22.699  0.00  0.00    +0.424 C 
ENDBRANCH  20  27
BRANCH  14  28
ATOM     28  C   UNL     1      33.700 -13.203 -24.880  0.00  0.00    +0.071 C 
ATOM     29  C   UNL     1      32.325 -12.554 -24.616  0.00  0.00    +0.020 C 
ATOM     30  C   UNL     1      33.154 -13.614 -26.264  0.00  0.00    +0.020 C 
ATOM     31  C   UNL     1      32.177 -12.426 -26.146  0.00  0.00    +0.003 C 
ENDBRANCH  14  28
ENDBRANCH  12  15
BRANCH   9  32
ATOM     32  C   UNL     1      32.778  -5.027 -22.757  0.00  0.00    +0.176 C 
BRANCH  32  34
ATOM     33  O   UNL     1      30.066  -4.068 -23.150  0.00  0.00    -0.275 OA
ATOM     34  N   UNL     1      32.304  -4.171 -23.795  0.00  0.00    -0.297 N 
ATOM     35  C   UNL     1      30.977  -3.756 -23.911  0.00  0.00    +0.223 C 
ATOM     36  C   UNL     1      30.754  -2.837 -25.083  0.00  0.00    +0.095 C 
ATOM     37  H   UNL     1      32.949  -3.856 -24.467  0.00  0.00    +0.150 HD
ENDBRANCH  32  34
ENDBRANCH   9  32
TORSDOF 5
ENDMDL
MODEL 6
REMARK VINA RESULT:      -6.9      1.600      3.294
REMARK  Name = 51346455
REMARK  5 active torsions:
REMARK  status: ('A' for Active; 'I' for Inactive)
REMARK    1  A    between atoms: C_9  and  C_32
REMARK    2  A    between atoms: C_12  and  N_15
REMARK    3  A    between atoms: N_14  and  C_28
REMARK    4  A    between atoms: C_20  and  C_27
REMARK    5  A    between atoms: C_32  and  N_34
REMARK                            x       y       z     vdW  Elec       q    Type
REMARK                         _______ _______ _______ _____ _____    ______ ____
ROOT
ATOM      1  O   UNL     1      34.604 -14.700 -20.966  0.00  0.00    -0.273 OA
ATOM      2  N   UNL     1      34.591 -16.828 -21.832  0.00  0.00    -0.274 N 
ATOM      3  C   UNL     1      35.052 -17.601 -20.682  0.00  0.00    +0.098 C 
ATOM      4  C   UNL     1      34.445 -17.886 -22.834  0.00  0.00    +0.098 C 
ATOM      5  C   UNL     1      36.316 -18.227 -21.311  0.00  0.00    +0.026 C 
ATOM      6  C   UNL     1      35.892 -18.426 -22.813  0.00  0.00    +0.026 C 
ATOM      7  C   UNL     1      33.993 -18.679 -20.678  0.00  0.00    -0.005 C 
ATOM      8  C   UNL     1      33.611 -18.858 -22.030  0.00  0.00    -0.007 C 
ATOM      9  C   UNL     1      34.444 -15.469 -21.914  0.00  0.00    +0.246 C 
ATOM     10  C   UNL     1      33.444 -19.432 -19.666  0.00  0.00    +0.012 C 
ATOM     11  C   UNL     1      32.673 -19.795 -22.398  0.00  0.00    -0.002 C 
ATOM     12  C   UNL     1      32.484 -20.381 -20.028  0.00  0.00    +0.057 C 
ATOM     13  C   UNL     1      32.104 -20.560 -21.376  0.00  0.00    +0.015 C 
ENDROOT
BRANCH  12  15
ATOM     14  N   UNL     1      35.602 -22.411 -16.406  0.00  0.00    -0.309 N 
ATOM     15  N   UNL     1      31.885 -21.181 -19.029  0.00  0.00    -0.247 N 
ATOM     16  N   UNL     1      33.740 -21.786 -17.736  0.00  0.00    -0.322 NA
ATOM     17  N   UNL     1      31.528 -22.550 -17.163  0.00  0.00    -0.170 NA
ATOM     18  C   UNL     1      34.210 -22.459 -16.664  0.00  0.00    +0.198 C 
ATOM     19  C   UNL     1      32.410 -21.873 -17.924  0.00  0.00    +0.150 C 
ATOM     20  C   UNL     1      33.412 -23.190 -15.809  0.00  0.00    +0.136 C 
ATOM     21  C   UNL     1      32.065 -23.200 -16.111  0.00  0.00    +0.119 C 
ATOM     22  H   UNL     1      35.918 -22.911 -15.619  0.00  0.00    +0.149 HD
ATOM     23  H   UNL     1      30.909 -21.272 -19.126  0.00  0.00    +0.165 HD
BRANCH  20  27
ATOM     24  F   UNL     1      32.944 -24.523 -13.896  0.00  0.00    -0.166 F 
ATOM     25  F   UNL     1      34.801 -24.938 -14.948  0.00  0.00    -0.166 F 
ATOM     26  F   UNL     1      34.618 -23.143 -13.744  0.00  0.00    -0.166 F 
ATOM     27  C   UNL     1      33.934 -23.929 -14.629  0.00  0.00    +0.424 C 
ENDBRANCH  20  27
BRANCH  14  28
ATOM     28  C   UNL     1      36.591 -21.723 -17.156  0.00  0.00    +0.071 C 
ATOM     29  C   UNL     1      36.898 -20.321 -16.591  0.00  0.00    +0.020 C 
ATOM     30  C   UNL     1      36.009 -21.012 -18.396  0.00  0.00    +0.020 C 
ATOM     31  C   UNL     1      36.930 -19.823 -18.050  0.00  0.00    +0.003 C 
ENDBRANCH  14  28
ENDBRANCH  12  15
BRANCH   9  32
ATOM     32  C   UNL     1      34.057 -14.949 -23.273  0.00  0.00    +0.176 C 
BRANCH  32  34
ATOM     33  O   UNL     1      32.753 -13.160 -25.152  0.00  0.00    -0.275 OA
ATOM     34  N   UNL     1      33.733 -13.573 -23.078  0.00  0.00    -0.297 N 
ATOM     35  C   UNL     1      33.103 -12.781 -24.038  0.00  0.00    +0.223 C 
ATOM     36  C   UNL     1      32.857 -11.374 -23.564  0.00  0.00    +0.095 C 
ATOM     37  H   UNL     1      33.968 -13.160 -22.217  0.00  0.00    +0.150 HD
ENDBRANCH  32  34
ENDBRANCH   9  32
TORSDOF 5
ENDMDL
MODEL 7
REMARK VINA RESULT:      -6.8      5.319      9.687
REMARK  Name = 51346455
REMARK  5 active torsions:
REMARK  status: ('A' for Active; 'I' for Inactive)
REMARK    1  A    between atoms: C_9  and  C_32
REMARK    2  A    between atoms: C_12  and  N_15
REMARK    3  A    between atoms: N_14  and  C_28
REMARK    4  A    between atoms: C_20  and  C_27
REMARK    5  A    between atoms: C_32  and  N_34
REMARK                            x       y       z     vdW  Elec       q    Type
REMARK                         _______ _______ _______ _____ _____    ______ ____
ROOT
ATOM      1  O   UNL     1      38.946 -25.389 -13.077  0.00  0.00    -0.273 OA
ATOM      2  N   UNL     1      37.080 -24.086 -13.396  0.00  0.00    -0.274 N 
ATOM      3  C   UNL     1      37.679 -22.757 -13.480  0.00  0.00    +0.098 C 
ATOM      4  C   UNL     1      35.660 -23.757 -13.529  0.00  0.00    +0.098 C 
ATOM      5  C   UNL     1      36.942 -22.093 -12.295  0.00  0.00    +0.026 C 
ATOM      6  C   UNL     1      35.533 -22.791 -12.330  0.00  0.00    +0.026 C 
ATOM      7  C   UNL     1      37.000 -22.268 -14.738  0.00  0.00    -0.005 C 
ATOM      8  C   UNL     1      35.732 -22.896 -14.770  0.00  0.00    -0.007 C 
ATOM      9  C   UNL     1      37.724 -25.273 -13.164  0.00  0.00    +0.246 C 
ATOM     10  C   UNL     1      37.393 -21.383 -15.716  0.00  0.00    +0.012 C 
ATOM     11  C   UNL     1      34.829 -22.653 -15.778  0.00  0.00    -0.002 C 
ATOM     12  C   UNL     1      36.485 -21.134 -16.750  0.00  0.00    +0.057 C 
ATOM     13  C   UNL     1      35.221 -21.760 -16.781  0.00  0.00    +0.015 C 
ENDROOT
BRANCH  12  15
ATOM     14  N   UNL     1      33.102 -20.526 -20.642  0.00  0.00    -0.309 N 
ATOM     15  N   UNL     1      36.837 -20.235 -17.782  0.00  0.00    -0.247 N 
ATOM     16  N   UNL     1      34.977 -20.391 -19.194  0.00  0.00    -0.322 NA
ATOM     17  N   UNL     1      36.822 -18.939 -19.733  0.00  0.00    -0.170 NA
ATOM     18  C   UNL     1      34.374 -19.983 -20.331  0.00  0.00    +0.198 C 
ATOM     19  C   UNL     1      36.181 -19.837 -18.960  0.00  0.00    +0.150 C 
ATOM     20  C   UNL     1      34.925 -19.071 -21.207  0.00  0.00    +0.136 C 
ATOM     21  C   UNL     1      36.164 -18.577 -20.853  0.00  0.00    +0.119 C 
ATOM     22  H   UNL     1      32.685 -20.213 -21.477  0.00  0.00    +0.149 HD
ATOM     23  H   UNL     1      37.713 -19.804 -17.652  0.00  0.00    +0.165 HD
BRANCH  20  27
ATOM     24  F   UNL     1      34.853 -19.120 -23.583  0.00  0.00    -0.166 F 
ATOM     25  F   UNL     1      32.945 -19.003 -22.549  0.00  0.00    -0.166 F 
ATOM     26  F   UNL     1      34.243 -17.267 -22.622  0.00  0.00    -0.166 F 
ATOM     27  C   UNL     1      34.256 -18.625 -22.458  0.00  0.00    +0.424 C 
ENDBRANCH  20  27
BRANCH  14  28
ATOM     28  C   UNL     1      32.364 -21.471 -19.883  0.00  0.00    +0.071 C 
ATOM     29  C   UNL     1      31.967 -20.937 -18.492  0.00  0.00    +0.020 C 
ATOM     30  C   UNL     1      33.270 -22.484 -19.151  0.00  0.00    +0.020 C 
ATOM     31  C   UNL     1      32.330 -22.330 -17.937  0.00  0.00    +0.003 C 
ENDBRANCH  14  28
ENDBRANCH  12  15
BRANCH   9  32
ATOM     32  C   UNL     1      36.822 -26.470 -13.019  0.00  0.00    +0.176 C 
BRANCH  32  34
ATOM     33  O   UNL     1      35.288 -25.992 -15.438  0.00  0.00    -0.275 OA
ATOM     34  N   UNL     1      36.916 -27.171 -14.258  0.00  0.00    -0.297 N 
ATOM     35  C   UNL     1      36.137 -26.876 -15.377  0.00  0.00    +0.223 C 
ATOM     36  C   UNL     1      36.456 -27.753 -16.558  0.00  0.00    +0.095 C 
ATOM     37  H   UNL     1      37.567 -27.906 -14.327  0.00  0.00    +0.150 HD
ENDBRANCH  32  34
ENDBRANCH   9  32
TORSDOF 5
ENDMDL
MODEL 8
REMARK VINA RESULT:      -6.8      5.295      9.654
REMARK  Name = 51346455
REMARK  5 active torsions:
REMARK  status: ('A' for Active; 'I' for Inactive)
REMARK    1  A    between atoms: C_9  and  C_32
REMARK    2  A    between atoms: C_12  and  N_15
REMARK    3  A    between atoms: N_14  and  C_28
REMARK    4  A    between atoms: C_20  and  C_27
REMARK    5  A    between atoms: C_32  and  N_34
REMARK                            x       y       z     vdW  Elec       q    Type
REMARK                         _______ _______ _______ _____ _____    ______ ____
ROOT
ATOM      1  O   UNL     1      32.834 -22.664 -12.236  0.00  0.00    -0.273 OA
ATOM      2  N   UNL     1      34.460 -23.556 -13.594  0.00  0.00    -0.274 N 
ATOM      3  C   UNL     1      33.944 -23.204 -14.914  0.00  0.00    +0.098 C 
ATOM      4  C   UNL     1      35.672 -24.291 -13.959  0.00  0.00    +0.098 C 
ATOM      5  C   UNL     1      33.818 -24.626 -15.503  0.00  0.00    +0.026 C 
ATOM      6  C   UNL     1      35.024 -25.385 -14.836  0.00  0.00    +0.026 C 
ATOM      7  C   UNL     1      35.197 -22.602 -15.508  0.00  0.00    -0.005 C 
ATOM      8  C   UNL     1      36.283 -23.284 -14.908  0.00  0.00    -0.007 C 
ATOM      9  C   UNL     1      33.871 -23.311 -12.382  0.00  0.00    +0.246 C 
ATOM     10  C   UNL     1      35.393 -21.623 -16.455  0.00  0.00    +0.012 C 
ATOM     11  C   UNL     1      37.587 -23.003 -15.241  0.00  0.00    -0.002 C 
ATOM     12  C   UNL     1      36.716 -21.324 -16.796  0.00  0.00    +0.057 C 
ATOM     13  C   UNL     1      37.798 -22.005 -16.197  0.00  0.00    +0.015 C 
ENDROOT
BRANCH  12  15
ATOM     14  N   UNL     1      33.198 -20.662 -20.557  0.00  0.00    -0.309 N 
ATOM     15  N   UNL     1      36.976 -20.326 -17.761  0.00  0.00    -0.247 N 
ATOM     16  N   UNL     1      35.095 -20.505 -19.143  0.00  0.00    -0.322 NA
ATOM     17  N   UNL     1      36.820 -18.887 -19.602  0.00  0.00    -0.170 NA
ATOM     18  C   UNL     1      34.436 -20.055 -20.231  0.00  0.00    +0.198 C 
ATOM     19  C   UNL     1      36.263 -19.885 -18.890  0.00  0.00    +0.150 C 
ATOM     20  C   UNL     1      34.899 -19.041 -21.043  0.00  0.00    +0.136 C 
ATOM     21  C   UNL     1      36.110 -18.488 -20.677  0.00  0.00    +0.119 C 
ATOM     22  H   UNL     1      32.738 -20.316 -21.356  0.00  0.00    +0.149 HD
ATOM     23  H   UNL     1      37.823 -19.844 -17.615  0.00  0.00    +0.165 HD
BRANCH  20  27
ATOM     24  F   UNL     1      34.736 -18.961 -23.414  0.00  0.00    -0.166 F 
ATOM     25  F   UNL     1      32.867 -18.964 -22.304  0.00  0.00    -0.166 F 
ATOM     26  F   UNL     1      34.107 -17.185 -22.328  0.00  0.00    -0.166 F 
ATOM     27  C   UNL     1      34.168 -18.548 -22.241  0.00  0.00    +0.424 C 
ENDBRANCH  20  27
BRANCH  14  28
ATOM     28  C   UNL     1      32.548 -21.713 -19.861  0.00  0.00    +0.071 C 
ATOM     29  C   UNL     1      31.948 -21.254 -18.515  0.00  0.00    +0.020 C 
ATOM     30  C   UNL     1      33.527 -22.579 -19.041  0.00  0.00    +0.020 C 
ATOM     31  C   UNL     1      32.469 -22.578 -17.919  0.00  0.00    +0.003 C 
ENDBRANCH  14  28
ENDBRANCH  12  15
BRANCH   9  32
ATOM     32  C   UNL     1      34.590 -23.895 -11.194  0.00  0.00    +0.176 C 
BRANCH  32  34
ATOM     33  O   UNL     1      36.888 -25.669 -11.227  0.00  0.00    -0.275 OA
ATOM     34  N   UNL     1      35.960 -23.535 -11.362  0.00  0.00    -0.297 N 
ATOM     35  C   UNL     1      37.008 -24.456 -11.365  0.00  0.00    +0.223 C 
ATOM     36  C   UNL     1      38.351 -23.810 -11.584  0.00  0.00    +0.095 C 
ATOM     37  H   UNL     1      36.178 -22.583 -11.481  0.00  0.00    +0.150 HD
ENDBRANCH  32  34
ENDBRANCH   9  32
TORSDOF 5
ENDMDL
MODEL 9
REMARK VINA RESULT:      -6.7     12.001     15.845
REMARK  Name = 51346455
REMARK  5 active torsions:
REMARK  status: ('A' for Active; 'I' for Inactive)
REMARK    1  A    between atoms: C_9  and  C_32
REMARK    2  A    between atoms: C_12  and  N_15
REMARK    3  A    between atoms: N_14  and  C_28
REMARK    4  A    between atoms: C_20  and  C_27
REMARK    5  A    between atoms: C_32  and  N_34
REMARK                            x       y       z     vdW  Elec       q    Type
REMARK                         _______ _______ _______ _____ _____    ______ ____
ROOT
ATOM      1  O   UNL     1      34.014  -3.245 -29.998  0.00  0.00    -0.273 OA
ATOM      2  N   UNL     1      33.680  -3.042 -27.733  0.00  0.00    -0.274 N 
ATOM      3  C   UNL     1      32.485  -3.861 -27.553  0.00  0.00    +0.098 C 
ATOM      4  C   UNL     1      33.899  -2.570 -26.365  0.00  0.00    +0.098 C 
ATOM      5  C   UNL     1      31.547  -2.782 -26.965  0.00  0.00    +0.026 C 
ATOM      6  C   UNL     1      32.535  -1.881 -26.136  0.00  0.00    +0.026 C 
ATOM      7  C   UNL     1      32.948  -4.708 -26.391  0.00  0.00    -0.005 C 
ATOM      8  C   UNL     1      33.837  -3.898 -25.644  0.00  0.00    -0.007 C 
ATOM      9  C   UNL     1      34.322  -2.759 -28.909  0.00  0.00    +0.246 C 
ATOM     10  C   UNL     1      32.636  -5.990 -25.998  0.00  0.00    +0.012 C 
ATOM     11  C   UNL     1      34.432  -4.350 -24.490  0.00  0.00    -0.002 C 
ATOM     12  C   UNL     1      33.242  -6.463 -24.830  0.00  0.00    +0.057 C 
ATOM     13  C   UNL     1      34.128  -5.654 -24.086  0.00  0.00    +0.015 C 
ENDROOT
BRANCH  12  15
ATOM     14  N   UNL     1      31.477  -6.997 -19.976  0.00  0.00    -0.309 N 
ATOM     15  N   UNL     1      32.960  -7.773 -24.382  0.00  0.00    -0.247 N 
ATOM     16  N   UNL     1      32.227  -7.373 -22.195  0.00  0.00    -0.322 NA
ATOM     17  N   UNL     1      32.326  -9.612 -23.079  0.00  0.00    -0.170 NA
ATOM     18  C   UNL     1      31.767  -7.891 -21.036  0.00  0.00    +0.198 C 
ATOM     19  C   UNL     1      32.482  -8.277 -23.159  0.00  0.00    +0.150 C 
ATOM     20  C   UNL     1      31.565  -9.239 -20.826  0.00  0.00    +0.136 C 
ATOM     21  C   UNL     1      31.865 -10.061 -21.893  0.00  0.00    +0.119 C 
ATOM     22  H   UNL     1      31.144  -7.400 -19.142  0.00  0.00    +0.149 HD
ATOM     23  H   UNL     1      33.131  -8.469 -25.057  0.00  0.00    +0.165 HD
BRANCH  20  27
ATOM     24  F   UNL     1      31.708  -9.309 -18.453  0.00  0.00    -0.166 F 
ATOM     25  F   UNL     1      29.731  -9.556 -19.322  0.00  0.00    -0.166 F 
ATOM     26  F   UNL     1      31.181 -11.164 -19.459  0.00  0.00    -0.166 F 
ATOM     27  C   UNL     1      31.057  -9.805 -19.548  0.00  0.00    +0.424 C 
ENDBRANCH  20  27
BRANCH  14  28
ATOM     28  C   UNL     1      31.614  -5.584 -19.983  0.00  0.00    +0.071 C 
ATOM     29  C   UNL     1      30.352  -4.867 -20.507  0.00  0.00    +0.020 C 
ATOM     30  C   UNL     1      32.339  -5.063 -21.242  0.00  0.00    +0.020 C 
ATOM     31  C   UNL     1      31.301  -3.922 -21.274  0.00  0.00    +0.003 C 
ENDBRANCH  14  28
ENDBRANCH  12  15
BRANCH   9  32
ATOM     32  C   UNL     1      35.468  -1.789 -28.794  0.00  0.00    +0.176 C 
BRANCH  32  34
ATOM     33  O   UNL     1      37.281  -3.209 -27.025  0.00  0.00    -0.275 OA
ATOM     34  N   UNL     1      36.632  -2.528 -29.158  0.00  0.00    -0.297 N 
ATOM     35  C   UNL     1      37.453  -3.184 -28.240  0.00  0.00    +0.223 C 
ATOM     36  C   UNL     1      38.600  -3.907 -28.895  0.00  0.00    +0.095 C 
ATOM     37  H   UNL     1      36.871  -2.577 -30.111  0.00  0.00    +0.150 HD
ENDBRANCH  32  34
ENDBRANCH   9  32
TORSDOF 5
ENDMDL
