MODEL 1
REMARK VINA RESULT:     -10.3      0.000      0.000
REMARK  Name = 46937155
REMARK  5 active torsions:
REMARK  status: ('A' for Active; 'I' for Inactive)
REMARK    1  A    between atoms: N_2  and  C_10
REMARK    2  A    between atoms: C_3  and  C_19
REMARK    3  A    between atoms: C_19  and  C_21
REMARK    4  A    between atoms: C_19  and  O_27
REMARK    5  A    between atoms: O_27  and  C_29
REMARK                            x       y       z     vdW  Elec       q    Type
REMARK                         _______ _______ _______ _____ _____    ______ ____
ROOT
ATOM      1  O   UNL     1      34.998 -25.346 -14.732  0.00  0.00    -0.270 OA
ATOM      2  N   UNL     1      34.636 -23.027 -14.564  0.00  0.00    -0.281 N 
ATOM      3  C   UNL     1      35.268 -24.242 -14.266  0.00  0.00    +0.271 C 
ATOM      4  H   UNL     1      34.976 -22.237 -14.085  0.00  0.00    +0.155 HD
ENDROOT
BRANCH   2  10
ATOM      5  O   UNL     1      32.686 -23.369 -12.801  0.00  0.00    -0.282 OA
ATOM      6  O   UNL     1      28.932 -22.432 -16.475  0.00  0.00    -0.270 OA
ATOM      7  O   UNL     1      30.148 -23.449 -12.134  0.00  0.00    -0.266 OA
ATOM      8  N   UNL     1      29.531 -22.939 -14.312  0.00  0.00    -0.246 N 
ATOM      9  C   UNL     1      32.237 -22.843 -15.083  0.00  0.00    +0.061 C 
ATOM     10  C   UNL     1      33.584 -22.797 -15.456  0.00  0.00    +0.054 C 
ATOM     11  C   UNL     1      31.236 -22.601 -16.024  0.00  0.00    +0.058 C 
ATOM     12  C   UNL     1      33.927 -22.507 -16.777  0.00  0.00    +0.015 C 
ATOM     13  C   UNL     1      31.878 -23.147 -13.690  0.00  0.00    +0.250 C 
ATOM     14  C   UNL     1      31.586 -22.312 -17.347  0.00  0.00    +0.005 C 
ATOM     15  C   UNL     1      29.808 -22.646 -15.643  0.00  0.00    +0.252 C 
ATOM     16  C   UNL     1      32.931 -22.265 -17.720  0.00  0.00    +0.001 C 
ATOM     17  C   UNL     1      30.434 -23.195 -13.296  0.00  0.00    +0.291 C 
ATOM     18  H   UNL     1      28.579 -22.969 -14.065  0.00  0.00    +0.158 HD
ENDBRANCH   2  10
BRANCH   3  19
ATOM     19  C   UNL     1      36.378 -24.068 -13.232  0.00  0.00    +0.267 C 
BRANCH  19  21
ATOM     20 CL   UNL     1      40.816 -26.804 -13.122  0.00  0.00    -0.082 Cl
ATOM     21  C   UNL     1      37.738 -24.348 -13.825  0.00  0.00    +0.027 C 
ATOM     22  C   UNL     1      38.554 -25.332 -13.265  0.00  0.00    +0.011 C 
ATOM     23  C   UNL     1      38.180 -23.625 -14.933  0.00  0.00    -0.000 C 
ATOM     24  C   UNL     1      39.810 -25.592 -13.814  0.00  0.00    +0.057 C 
ATOM     25  C   UNL     1      39.435 -23.884 -15.481  0.00  0.00    +0.001 C 
ATOM     26  C   UNL     1      40.251 -24.868 -14.922  0.00  0.00    +0.011 C 
ENDBRANCH  19  21
BRANCH  19  27
ATOM     27  O   UNL     1      36.160 -24.959 -12.147  0.00  0.00    -0.438 OA
BRANCH  27  29
ATOM     28  O   UNL     1      34.972 -24.927 -10.166  0.00  0.00    -0.250 OA
ATOM     29  C   UNL     1      35.699 -24.390 -10.992  0.00  0.00    +0.318 C 
ATOM     30  C   UNL     1      36.217 -22.989 -10.869  0.00  0.00    +0.121 C 
ENDBRANCH  27  29
ENDBRANCH  19  27
ENDBRANCH   3  19
TORSDOF 5
ENDMDL
MODEL 2
REMARK VINA RESULT:     -10.2      2.194      3.610
REMARK  Name = 46937155
REMARK  5 active torsions:
REMARK  status: ('A' for Active; 'I' for Inactive)
REMARK    1  A    between atoms: N_2  and  C_10
REMARK    2  A    between atoms: C_3  and  C_19
REMARK    3  A    between atoms: C_19  and  C_21
REMARK    4  A    between atoms: C_19  and  O_27
REMARK    5  A    between atoms: O_27  and  C_29
REMARK                            x       y       z     vdW  Elec       q    Type
REMARK                         _______ _______ _______ _____ _____    ______ ____
ROOT
ATOM      1  O   UNL     1      32.906 -24.040 -12.710  0.00  0.00    -0.270 OA
ATOM      2  N   UNL     1      34.163 -23.189 -14.508  0.00  0.00    -0.281 N 
ATOM      3  C   UNL     1      33.977 -23.751 -13.238  0.00  0.00    +0.271 C 
ATOM      4  H   UNL     1      35.096 -23.011 -14.767  0.00  0.00    +0.155 HD
ENDROOT
BRANCH   2  10
ATOM      5  O   UNL     1      35.851 -22.324 -16.360  0.00  0.00    -0.282 OA
ATOM      6  O   UNL     1      31.877 -21.156 -19.723  0.00  0.00    -0.270 OA
ATOM      7  O   UNL     1      36.386 -21.311 -18.721  0.00  0.00    -0.266 OA
ATOM      8  N   UNL     1      34.123 -21.230 -19.230  0.00  0.00    -0.246 N 
ATOM      9  C   UNL     1      33.493 -22.313 -16.709  0.00  0.00    +0.061 C 
ATOM     10  C   UNL     1      33.190 -22.851 -15.454  0.00  0.00    +0.054 C 
ATOM     11  C   UNL     1      32.473 -22.000 -17.606  0.00  0.00    +0.058 C 
ATOM     12  C   UNL     1      31.859 -23.076 -15.100  0.00  0.00    +0.015 C 
ATOM     13  C   UNL     1      34.896 -22.079 -17.080  0.00  0.00    +0.250 C 
ATOM     14  C   UNL     1      31.140 -22.226 -17.246  0.00  0.00    +0.005 C 
ATOM     15  C   UNL     1      32.779 -21.430 -18.937  0.00  0.00    +0.252 C 
ATOM     16  C   UNL     1      30.837 -22.764 -15.994  0.00  0.00    +0.001 C 
ATOM     17  C   UNL     1      35.215 -21.501 -18.425  0.00  0.00    +0.291 C 
ATOM     18  H   UNL     1      34.321 -20.850 -20.116  0.00  0.00    +0.158 HD
ENDBRANCH   2  10
BRANCH   3  19
ATOM     19  C   UNL     1      35.303 -23.968 -12.512  0.00  0.00    +0.267 C 
BRANCH  19  21
ATOM     20 CL   UNL     1      40.158 -24.599 -14.309  0.00  0.00    -0.082 Cl
ATOM     21  C   UNL     1      36.276 -24.755 -13.358  0.00  0.00    +0.027 C 
ATOM     22  C   UNL     1      37.612 -24.360 -13.434  0.00  0.00    +0.011 C 
ATOM     23  C   UNL     1      35.840 -25.877 -14.062  0.00  0.00    -0.000 C 
ATOM     24  C   UNL     1      38.511 -25.087 -14.214  0.00  0.00    +0.057 C 
ATOM     25  C   UNL     1      36.739 -26.604 -14.842  0.00  0.00    +0.001 C 
ATOM     26  C   UNL     1      38.075 -26.210 -14.918  0.00  0.00    +0.011 C 
ENDBRANCH  19  21
BRANCH  19  27
ATOM     27  O   UNL     1      35.072 -24.676 -11.303  0.00  0.00    -0.438 OA
BRANCH  27  29
ATOM     28  O   UNL     1      34.981 -24.305  -9.024  0.00  0.00    -0.250 OA
ATOM     29  C   UNL     1      35.346 -23.993 -10.150  0.00  0.00    +0.318 C 
ATOM     30  C   UNL     1      36.175 -22.782 -10.458  0.00  0.00    +0.121 C 
ENDBRANCH  27  29
ENDBRANCH  19  27
ENDBRANCH   3  19
TORSDOF 5
ENDMDL
MODEL 3
REMARK VINA RESULT:     -10.0      3.494      8.014
REMARK  Name = 46937155
REMARK  5 active torsions:
REMARK  status: ('A' for Active; 'I' for Inactive)
REMARK    1  A    between atoms: N_2  and  C_10
REMARK    2  A    between atoms: C_3  and  C_19
REMARK    3  A    between atoms: C_19  and  C_21
REMARK    4  A    between atoms: C_19  and  O_27
REMARK    5  A    between atoms: O_27  and  C_29
REMARK                            x       y       z     vdW  Elec       q    Type
REMARK                         _______ _______ _______ _____ _____    ______ ____
ROOT
ATOM      1  O   UNL     1      32.292 -23.179 -12.982  0.00  0.00    -0.270 OA
ATOM      2  N   UNL     1      34.134 -22.983 -14.432  0.00  0.00    -0.281 N 
ATOM      3  C   UNL     1      32.776 -22.951 -14.088  0.00  0.00    +0.271 C 
ATOM      4  H   UNL     1      34.343 -22.785 -15.373  0.00  0.00    +0.155 HD
ENDROOT
BRANCH   2  10
ATOM      5  O   UNL     1      34.898 -25.181 -15.703  0.00  0.00    -0.282 OA
ATOM      6  O   UNL     1      38.986 -25.932 -12.358  0.00  0.00    -0.270 OA
ATOM      7  O   UNL     1      36.493 -27.241 -16.022  0.00  0.00    -0.266 OA
ATOM      8  N   UNL     1      37.749 -26.589 -14.182  0.00  0.00    -0.246 N 
ATOM      9  C   UNL     1      36.068 -24.365 -13.793  0.00  0.00    +0.061 C 
ATOM     10  C   UNL     1      35.228 -23.262 -13.607  0.00  0.00    +0.054 C 
ATOM     11  C   UNL     1      37.144 -24.583 -12.933  0.00  0.00    +0.058 C 
ATOM     12  C   UNL     1      35.469 -22.377 -12.556  0.00  0.00    +0.015 C 
ATOM     13  C   UNL     1      35.813 -25.295 -14.902  0.00  0.00    +0.250 C 
ATOM     14  C   UNL     1      37.381 -23.692 -11.880  0.00  0.00    +0.005 C 
ATOM     15  C   UNL     1      38.041 -25.745 -13.117  0.00  0.00    +0.252 C 
ATOM     16  C   UNL     1      36.542 -22.592 -11.695  0.00  0.00    +0.001 C 
ATOM     17  C   UNL     1      36.716 -26.474 -15.096  0.00  0.00    +0.291 C 
ATOM     18  H   UNL     1      38.348 -27.361 -14.300  0.00  0.00    +0.158 HD
ENDBRANCH   2  10
BRANCH   3  19
ATOM     19  C   UNL     1      31.893 -22.605 -15.285  0.00  0.00    +0.267 C 
BRANCH  19  21
ATOM     20 CL   UNL     1      26.726 -22.030 -15.705  0.00  0.00    -0.082 Cl
ATOM     21  C   UNL     1      30.511 -23.198 -15.144  0.00  0.00    +0.027 C 
ATOM     22  C   UNL     1      29.387 -22.430 -15.454  0.00  0.00    +0.011 C 
ATOM     23  C   UNL     1      30.356 -24.513 -14.706  0.00  0.00    -0.000 C 
ATOM     24  C   UNL     1      28.111 -22.978 -15.325  0.00  0.00    +0.057 C 
ATOM     25  C   UNL     1      29.080 -25.061 -14.578  0.00  0.00    +0.001 C 
ATOM     26  C   UNL     1      27.957 -24.293 -14.887  0.00  0.00    +0.011 C 
ENDBRANCH  19  21
BRANCH  19  27
ATOM     27  O   UNL     1      32.487 -23.107 -16.473  0.00  0.00    -0.438 OA
BRANCH  27  29
ATOM     28  O   UNL     1      31.542 -21.709 -18.052  0.00  0.00    -0.250 OA
ATOM     29  C   UNL     1      32.513 -22.246 -17.536  0.00  0.00    +0.318 C 
ATOM     30  C   UNL     1      33.926 -22.043 -17.994  0.00  0.00    +0.121 C 
ENDBRANCH  27  29
ENDBRANCH  19  27
ENDBRANCH   3  19
TORSDOF 5
ENDMDL
MODEL 4
REMARK VINA RESULT:     -10.0     13.766     16.610
REMARK  Name = 46937155
REMARK  5 active torsions:
REMARK  status: ('A' for Active; 'I' for Inactive)
REMARK    1  A    between atoms: N_2  and  C_10
REMARK    2  A    between atoms: C_3  and  C_19
REMARK    3  A    between atoms: C_19  and  C_21
REMARK    4  A    between atoms: C_19  and  O_27
REMARK    5  A    between atoms: O_27  and  C_29
REMARK                            x       y       z     vdW  Elec       q    Type
REMARK                         _______ _______ _______ _____ _____    ______ ____
ROOT
ATOM      1  O   UNL     1      33.894  -9.940 -23.618  0.00  0.00    -0.270 OA
ATOM      2  N   UNL     1      32.133 -11.470 -23.313  0.00  0.00    -0.281 N 
ATOM      3  C   UNL     1      32.765 -10.223 -23.224  0.00  0.00    +0.271 C 
ATOM      4  H   UNL     1      31.226 -11.521 -22.933  0.00  0.00    +0.155 HD
ENDROOT
BRANCH   2  10
ATOM      5  O   UNL     1      32.870 -12.587 -21.024  0.00  0.00    -0.282 OA
ATOM      6  O   UNL     1      34.660 -16.959 -23.503  0.00  0.00    -0.270 OA
ATOM      7  O   UNL     1      33.917 -14.549 -19.630  0.00  0.00    -0.266 OA
ATOM      8  N   UNL     1      34.293 -15.764 -21.572  0.00  0.00    -0.246 N 
ATOM      9  C   UNL     1      33.182 -13.688 -23.115  0.00  0.00    +0.061 C 
ATOM     10  C   UNL     1      32.628 -12.652 -23.874  0.00  0.00    +0.054 C 
ATOM     11  C   UNL     1      33.656 -14.842 -23.739  0.00  0.00    +0.058 C 
ATOM     12  C   UNL     1      32.550 -12.774 -25.261  0.00  0.00    +0.015 C 
ATOM     13  C   UNL     1      33.262 -13.558 -21.654  0.00  0.00    +0.250 C 
ATOM     14  C   UNL     1      33.576 -14.959 -25.131  0.00  0.00    +0.005 C 
ATOM     15  C   UNL     1      34.244 -15.946 -22.949  0.00  0.00    +0.252 C 
ATOM     16  C   UNL     1      33.023 -13.925 -25.888  0.00  0.00    +0.001 C 
ATOM     17  C   UNL     1      33.856 -14.671 -20.846  0.00  0.00    +0.291 C 
ATOM     18  H   UNL     1      34.686 -16.501 -21.052  0.00  0.00    +0.158 HD
ENDBRANCH   2  10
BRANCH   3  19
ATOM     19  C   UNL     1      31.882  -9.185 -22.535  0.00  0.00    +0.267 C 
BRANCH  19  21
ATOM     20 CL   UNL     1      31.822  -5.426 -26.151  0.00  0.00    -0.082 Cl
ATOM     21  C   UNL     1      32.255  -7.779 -22.945  0.00  0.00    +0.027 C 
ATOM     22  C   UNL     1      31.907  -7.306 -24.212  0.00  0.00    +0.011 C 
ATOM     23  C   UNL     1      32.948  -6.954 -22.060  0.00  0.00    -0.000 C 
ATOM     24  C   UNL     1      32.250  -6.009 -24.590  0.00  0.00    +0.057 C 
ATOM     25  C   UNL     1      33.291  -5.656 -22.438  0.00  0.00    +0.001 C 
ATOM     26  C   UNL     1      32.942  -5.183 -23.703  0.00  0.00    +0.011 C 
ENDBRANCH  19  21
BRANCH  19  27
ATOM     27  O   UNL     1      32.023  -9.302 -21.127  0.00  0.00    -0.438 OA
BRANCH  27  29
ATOM     28  O   UNL     1      30.034 -10.471 -20.992  0.00  0.00    -0.250 OA
ATOM     29  C   UNL     1      30.975  -9.888 -20.470  0.00  0.00    +0.318 C 
ATOM     30  C   UNL     1      31.140  -9.718 -18.990  0.00  0.00    +0.121 C 
ENDBRANCH  27  29
ENDBRANCH  19  27
ENDBRANCH   3  19
TORSDOF 5
ENDMDL
MODEL 5
REMARK VINA RESULT:      -9.8      1.901      3.152
REMARK  Name = 46937155
REMARK  5 active torsions:
REMARK  status: ('A' for Active; 'I' for Inactive)
REMARK    1  A    between atoms: N_2  and  C_10
REMARK    2  A    between atoms: C_3  and  C_19
REMARK    3  A    between atoms: C_19  and  C_21
REMARK    4  A    between atoms: C_19  and  O_27
REMARK    5  A    between atoms: O_27  and  C_29
REMARK                            x       y       z     vdW  Elec       q    Type
REMARK                         _______ _______ _______ _____ _____    ______ ____
ROOT
ATOM      1  O   UNL     1      35.143 -25.921 -15.778  0.00  0.00    -0.270 OA
ATOM      2  N   UNL     1      35.009 -23.673 -15.096  0.00  0.00    -0.281 N 
ATOM      3  C   UNL     1      35.534 -24.973 -15.102  0.00  0.00    +0.271 C 
ATOM      4  H   UNL     1      35.440 -23.038 -14.480  0.00  0.00    +0.155 HD
ENDROOT
BRANCH   2  10
ATOM      5  O   UNL     1      33.112 -24.165 -13.310  0.00  0.00    -0.282 OA
ATOM      6  O   UNL     1      29.326 -22.145 -16.481  0.00  0.00    -0.270 OA
ATOM      7  O   UNL     1      30.613 -24.124 -12.508  0.00  0.00    -0.266 OA
ATOM      8  N   UNL     1      29.961 -23.131 -14.501  0.00  0.00    -0.246 N 
ATOM      9  C   UNL     1      32.624 -23.151 -15.412  0.00  0.00    +0.061 C 
ATOM     10  C   UNL     1      33.950 -23.166 -15.857  0.00  0.00    +0.054 C 
ATOM     11  C   UNL     1      31.616 -22.628 -16.221  0.00  0.00    +0.058 C 
ATOM     12  C   UNL     1      34.265 -22.654 -17.116  0.00  0.00    +0.015 C 
ATOM     13  C   UNL     1      32.296 -23.690 -14.085  0.00  0.00    +0.250 C 
ATOM     14  C   UNL     1      31.937 -22.117 -17.484  0.00  0.00    +0.005 C 
ATOM     15  C   UNL     1      30.209 -22.607 -15.765  0.00  0.00    +0.252 C 
ATOM     16  C   UNL     1      33.261 -22.131 -17.927  0.00  0.00    +0.001 C 
ATOM     17  C   UNL     1      30.874 -23.673 -13.615  0.00  0.00    +0.291 C 
ATOM     18  H   UNL     1      29.023 -23.115 -14.203  0.00  0.00    +0.158 HD
ENDBRANCH   2  10
BRANCH   3  19
ATOM     19  C   UNL     1      36.693 -25.123 -14.120  0.00  0.00    +0.267 C 
BRANCH  19  21
ATOM     20 CL   UNL     1      34.893 -24.474  -9.268  0.00  0.00    -0.082 Cl
ATOM     21  C   UNL     1      36.519 -24.228 -12.915  0.00  0.00    +0.027 C 
ATOM     22  C   UNL     1      35.863 -24.708 -11.780  0.00  0.00    +0.011 C 
ATOM     23  C   UNL     1      37.012 -22.924 -12.935  0.00  0.00    -0.000 C 
ATOM     24  C   UNL     1      35.703 -23.883 -10.667  0.00  0.00    +0.057 C 
ATOM     25  C   UNL     1      36.852 -22.100 -11.823  0.00  0.00    +0.001 C 
ATOM     26  C   UNL     1      36.198 -22.578 -10.687  0.00  0.00    +0.011 C 
ENDBRANCH  19  21
BRANCH  19  27
ATOM     27  O   UNL     1      37.911 -24.783 -14.768  0.00  0.00    -0.438 OA
BRANCH  27  29
ATOM     28  O   UNL     1      38.994 -26.777 -14.333  0.00  0.00    -0.250 OA
ATOM     29  C   UNL     1      38.992 -25.559 -14.449  0.00  0.00    +0.318 C 
ATOM     30  C   UNL     1      40.202 -24.695 -14.258  0.00  0.00    +0.121 C 
ENDBRANCH  27  29
ENDBRANCH  19  27
ENDBRANCH   3  19
TORSDOF 5
ENDMDL
MODEL 6
REMARK VINA RESULT:      -9.7      2.901      4.560
REMARK  Name = 46937155
REMARK  5 active torsions:
REMARK  status: ('A' for Active; 'I' for Inactive)
REMARK    1  A    between atoms: N_2  and  C_10
REMARK    2  A    between atoms: C_3  and  C_19
REMARK    3  A    between atoms: C_19  and  C_21
REMARK    4  A    between atoms: C_19  and  O_27
REMARK    5  A    between atoms: O_27  and  C_29
REMARK                            x       y       z     vdW  Elec       q    Type
REMARK                         _______ _______ _______ _____ _____    ______ ____
ROOT
ATOM      1  O   UNL     1      35.101 -25.961 -15.668  0.00  0.00    -0.270 OA
ATOM      2  N   UNL     1      34.858 -23.744 -14.917  0.00  0.00    -0.281 N 
ATOM      3  C   UNL     1      35.464 -25.006 -14.986  0.00  0.00    +0.271 C 
ATOM      4  H   UNL     1      35.278 -23.098 -14.305  0.00  0.00    +0.155 HD
ENDROOT
BRANCH   2  10
ATOM      5  O   UNL     1      36.189 -22.494 -16.838  0.00  0.00    -0.282 OA
ATOM      6  O   UNL     1      31.679 -20.929 -19.220  0.00  0.00    -0.270 OA
ATOM      7  O   UNL     1      36.294 -21.059 -19.034  0.00  0.00    -0.266 OA
ATOM      8  N   UNL     1      33.977 -20.990 -19.132  0.00  0.00    -0.246 N 
ATOM      9  C   UNL     1      33.807 -22.525 -16.779  0.00  0.00    +0.061 C 
ATOM     10  C   UNL     1      33.732 -23.288 -15.609  0.00  0.00    +0.054 C 
ATOM     11  C   UNL     1      32.642 -22.104 -17.421  0.00  0.00    +0.058 C 
ATOM     12  C   UNL     1      32.485 -23.630 -15.083  0.00  0.00    +0.015 C 
ATOM     13  C   UNL     1      35.120 -22.168 -17.331  0.00  0.00    +0.250 C 
ATOM     14  C   UNL     1      31.395 -22.449 -16.889  0.00  0.00    +0.005 C 
ATOM     15  C   UNL     1      32.706 -21.296 -18.659  0.00  0.00    +0.252 C 
ATOM     16  C   UNL     1      31.320 -23.211 -15.722  0.00  0.00    +0.001 C 
ATOM     17  C   UNL     1      35.195 -21.350 -18.584  0.00  0.00    +0.291 C 
ATOM     18  H   UNL     1      34.014 -20.452 -19.955  0.00  0.00    +0.158 HD
ENDBRANCH   2  10
BRANCH   3  19
ATOM     19  C   UNL     1      36.680 -25.104 -14.067  0.00  0.00    +0.267 C 
BRANCH  19  21
ATOM     20 CL   UNL     1      34.865 -24.413  -9.226  0.00  0.00    -0.082 Cl
ATOM     21  C   UNL     1      36.534 -24.212 -12.856  0.00  0.00    +0.027 C 
ATOM     22  C   UNL     1      35.847 -24.671 -11.731  0.00  0.00    +0.011 C 
ATOM     23  C   UNL     1      37.084 -22.931 -12.862  0.00  0.00    -0.000 C 
ATOM     24  C   UNL     1      35.713 -23.848 -10.613  0.00  0.00    +0.057 C 
ATOM     25  C   UNL     1      36.950 -22.108 -11.744  0.00  0.00    +0.001 C 
ATOM     26  C   UNL     1      36.265 -22.566 -10.618  0.00  0.00    +0.011 C 
ENDBRANCH  19  21
BRANCH  19  27
ATOM     27  O   UNL     1      37.846 -24.719 -14.780  0.00  0.00    -0.438 OA
BRANCH  27  29
ATOM     28  O   UNL     1      38.992 -26.689 -14.402  0.00  0.00    -0.250 OA
ATOM     29  C   UNL     1      38.963 -25.474 -14.549  0.00  0.00    +0.318 C 
ATOM     30  C   UNL     1      40.175 -24.593 -14.500  0.00  0.00    +0.121 C 
ENDBRANCH  27  29
ENDBRANCH  19  27
ENDBRANCH   3  19
TORSDOF 5
ENDMDL
MODEL 7
REMARK VINA RESULT:      -9.6      3.368      5.860
REMARK  Name = 46937155
REMARK  5 active torsions:
REMARK  status: ('A' for Active; 'I' for Inactive)
REMARK    1  A    between atoms: N_2  and  C_10
REMARK    2  A    between atoms: C_3  and  C_19
REMARK    3  A    between atoms: C_19  and  C_21
REMARK    4  A    between atoms: C_19  and  O_27
REMARK    5  A    between atoms: O_27  and  C_29
REMARK                            x       y       z     vdW  Elec       q    Type
REMARK                         _______ _______ _______ _____ _____    ______ ____
ROOT
ATOM      1  O   UNL     1      35.240 -25.054 -14.377  0.00  0.00    -0.270 OA
ATOM      2  N   UNL     1      34.625 -22.783 -14.401  0.00  0.00    -0.281 N 
ATOM      3  C   UNL     1      34.588 -24.108 -13.945  0.00  0.00    +0.271 C 
ATOM      4  H   UNL     1      34.023 -22.154 -13.944  0.00  0.00    +0.155 HD
ENDROOT
BRANCH   2  10
ATOM      5  O   UNL     1      32.697 -22.672 -16.217  0.00  0.00    -0.282 OA
ATOM      6  O   UNL     1      35.990 -20.618 -19.878  0.00  0.00    -0.270 OA
ATOM      7  O   UNL     1      31.800 -22.106 -18.618  0.00  0.00    -0.266 OA
ATOM      8  N   UNL     1      33.902 -21.358 -19.257  0.00  0.00    -0.246 N 
ATOM      9  C   UNL     1      34.917 -21.948 -16.698  0.00  0.00    +0.061 C 
ATOM     10  C   UNL     1      35.412 -22.244 -15.424  0.00  0.00    +0.054 C 
ATOM     11  C   UNL     1      35.757 -21.410 -17.673  0.00  0.00    +0.058 C 
ATOM     12  C   UNL     1      36.753 -22.000 -15.128  0.00  0.00    +0.015 C 
ATOM     13  C   UNL     1      33.504 -22.206 -17.007  0.00  0.00    +0.250 C 
ATOM     14  C   UNL     1      37.101 -21.167 -17.370  0.00  0.00    +0.005 C 
ATOM     15  C   UNL     1      35.247 -21.092 -19.024  0.00  0.00    +0.252 C 
ATOM     16  C   UNL     1      37.596 -21.462 -16.099  0.00  0.00    +0.001 C 
ATOM     17  C   UNL     1      32.978 -21.887 -18.373  0.00  0.00    +0.291 C 
ATOM     18  H   UNL     1      33.568 -21.145 -20.157  0.00  0.00    +0.158 HD
ENDBRANCH   2  10
BRANCH   3  19
ATOM     19  C   UNL     1      33.588 -24.288 -12.804  0.00  0.00    +0.267 C 
BRANCH  19  21
ATOM     20 CL   UNL     1      28.830 -25.596 -14.494  0.00  0.00    -0.082 Cl
ATOM     21  C   UNL     1      32.198 -23.860 -13.212  0.00  0.00    +0.027 C 
ATOM     22  C   UNL     1      31.264 -24.815 -13.618  0.00  0.00    +0.011 C 
ATOM     23  C   UNL     1      31.846 -22.511 -13.182  0.00  0.00    -0.000 C 
ATOM     24  C   UNL     1      29.981 -24.419 -13.993  0.00  0.00    +0.057 C 
ATOM     25  C   UNL     1      30.563 -22.115 -13.557  0.00  0.00    +0.001 C 
ATOM     26  C   UNL     1      29.629 -23.069 -13.962  0.00  0.00    +0.011 C 
ENDBRANCH  19  21
BRANCH  19  27
ATOM     27  O   UNL     1      33.997 -23.512 -11.687  0.00  0.00    -0.438 OA
BRANCH  27  29
ATOM     28  O   UNL     1      35.330 -25.011 -10.542  0.00  0.00    -0.250 OA
ATOM     29  C   UNL     1      35.144 -23.920 -11.065  0.00  0.00    +0.318 C 
ATOM     30  C   UNL     1      36.168 -22.826 -11.111  0.00  0.00    +0.121 C 
ENDBRANCH  27  29
ENDBRANCH  19  27
ENDBRANCH   3  19
TORSDOF 5
ENDMDL
MODEL 8
REMARK VINA RESULT:      -9.5     14.947     17.317
REMARK  Name = 46937155
REMARK  5 active torsions:
REMARK  status: ('A' for Active; 'I' for Inactive)
REMARK    1  A    between atoms: N_2  and  C_10
REMARK    2  A    between atoms: C_3  and  C_19
REMARK    3  A    between atoms: C_19  and  C_21
REMARK    4  A    between atoms: C_19  and  O_27
REMARK    5  A    between atoms: O_27  and  C_29
REMARK                            x       y       z     vdW  Elec       q    Type
REMARK                         _______ _______ _______ _____ _____    ______ ____
ROOT
ATOM      1  O   UNL     1      33.941  -9.577 -23.640  0.00  0.00    -0.270 OA
ATOM      2  N   UNL     1      31.765  -9.207 -22.825  0.00  0.00    -0.281 N 
ATOM      3  C   UNL     1      32.938  -9.945 -23.034  0.00  0.00    +0.271 C 
ATOM      4  H   UNL     1      31.052  -9.665 -22.325  0.00  0.00    +0.155 HD
ENDROOT
BRANCH   2  10
ATOM      5  O   UNL     1      32.264  -8.052 -20.492  0.00  0.00    -0.282 OA
ATOM      6  O   UNL     1      31.107  -3.211 -22.415  0.00  0.00    -0.270 OA
ATOM      7  O   UNL     1      32.423  -5.948 -18.931  0.00  0.00    -0.266 OA
ATOM      8  N   UNL     1      31.762  -4.569 -20.676  0.00  0.00    -0.246 N 
ATOM      9  C   UNL     1      31.573  -6.791 -22.393  0.00  0.00    +0.061 C 
ATOM     10  C   UNL     1      31.481  -7.901 -23.239  0.00  0.00    +0.054 C 
ATOM     11  C   UNL     1      31.276  -5.515 -22.871  0.00  0.00    +0.058 C 
ATOM     12  C   UNL     1      31.092  -7.730 -24.568  0.00  0.00    +0.015 C 
ATOM     13  C   UNL     1      31.984  -6.975 -20.995  0.00  0.00    +0.250 C 
ATOM     14  C   UNL     1      30.885  -5.349 -24.205  0.00  0.00    +0.005 C 
ATOM     15  C   UNL     1      31.369  -4.332 -21.988  0.00  0.00    +0.252 C 
ATOM     16  C   UNL     1      30.795  -6.457 -25.049  0.00  0.00    +0.001 C 
ATOM     17  C   UNL     1      32.080  -5.782 -20.093  0.00  0.00    +0.291 C 
ATOM     18  H   UNL     1      31.821  -3.778 -20.093  0.00  0.00    +0.158 HD
ENDBRANCH   2  10
BRANCH   3  19
ATOM     19  C   UNL     1      32.849 -11.341 -22.420  0.00  0.00    +0.267 C 
BRANCH  19  21
ATOM     20 CL   UNL     1      34.298 -16.187 -23.693  0.00  0.00    -0.082 Cl
ATOM     21  C   UNL     1      32.975 -12.418 -23.472  0.00  0.00    +0.027 C 
ATOM     22  C   UNL     1      33.515 -13.660 -23.137  0.00  0.00    +0.011 C 
ATOM     23  C   UNL     1      32.552 -12.172 -24.778  0.00  0.00    -0.000 C 
ATOM     24  C   UNL     1      33.631 -14.655 -24.107  0.00  0.00    +0.057 C 
ATOM     25  C   UNL     1      32.668 -13.167 -25.748  0.00  0.00    +0.001 C 
ATOM     26  C   UNL     1      33.207 -14.409 -25.413  0.00  0.00    +0.011 C 
ENDBRANCH  19  21
BRANCH  19  27
ATOM     27  O   UNL     1      31.600 -11.490 -21.761  0.00  0.00    -0.438 OA
BRANCH  27  29
ATOM     28  O   UNL     1      31.606 -10.959 -19.513  0.00  0.00    -0.250 OA
ATOM     29  C   UNL     1      31.662 -11.774 -20.424  0.00  0.00    +0.318 C 
ATOM     30  C   UNL     1      31.811 -13.251 -20.221  0.00  0.00    +0.121 C 
ENDBRANCH  27  29
ENDBRANCH  19  27
ENDBRANCH   3  19
TORSDOF 5
ENDMDL
MODEL 9
REMARK VINA RESULT:      -9.4      3.499      7.612
REMARK  Name = 46937155
REMARK  5 active torsions:
REMARK  status: ('A' for Active; 'I' for Inactive)
REMARK    1  A    between atoms: N_2  and  C_10
REMARK    2  A    between atoms: C_3  and  C_19
REMARK    3  A    between atoms: C_19  and  C_21
REMARK    4  A    between atoms: C_19  and  O_27
REMARK    5  A    between atoms: O_27  and  C_29
REMARK                            x       y       z     vdW  Elec       q    Type
REMARK                         _______ _______ _______ _____ _____    ______ ____
ROOT
ATOM      1  O   UNL     1      33.503 -23.950 -17.079  0.00  0.00    -0.270 OA
ATOM      2  N   UNL     1      34.300 -22.128 -15.822  0.00  0.00    -0.281 N 
ATOM      3  C   UNL     1      33.359 -22.837 -16.581  0.00  0.00    +0.271 C 
ATOM      4  H   UNL     1      34.018 -21.238 -15.510  0.00  0.00    +0.155 HD
ENDROOT
BRANCH   2  10
ATOM      5  O   UNL     1      33.606 -23.236 -13.516  0.00  0.00    -0.282 OA
ATOM      6  O   UNL     1      38.646 -24.608 -12.430  0.00  0.00    -0.270 OA
ATOM      7  O   UNL     1      34.170 -24.500 -11.285  0.00  0.00    -0.266 OA
ATOM      8  N   UNL     1      36.419 -24.557 -11.855  0.00  0.00    -0.246 N 
ATOM      9  C   UNL     1      35.870 -23.201 -14.259  0.00  0.00    +0.061 C 
ATOM     10  C   UNL     1      35.588 -22.526 -15.452  0.00  0.00    +0.054 C 
ATOM     11  C   UNL     1      37.179 -23.571 -13.953  0.00  0.00    +0.058 C 
ATOM     12  C   UNL     1      36.622 -22.224 -16.338  0.00  0.00    +0.015 C 
ATOM     13  C   UNL     1      34.779 -23.519 -13.328  0.00  0.00    +0.250 C 
ATOM     14  C   UNL     1      38.213 -23.264 -14.845  0.00  0.00    +0.005 C 
ATOM     15  C   UNL     1      37.493 -24.285 -12.695  0.00  0.00    +0.252 C 
ATOM     16  C   UNL     1      37.931 -22.592 -16.035  0.00  0.00    +0.001 C 
ATOM     17  C   UNL     1      35.087 -24.241 -12.052  0.00  0.00    +0.291 C 
ATOM     18  H   UNL     1      36.633 -25.031 -11.019  0.00  0.00    +0.158 HD
ENDBRANCH   2  10
BRANCH   3  19
ATOM     19  C   UNL     1      32.064 -22.048 -16.763  0.00  0.00    +0.267 C 
BRANCH  19  21
ATOM     20 CL   UNL     1      26.924 -22.313 -15.921  0.00  0.00    -0.082 Cl
ATOM     21  C   UNL     1      30.898 -22.731 -16.086  0.00  0.00    +0.027 C 
ATOM     22  C   UNL     1      29.600 -22.262 -16.292  0.00  0.00    +0.011 C 
ATOM     23  C   UNL     1      31.119 -23.830 -15.257  0.00  0.00    -0.000 C 
ATOM     24  C   UNL     1      28.524 -22.892 -15.668  0.00  0.00    +0.057 C 
ATOM     25  C   UNL     1      30.043 -24.460 -14.633  0.00  0.00    +0.001 C 
ATOM     26  C   UNL     1      28.745 -23.992 -14.838  0.00  0.00    +0.011 C 
ENDBRANCH  19  21
BRANCH  19  27
ATOM     27  O   UNL     1      31.777 -21.921 -18.149  0.00  0.00    -0.438 OA
BRANCH  27  29
ATOM     28  O   UNL     1      33.912 -21.333 -18.807  0.00  0.00    -0.250 OA
ATOM     29  C   UNL     1      32.696 -21.226 -18.887  0.00  0.00    +0.318 C 
ATOM     30  C   UNL     1      31.995 -20.295 -19.829  0.00  0.00    +0.121 C 
ENDBRANCH  27  29
ENDBRANCH  19  27
ENDBRANCH   3  19
TORSDOF 5
ENDMDL
