MODEL 1
REMARK VINA RESULT:     -12.0      0.000      0.000
REMARK  Name = 6540268
REMARK  6 active torsions:
REMARK  status: ('A' for Active; 'I' for Inactive)
REMARK    1  A    between atoms: N_1  and  C_24
REMARK    2  A    between atoms: C_2  and  C_12
REMARK    3  A    between atoms: N_11  and  C_15
REMARK    4  A    between atoms: N_14  and  C_21
REMARK    5  A    between atoms: C_24  and  C_27
REMARK    6  A    between atoms: N_26  and  C_30
REMARK                            x       y       z     vdW  Elec       q    Type
REMARK                         _______ _______ _______ _____ _____    ______ ____
ROOT
ATOM      1  N   UNL     1      33.134 -23.376 -14.443  0.00  0.00    -0.275 N 
ATOM      2  C   UNL     1      33.000 -23.417 -13.103  0.00  0.00    +0.106 C 
ATOM      3  C   UNL     1      31.912 -23.077 -15.001  0.00  0.00    +0.052 C 
ATOM      4  C   UNL     1      31.723 -23.154 -12.743  0.00  0.00    +0.021 C 
ATOM      5  C   UNL     1      31.004 -22.932 -13.951  0.00  0.00    +0.015 C 
ATOM      6  C   UNL     1      31.546 -22.925 -16.343  0.00  0.00    +0.015 C 
ATOM      7  C   UNL     1      29.663 -22.619 -14.251  0.00  0.00    +0.001 C 
ATOM      8  C   UNL     1      30.210 -22.615 -16.618  0.00  0.00    +0.001 C 
ATOM      9  C   UNL     1      29.282 -22.464 -15.590  0.00  0.00    +0.000 C 
ENDROOT
BRANCH   2  12
ATOM     10  O   UNL     1      34.287 -23.089 -11.140  0.00  0.00    -0.269 OA
ATOM     11  N   UNL     1      34.982 -24.723 -12.599  0.00  0.00    -0.302 N 
ATOM     12  C   UNL     1      34.114 -23.713 -12.189  0.00  0.00    +0.260 C 
ATOM     13  H   UNL     1      34.801 -25.192 -13.445  0.00  0.00    +0.150 HD
BRANCH  11  15
ATOM     14  N   UNL     1      38.573 -24.580 -13.386  0.00  0.00    +0.388 N 
ATOM     15  C   UNL     1      36.139 -25.104 -11.822  0.00  0.00    +0.068 C 
ATOM     16  C   UNL     1      37.047 -23.900 -11.558  0.00  0.00    -0.003 C 
ATOM     17  C   UNL     1      36.929 -26.215 -12.518  0.00  0.00    -0.003 C 
ATOM     18  C   UNL     1      37.807 -23.464 -12.815  0.00  0.00    -0.076 C 
ATOM     19  C   UNL     1      37.693 -25.701 -13.742  0.00  0.00    -0.076 C 
ATOM     20  H   UNL     1      39.227 -24.907 -12.676  0.00  0.00    -0.080 HD
BRANCH  14  21
ATOM     21  C   UNL     1      39.332 -24.134 -14.554  0.00  0.00    -0.058 C 
ATOM     22  C   UNL     1      39.968 -25.341 -15.237  0.00  0.00    -0.023 C 
ATOM     23  C   UNL     1      38.424 -23.374 -15.517  0.00  0.00    -0.023 C 
ENDBRANCH  14  21
ENDBRANCH  11  15
ENDBRANCH   2  12
BRANCH   1  24
ATOM     24  C   UNL     1      34.354 -23.606 -15.189  0.00  0.00    +0.181 C 
BRANCH  24  27
ATOM     25  O   UNL     1      35.452 -21.499 -15.583  0.00  0.00    -0.273 OA
ATOM     26  N   UNL     1      34.249 -22.527 -17.318  0.00  0.00    -0.283 N 
ATOM     27  C   UNL     1      34.764 -22.411 -16.030  0.00  0.00    +0.247 C 
ATOM     28  H   UNL     1      33.713 -23.333 -17.501  0.00  0.00    +0.155 HD
BRANCH  26  30
ATOM     29 CL   UNL     1      34.906 -18.753 -21.813  0.00  0.00    -0.082 Cl
ATOM     30  C   UNL     1      34.407 -21.623 -18.396  0.00  0.00    +0.050 C 
ATOM     31  C   UNL     1      33.282 -21.150 -19.053  0.00  0.00    +0.016 C 
ATOM     32  C   UNL     1      35.681 -21.230 -18.769  0.00  0.00    +0.016 C 
ATOM     33  C   UNL     1      33.438 -20.258 -20.114  0.00  0.00    +0.013 C 
ATOM     34  C   UNL     1      35.837 -20.339 -19.831  0.00  0.00    +0.013 C 
ATOM     35  C   UNL     1      34.715 -19.852 -20.504  0.00  0.00    +0.058 C 
ENDBRANCH  26  30
ENDBRANCH  24  27
ENDBRANCH   1  24
TORSDOF 6
ENDMDL
MODEL 2
REMARK VINA RESULT:     -10.9      1.493      5.903
REMARK  Name = 6540268
REMARK  6 active torsions:
REMARK  status: ('A' for Active; 'I' for Inactive)
REMARK    1  A    between atoms: N_1  and  C_24
REMARK    2  A    between atoms: C_2  and  C_12
REMARK    3  A    between atoms: N_11  and  C_15
REMARK    4  A    between atoms: N_14  and  C_21
REMARK    5  A    between atoms: C_24  and  C_27
REMARK    6  A    between atoms: N_26  and  C_30
REMARK                            x       y       z     vdW  Elec       q    Type
REMARK                         _______ _______ _______ _____ _____    ______ ____
ROOT
ATOM      1  N   UNL     1      34.695 -23.994 -14.097  0.00  0.00    -0.275 N 
ATOM      2  C   UNL     1      34.176 -23.900 -12.857  0.00  0.00    +0.106 C 
ATOM      3  C   UNL     1      36.043 -24.252 -13.995  0.00  0.00    +0.052 C 
ATOM      4  C   UNL     1      35.137 -24.088 -11.923  0.00  0.00    +0.021 C 
ATOM      5  C   UNL     1      36.348 -24.316 -12.635  0.00  0.00    +0.015 C 
ATOM      6  C   UNL     1      37.006 -24.432 -14.995  0.00  0.00    +0.015 C 
ATOM      7  C   UNL     1      37.679 -24.573 -12.249  0.00  0.00    +0.001 C 
ATOM      8  C   UNL     1      38.320 -24.685 -14.589  0.00  0.00    +0.001 C 
ATOM      9  C   UNL     1      38.653 -24.755 -13.238  0.00  0.00    +0.000 C 
ENDROOT
BRANCH   2  12
ATOM     10  O   UNL     1      32.372 -22.587 -12.057  0.00  0.00    -0.269 OA
ATOM     11  N   UNL     1      31.868 -24.637 -12.966  0.00  0.00    -0.302 N 
ATOM     12  C   UNL     1      32.755 -23.628 -12.595  0.00  0.00    +0.260 C 
ATOM     13  H   UNL     1      32.222 -25.449 -13.394  0.00  0.00    +0.150 HD
BRANCH  11  15
ATOM     14  N   UNL     1      29.169 -23.420 -15.151  0.00  0.00    +0.388 N 
ATOM     15  C   UNL     1      30.444 -24.527 -12.744  0.00  0.00    +0.068 C 
ATOM     16  C   UNL     1      29.663 -25.392 -13.737  0.00  0.00    -0.003 C 
ATOM     17  C   UNL     1      29.980 -23.071 -12.838  0.00  0.00    -0.003 C 
ATOM     18  C   UNL     1      29.673 -24.800 -15.150  0.00  0.00    -0.076 C 
ATOM     19  C   UNL     1      29.981 -22.557 -14.281  0.00  0.00    -0.076 C 
ATOM     20  H   UNL     1      28.219 -23.433 -14.782  0.00  0.00    -0.080 HD
BRANCH  14  21
ATOM     21  C   UNL     1      29.137 -22.888 -16.513  0.00  0.00    -0.058 C 
ATOM     22  C   UNL     1      27.889 -22.029 -16.694  0.00  0.00    -0.023 C 
ATOM     23  C   UNL     1      30.402 -22.083 -16.797  0.00  0.00    -0.023 C 
ENDBRANCH  14  21
ENDBRANCH  11  15
ENDBRANCH   2  12
BRANCH   1  24
ATOM     24  C   UNL     1      33.969 -23.850 -15.342  0.00  0.00    +0.181 C 
BRANCH  24  27
ATOM     25  O   UNL     1      35.017 -21.698 -15.608  0.00  0.00    -0.273 OA
ATOM     26  N   UNL     1      33.892 -22.677 -17.422  0.00  0.00    -0.283 N 
ATOM     27  C   UNL     1      34.368 -22.606 -16.116  0.00  0.00    +0.247 C 
ATOM     28  H   UNL     1      33.384 -23.488 -17.657  0.00  0.00    +0.155 HD
BRANCH  26  30
ATOM     29 CL   UNL     1      34.565 -18.683 -21.720  0.00  0.00    -0.082 Cl
ATOM     30  C   UNL     1      34.053 -21.720 -18.452  0.00  0.00    +0.050 C 
ATOM     31  C   UNL     1      35.331 -21.351 -18.840  0.00  0.00    +0.016 C 
ATOM     32  C   UNL     1      32.930 -21.173 -19.051  0.00  0.00    +0.016 C 
ATOM     33  C   UNL     1      35.489 -20.408 -19.855  0.00  0.00    +0.013 C 
ATOM     34  C   UNL     1      33.089 -20.230 -20.065  0.00  0.00    +0.013 C 
ATOM     35  C   UNL     1      34.369 -19.846 -20.468  0.00  0.00    +0.058 C 
ENDBRANCH  26  30
ENDBRANCH  24  27
ENDBRANCH   1  24
TORSDOF 6
ENDMDL
MODEL 3
REMARK VINA RESULT:     -10.6      3.176      7.667
REMARK  Name = 6540268
REMARK  6 active torsions:
REMARK  status: ('A' for Active; 'I' for Inactive)
REMARK    1  A    between atoms: N_1  and  C_24
REMARK    2  A    between atoms: C_2  and  C_12
REMARK    3  A    between atoms: N_11  and  C_15
REMARK    4  A    between atoms: N_14  and  C_21
REMARK    5  A    between atoms: C_24  and  C_27
REMARK    6  A    between atoms: N_26  and  C_30
REMARK                            x       y       z     vdW  Elec       q    Type
REMARK                         _______ _______ _______ _____ _____    ______ ____
ROOT
ATOM      1  N   UNL     1      34.691 -21.627 -18.365  0.00  0.00    -0.275 N 
ATOM      2  C   UNL     1      33.415 -21.946 -18.072  0.00  0.00    +0.106 C 
ATOM      3  C   UNL     1      34.695 -20.735 -19.414  0.00  0.00    +0.052 C 
ATOM      4  C   UNL     1      32.561 -21.295 -18.894  0.00  0.00    +0.021 C 
ATOM      5  C   UNL     1      33.364 -20.509 -19.767  0.00  0.00    +0.015 C 
ATOM      6  C   UNL     1      35.766 -20.118 -20.071  0.00  0.00    +0.015 C 
ATOM      7  C   UNL     1      33.084 -19.624 -20.827  0.00  0.00    +0.001 C 
ATOM      8  C   UNL     1      35.465 -19.244 -21.119  0.00  0.00    +0.001 C 
ATOM      9  C   UNL     1      34.145 -18.999 -21.493  0.00  0.00    +0.000 C 
ENDROOT
BRANCH   2  12
ATOM     10  O   UNL     1      33.488 -24.028 -16.942  0.00  0.00    -0.269 OA
ATOM     11  N   UNL     1      32.132 -22.394 -16.064  0.00  0.00    -0.302 N 
ATOM     12  C   UNL     1      33.044 -22.879 -16.999  0.00  0.00    +0.260 C 
ATOM     13  H   UNL     1      31.806 -21.470 -16.151  0.00  0.00    +0.150 HD
BRANCH  11  15
ATOM     14  N   UNL     1      28.714 -23.335 -15.080  0.00  0.00    +0.388 N 
ATOM     15  C   UNL     1      31.648 -23.205 -14.969  0.00  0.00    +0.068 C 
ATOM     16  C   UNL     1      30.895 -24.434 -15.483  0.00  0.00    -0.003 C 
ATOM     17  C   UNL     1      30.750 -22.392 -14.034  0.00  0.00    -0.003 C 
ATOM     18  C   UNL     1      29.524 -24.070 -16.060  0.00  0.00    -0.076 C 
ATOM     19  C   UNL     1      29.383 -22.096 -14.660  0.00  0.00    -0.076 C 
ATOM     20  H   UNL     1      28.603 -23.927 -14.258  0.00  0.00    -0.080 HD
BRANCH  14  21
ATOM     21  C   UNL     1      27.389 -23.041 -15.628  0.00  0.00    -0.058 C 
ATOM     22  C   UNL     1      26.861 -21.749 -15.012  0.00  0.00    -0.023 C 
ATOM     23  C   UNL     1      27.458 -22.935 -17.149  0.00  0.00    -0.023 C 
ENDBRANCH  14  21
ENDBRANCH  11  15
ENDBRANCH   2  12
BRANCH   1  24
ATOM     24  C   UNL     1      35.874 -22.128 -17.698  0.00  0.00    +0.181 C 
BRANCH  24  27
ATOM     25  O   UNL     1      35.970 -20.685 -15.772  0.00  0.00    -0.273 OA
ATOM     26  N   UNL     1      35.785 -23.007 -15.478  0.00  0.00    -0.283 N 
ATOM     27  C   UNL     1      35.884 -21.827 -16.210  0.00  0.00    +0.247 C 
ATOM     28  H   UNL     1      35.726 -23.840 -16.001  0.00  0.00    +0.155 HD
BRANCH  26  30
ATOM     29 CL   UNL     1      35.685 -23.603  -9.603  0.00  0.00    -0.082 Cl
ATOM     30  C   UNL     1      35.761 -23.150 -14.070  0.00  0.00    +0.050 C 
ATOM     31  C   UNL     1      34.623 -23.650 -13.459  0.00  0.00    +0.016 C 
ATOM     32  C   UNL     1      36.876 -22.787 -13.333  0.00  0.00    +0.016 C 
ATOM     33  C   UNL     1      34.600 -23.791 -12.071  0.00  0.00    +0.013 C 
ATOM     34  C   UNL     1      36.853 -22.927 -11.946  0.00  0.00    +0.013 C 
ATOM     35  C   UNL     1      35.714 -23.429 -11.314  0.00  0.00    +0.058 C 
ENDBRANCH  26  30
ENDBRANCH  24  27
ENDBRANCH   1  24
TORSDOF 6
ENDMDL
MODEL 4
REMARK VINA RESULT:     -10.6     13.508     18.187
REMARK  Name = 6540268
REMARK  6 active torsions:
REMARK  status: ('A' for Active; 'I' for Inactive)
REMARK    1  A    between atoms: N_1  and  C_24
REMARK    2  A    between atoms: C_2  and  C_12
REMARK    3  A    between atoms: N_11  and  C_15
REMARK    4  A    between atoms: N_14  and  C_21
REMARK    5  A    between atoms: C_24  and  C_27
REMARK    6  A    between atoms: N_26  and  C_30
REMARK                            x       y       z     vdW  Elec       q    Type
REMARK                         _______ _______ _______ _____ _____    ______ ____
ROOT
ATOM      1  N   UNL     1      32.293  -8.633 -22.520  0.00  0.00    -0.275 N 
ATOM      2  C   UNL     1      33.051  -7.531 -22.679  0.00  0.00    +0.106 C 
ATOM      3  C   UNL     1      31.754  -8.621 -21.253  0.00  0.00    +0.052 C 
ATOM      4  C   UNL     1      33.038  -6.777 -21.556  0.00  0.00    +0.021 C 
ATOM      5  C   UNL     1      32.209  -7.461 -20.623  0.00  0.00    +0.015 C 
ATOM      6  C   UNL     1      30.907  -9.540 -20.623  0.00  0.00    +0.015 C 
ATOM      7  C   UNL     1      31.800  -7.202 -19.300  0.00  0.00    +0.001 C 
ATOM      8  C   UNL     1      30.515  -9.263 -19.310  0.00  0.00    +0.001 C 
ATOM      9  C   UNL     1      30.953  -8.113 -18.657  0.00  0.00    +0.000 C 
ENDROOT
BRANCH   2  12
ATOM     10  O   UNL     1      34.879  -7.716 -24.175  0.00  0.00    -0.269 OA
ATOM     11  N   UNL     1      33.158  -6.318 -24.777  0.00  0.00    -0.302 N 
ATOM     12  C   UNL     1      33.778  -7.224 -23.920  0.00  0.00    +0.260 C 
ATOM     13  H   UNL     1      32.278  -5.953 -24.529  0.00  0.00    +0.150 HD
BRANCH  11  15
ATOM     14  N   UNL     1      32.938  -3.138 -26.615  0.00  0.00    +0.388 N 
ATOM     15  C   UNL     1      33.765  -5.896 -26.019  0.00  0.00    +0.068 C 
ATOM     16  C   UNL     1      34.686  -4.693 -25.802  0.00  0.00    -0.003 C 
ATOM     17  C   UNL     1      32.701  -5.561 -27.067  0.00  0.00    -0.003 C 
ATOM     18  C   UNL     1      33.900  -3.405 -25.537  0.00  0.00    -0.076 C 
ATOM     19  C   UNL     1      31.982  -4.244 -26.759  0.00  0.00    -0.076 C 
ATOM     20  H   UNL     1      33.459  -3.059 -27.487  0.00  0.00    -0.080 HD
BRANCH  14  21
ATOM     21  C   UNL     1      32.233  -1.880 -26.372  0.00  0.00    -0.058 C 
ATOM     22  C   UNL     1      31.027  -1.787 -27.300  0.00  0.00    -0.023 C 
ATOM     23  C   UNL     1      31.808  -1.786 -24.909  0.00  0.00    -0.023 C 
ENDBRANCH  14  21
ENDBRANCH  11  15
ENDBRANCH   2  12
BRANCH   1  24
ATOM     24  C   UNL     1      32.069  -9.669 -23.507  0.00  0.00    +0.181 C 
BRANCH  24  27
ATOM     25  O   UNL     1      34.169 -10.778 -23.906  0.00  0.00    -0.273 OA
ATOM     26  N   UNL     1      32.506 -11.854 -22.643  0.00  0.00    -0.283 N 
ATOM     27  C   UNL     1      33.056 -10.816 -23.391  0.00  0.00    +0.247 C 
ATOM     28  H   UNL     1      31.592 -11.709 -22.306  0.00  0.00    +0.155 HD
BRANCH  26  30
ATOM     29 CL   UNL     1      35.014 -17.019 -21.260  0.00  0.00    -0.082 Cl
ATOM     30  C   UNL     1      33.107 -13.091 -22.312  0.00  0.00    +0.050 C 
ATOM     31  C   UNL     1      33.279 -13.425 -20.978  0.00  0.00    +0.016 C 
ATOM     32  C   UNL     1      33.511 -13.942 -23.328  0.00  0.00    +0.016 C 
ATOM     33  C   UNL     1      33.871 -14.646 -20.652  0.00  0.00    +0.013 C 
ATOM     34  C   UNL     1      34.103 -15.161 -23.001  0.00  0.00    +0.013 C 
ATOM     35  C   UNL     1      34.284 -15.514 -21.663  0.00  0.00    +0.058 C 
ENDBRANCH  26  30
ENDBRANCH  24  27
ENDBRANCH   1  24
TORSDOF 6
ENDMDL
MODEL 5
REMARK VINA RESULT:      -9.7      3.971      8.961
REMARK  Name = 6540268
REMARK  6 active torsions:
REMARK  status: ('A' for Active; 'I' for Inactive)
REMARK    1  A    between atoms: N_1  and  C_24
REMARK    2  A    between atoms: C_2  and  C_12
REMARK    3  A    between atoms: N_11  and  C_15
REMARK    4  A    between atoms: N_14  and  C_21
REMARK    5  A    between atoms: C_24  and  C_27
REMARK    6  A    between atoms: N_26  and  C_30
REMARK                            x       y       z     vdW  Elec       q    Type
REMARK                         _______ _______ _______ _____ _____    ______ ____
ROOT
ATOM      1  N   UNL     1      34.631 -21.283 -18.687  0.00  0.00    -0.275 N 
ATOM      2  C   UNL     1      34.153 -20.479 -19.656  0.00  0.00    +0.106 C 
ATOM      3  C   UNL     1      33.572 -21.786 -17.966  0.00  0.00    +0.052 C 
ATOM      4  C   UNL     1      32.803 -20.426 -19.609  0.00  0.00    +0.021 C 
ATOM      5  C   UNL     1      32.406 -21.260 -18.526  0.00  0.00    +0.015 C 
ATOM      6  C   UNL     1      33.557 -22.657 -16.871  0.00  0.00    +0.015 C 
ATOM      7  C   UNL     1      31.163 -21.621 -17.969  0.00  0.00    +0.001 C 
ATOM      8  C   UNL     1      32.312 -23.001 -16.334  0.00  0.00    +0.001 C 
ATOM      9  C   UNL     1      31.133 -22.492 -16.873  0.00  0.00    +0.000 C 
ENDROOT
BRANCH   2  12
ATOM     10  O   UNL     1      36.187 -19.486 -20.361  0.00  0.00    -0.269 OA
ATOM     11  N   UNL     1      34.415 -19.417 -21.822  0.00  0.00    -0.302 N 
ATOM     12  C   UNL     1      35.015 -19.772 -20.615  0.00  0.00    +0.260 C 
ATOM     13  H   UNL     1      33.476 -19.669 -21.979  0.00  0.00    +0.150 HD
BRANCH  11  15
ATOM     14  N   UNL     1      34.254 -15.885 -22.836  0.00  0.00    +0.388 N 
ATOM     15  C   UNL     1      35.125 -18.692 -22.850  0.00  0.00    +0.068 C 
ATOM     16  C   UNL     1      35.972 -17.568 -22.248  0.00  0.00    -0.003 C 
ATOM     17  C   UNL     1      34.159 -18.122 -23.892  0.00  0.00    -0.003 C 
ATOM     18  C   UNL     1      35.113 -16.398 -21.761  0.00  0.00    -0.076 C 
ATOM     19  C   UNL     1      33.361 -16.933 -23.349  0.00  0.00    -0.076 C 
ATOM     20  H   UNL     1      34.857 -15.584 -23.601  0.00  0.00    -0.080 HD
BRANCH  14  21
ATOM     21  C   UNL     1      33.480 -14.735 -22.369  0.00  0.00    -0.058 C 
ATOM     22  C   UNL     1      33.828 -14.446 -20.912  0.00  0.00    -0.023 C 
ATOM     23  C   UNL     1      33.754 -13.519 -23.250  0.00  0.00    -0.023 C 
ENDBRANCH  14  21
ENDBRANCH  11  15
ENDBRANCH   2  12
BRANCH   1  24
ATOM     24  C   UNL     1      36.025 -21.581 -18.431  0.00  0.00    +0.181 C 
BRANCH  24  27
ATOM     25  O   UNL     1      36.717 -20.431 -16.432  0.00  0.00    -0.273 OA
ATOM     26  N   UNL     1      36.286 -22.738 -16.356  0.00  0.00    -0.283 N 
ATOM     27  C   UNL     1      36.387 -21.488 -16.959  0.00  0.00    +0.247 C 
ATOM     28  H   UNL     1      36.006 -23.481 -16.940  0.00  0.00    +0.155 HD
BRANCH  26  30
ATOM     29 CL   UNL     1      37.342 -24.108 -10.709  0.00  0.00    -0.082 Cl
ATOM     30  C   UNL     1      36.540 -23.066 -15.003  0.00  0.00    +0.050 C 
ATOM     31  C   UNL     1      35.641 -22.662 -14.029  0.00  0.00    +0.016 C 
ATOM     32  C   UNL     1      37.680 -23.784 -14.682  0.00  0.00    +0.016 C 
ATOM     33  C   UNL     1      35.891 -22.987 -12.695  0.00  0.00    +0.013 C 
ATOM     34  C   UNL     1      37.929 -24.108 -13.349  0.00  0.00    +0.013 C 
ATOM     35  C   UNL     1      37.035 -23.709 -12.354  0.00  0.00    +0.058 C 
ENDBRANCH  26  30
ENDBRANCH  24  27
ENDBRANCH   1  24
TORSDOF 6
ENDMDL
MODEL 6
REMARK VINA RESULT:      -9.5      2.731      5.463
REMARK  Name = 6540268
REMARK  6 active torsions:
REMARK  status: ('A' for Active; 'I' for Inactive)
REMARK    1  A    between atoms: N_1  and  C_24
REMARK    2  A    between atoms: C_2  and  C_12
REMARK    3  A    between atoms: N_11  and  C_15
REMARK    4  A    between atoms: N_14  and  C_21
REMARK    5  A    between atoms: C_24  and  C_27
REMARK    6  A    between atoms: N_26  and  C_30
REMARK                            x       y       z     vdW  Elec       q    Type
REMARK                         _______ _______ _______ _____ _____    ______ ____
ROOT
ATOM      1  N   UNL     1      34.354 -22.326 -17.549  0.00  0.00    -0.275 N 
ATOM      2  C   UNL     1      35.255 -22.196 -16.555  0.00  0.00    +0.106 C 
ATOM      3  C   UNL     1      34.708 -21.487 -18.581  0.00  0.00    +0.052 C 
ATOM      4  C   UNL     1      36.206 -21.293 -16.890  0.00  0.00    +0.021 C 
ATOM      5  C   UNL     1      35.873 -20.823 -18.191  0.00  0.00    +0.015 C 
ATOM      6  C   UNL     1      34.092 -21.267 -19.818  0.00  0.00    +0.015 C 
ATOM      7  C   UNL     1      36.454 -19.894 -19.077  0.00  0.00    +0.001 C 
ATOM      8  C   UNL     1      34.685 -20.340 -20.681  0.00  0.00    +0.001 C 
ATOM      9  C   UNL     1      35.848 -19.664 -20.318  0.00  0.00    +0.000 C 
ENDROOT
BRANCH   2  12
ATOM     10  O   UNL     1      34.677 -22.476 -14.274  0.00  0.00    -0.269 OA
ATOM     11  N   UNL     1      35.743 -24.224 -15.317  0.00  0.00    -0.302 N 
ATOM     12  C   UNL     1      35.181 -22.949 -15.295  0.00  0.00    +0.260 C 
ATOM     13  H   UNL     1      36.133 -24.558 -16.157  0.00  0.00    +0.150 HD
BRANCH  11  15
ATOM     14  N   UNL     1      38.565 -25.501 -13.332  0.00  0.00    +0.388 N 
ATOM     15  C   UNL     1      35.773 -25.072 -14.147  0.00  0.00    +0.068 C 
ATOM     16  C   UNL     1      36.406 -24.347 -12.957  0.00  0.00    -0.003 C 
ATOM     17  C   UNL     1      36.525 -26.375 -14.429  0.00  0.00    -0.003 C 
ATOM     18  C   UNL     1      37.923 -24.198 -13.113  0.00  0.00    -0.076 C 
ATOM     19  C   UNL     1      38.037 -26.158 -14.536  0.00  0.00    -0.076 C 
ATOM     20  H   UNL     1      38.350 -26.094 -12.531  0.00  0.00    -0.080 HD
BRANCH  14  21
ATOM     21  C   UNL     1      40.016 -25.347 -13.427  0.00  0.00    -0.058 C 
ATOM     22  C   UNL     1      40.645 -26.687 -13.797  0.00  0.00    -0.023 C 
ATOM     23  C   UNL     1      40.368 -24.274 -14.453  0.00  0.00    -0.023 C 
ENDBRANCH  14  21
ENDBRANCH  11  15
ENDBRANCH   2  12
BRANCH   1  24
ATOM     24  C   UNL     1      33.198 -23.199 -17.548  0.00  0.00    +0.181 C 
BRANCH  24  27
ATOM     25  O   UNL     1      31.680 -21.373 -17.949  0.00  0.00    -0.273 OA
ATOM     26  N   UNL     1      31.028 -23.143 -16.551  0.00  0.00    -0.283 N 
ATOM     27  C   UNL     1      31.890 -22.445 -17.391  0.00  0.00    +0.247 C 
ATOM     28  H   UNL     1      31.368 -23.994 -16.189  0.00  0.00    +0.155 HD
BRANCH  26  30
ATOM     29 CL   UNL     1      25.569 -21.600 -14.907  0.00  0.00    -0.082 Cl
ATOM     30  C   UNL     1      29.719 -22.774 -16.157  0.00  0.00    +0.050 C 
ATOM     31  C   UNL     1      29.533 -22.141 -14.939  0.00  0.00    +0.016 C 
ATOM     32  C   UNL     1      28.655 -23.052 -16.998  0.00  0.00    +0.016 C 
ATOM     33  C   UNL     1      28.243 -21.776 -14.551  0.00  0.00    +0.013 C 
ATOM     34  C   UNL     1      27.366 -22.688 -16.610  0.00  0.00    +0.013 C 
ATOM     35  C   UNL     1      27.159 -22.050 -15.386  0.00  0.00    +0.058 C 
ENDBRANCH  26  30
ENDBRANCH  24  27
ENDBRANCH   1  24
TORSDOF 6
ENDMDL
MODEL 7
REMARK VINA RESULT:      -9.4      2.520      5.469
REMARK  Name = 6540268
REMARK  6 active torsions:
REMARK  status: ('A' for Active; 'I' for Inactive)
REMARK    1  A    between atoms: N_1  and  C_24
REMARK    2  A    between atoms: C_2  and  C_12
REMARK    3  A    between atoms: N_11  and  C_15
REMARK    4  A    between atoms: N_14  and  C_21
REMARK    5  A    between atoms: C_24  and  C_27
REMARK    6  A    between atoms: N_26  and  C_30
REMARK                            x       y       z     vdW  Elec       q    Type
REMARK                         _______ _______ _______ _____ _____    ______ ____
ROOT
ATOM      1  N   UNL     1      35.054 -22.643 -16.494  0.00  0.00    -0.275 N 
ATOM      2  C   UNL     1      36.320 -22.288 -16.199  0.00  0.00    +0.106 C 
ATOM      3  C   UNL     1      34.676 -22.011 -17.657  0.00  0.00    +0.052 C 
ATOM      4  C   UNL     1      36.805 -21.436 -17.131  0.00  0.00    +0.021 C 
ATOM      5  C   UNL     1      35.763 -21.243 -18.080  0.00  0.00    +0.015 C 
ATOM      6  C   UNL     1      33.467 -22.061 -18.361  0.00  0.00    +0.015 C 
ATOM      7  C   UNL     1      35.640 -20.486 -19.262  0.00  0.00    +0.001 C 
ATOM      8  C   UNL     1      33.368 -21.302 -19.530  0.00  0.00    +0.001 C 
ATOM      9  C   UNL     1      34.436 -20.526 -19.976  0.00  0.00    +0.000 C 
ENDROOT
BRANCH   2  12
ATOM     10  O   UNL     1      37.214 -22.086 -14.014  0.00  0.00    -0.269 OA
ATOM     11  N   UNL     1      37.545 -24.077 -15.111  0.00  0.00    -0.302 N 
ATOM     12  C   UNL     1      37.041 -22.782 -15.017  0.00  0.00    +0.260 C 
ATOM     13  H   UNL     1      37.380 -24.594 -15.933  0.00  0.00    +0.150 HD
BRANCH  11  15
ATOM     14  N   UNL     1      36.643 -24.793 -11.617  0.00  0.00    +0.388 N 
ATOM     15  C   UNL     1      38.302 -24.688 -14.042  0.00  0.00    +0.068 C 
ATOM     16  C   UNL     1      37.630 -25.975 -13.556  0.00  0.00    -0.003 C 
ATOM     17  C   UNL     1      38.487 -23.718 -12.873  0.00  0.00    -0.003 C 
ATOM     18  C   UNL     1      36.362 -25.692 -12.744  0.00  0.00    -0.076 C 
ATOM     19  C   UNL     1      37.190 -23.511 -12.084  0.00  0.00    -0.076 C 
ATOM     20  H   UNL     1      37.346 -25.238 -11.028  0.00  0.00    -0.080 HD
BRANCH  14  21
ATOM     21  C   UNL     1      35.435 -24.575 -10.822  0.00  0.00    -0.058 C 
ATOM     22  C   UNL     1      35.724 -23.551  -9.729  0.00  0.00    -0.023 C 
ATOM     23  C   UNL     1      34.289 -24.111 -11.718  0.00  0.00    -0.023 C 
ENDBRANCH  14  21
ENDBRANCH  11  15
ENDBRANCH   2  12
BRANCH   1  24
ATOM     24  C   UNL     1      34.215 -23.540 -15.727  0.00  0.00    +0.181 C 
BRANCH  24  27
ATOM     25  O   UNL     1      32.905 -21.990 -14.430  0.00  0.00    -0.273 OA
ATOM     26  N   UNL     1      31.834 -23.458 -15.918  0.00  0.00    -0.283 N 
ATOM     27  C   UNL     1      32.924 -22.888 -15.265  0.00  0.00    +0.247 C 
ATOM     28  H   UNL     1      32.040 -24.175 -16.562  0.00  0.00    +0.155 HD
BRANCH  26  30
ATOM     29 CL   UNL     1      26.128 -22.080 -15.274  0.00  0.00    -0.082 Cl
ATOM     30  C   UNL     1      30.467 -23.128 -15.764  0.00  0.00    +0.050 C 
ATOM     31  C   UNL     1      29.708 -23.806 -14.823  0.00  0.00    +0.016 C 
ATOM     32  C   UNL     1      29.916 -22.134 -16.556  0.00  0.00    +0.016 C 
ATOM     33  C   UNL     1      28.360 -23.479 -14.671  0.00  0.00    +0.013 C 
ATOM     34  C   UNL     1      28.569 -21.809 -16.404  0.00  0.00    +0.013 C 
ATOM     35  C   UNL     1      27.790 -22.481 -15.462  0.00  0.00    +0.058 C 
ENDBRANCH  26  30
ENDBRANCH  24  27
ENDBRANCH   1  24
TORSDOF 6
ENDMDL
MODEL 8
REMARK VINA RESULT:      -9.4      2.372      6.365
REMARK  Name = 6540268
REMARK  6 active torsions:
REMARK  status: ('A' for Active; 'I' for Inactive)
REMARK    1  A    between atoms: N_1  and  C_24
REMARK    2  A    between atoms: C_2  and  C_12
REMARK    3  A    between atoms: N_11  and  C_15
REMARK    4  A    between atoms: N_14  and  C_21
REMARK    5  A    between atoms: C_24  and  C_27
REMARK    6  A    between atoms: N_26  and  C_30
REMARK                            x       y       z     vdW  Elec       q    Type
REMARK                         _______ _______ _______ _____ _____    ______ ____
ROOT
ATOM      1  N   UNL     1      33.690 -23.047 -15.515  0.00  0.00    -0.275 N 
ATOM      2  C   UNL     1      33.655 -23.590 -14.282  0.00  0.00    +0.106 C 
ATOM      3  C   UNL     1      34.973 -22.620 -15.774  0.00  0.00    +0.052 C 
ATOM      4  C   UNL     1      34.877 -23.540 -13.704  0.00  0.00    +0.021 C 
ATOM      5  C   UNL     1      35.741 -22.919 -14.648  0.00  0.00    +0.015 C 
ATOM      6  C   UNL     1      35.505 -21.999 -16.909  0.00  0.00    +0.015 C 
ATOM      7  C   UNL     1      37.110 -22.583 -14.652  0.00  0.00    +0.001 C 
ATOM      8  C   UNL     1      36.865 -21.673 -16.890  0.00  0.00    +0.001 C 
ATOM      9  C   UNL     1      37.657 -21.960 -15.780  0.00  0.00    +0.000 C 
ENDROOT
BRANCH   2  12
ATOM     10  O   UNL     1      32.399 -24.551 -12.517  0.00  0.00    -0.269 OA
ATOM     11  N   UNL     1      31.325 -24.222 -14.521  0.00  0.00    -0.302 N 
ATOM     12  C   UNL     1      32.434 -24.148 -13.681  0.00  0.00    +0.260 C 
ATOM     13  H   UNL     1      31.403 -23.886 -15.443  0.00  0.00    +0.150 HD
BRANCH  11  15
ATOM     14  N   UNL     1      27.863 -23.193 -15.221  0.00  0.00    +0.388 N 
ATOM     15  C   UNL     1      30.064 -24.775 -14.083  0.00  0.00    +0.068 C 
ATOM     16  C   UNL     1      29.229 -25.257 -15.272  0.00  0.00    -0.003 C 
ATOM     17  C   UNL     1      29.269 -23.756 -13.262  0.00  0.00    -0.003 C 
ATOM     18  C   UNL     1      28.647 -24.092 -16.078  0.00  0.00    -0.076 C 
ATOM     19  C   UNL     1      28.686 -22.641 -14.136  0.00  0.00    -0.076 C 
ATOM     20  H   UNL     1      27.112 -23.739 -14.799  0.00  0.00    -0.080 HD
BRANCH  14  21
ATOM     21  C   UNL     1      27.271 -22.116 -16.014  0.00  0.00    -0.058 C 
ATOM     22  C   UNL     1      27.024 -22.609 -17.436  0.00  0.00    -0.023 C 
ATOM     23  C   UNL     1      25.975 -21.634 -15.368  0.00  0.00    -0.023 C 
ENDBRANCH  14  21
ENDBRANCH  11  15
ENDBRANCH   2  12
BRANCH   1  24
ATOM     24  C   UNL     1      32.574 -22.925 -16.429  0.00  0.00    +0.181 C 
BRANCH  24  27
ATOM     25  O   UNL     1      33.330 -23.580 -18.620  0.00  0.00    -0.273 OA
ATOM     26  N   UNL     1      32.985 -21.308 -18.139  0.00  0.00    -0.283 N 
ATOM     27  C   UNL     1      33.010 -22.671 -17.861  0.00  0.00    +0.247 C 
ATOM     28  H   UNL     1      32.700 -20.718 -17.402  0.00  0.00    +0.155 HD
BRANCH  26  30
ATOM     29 CL   UNL     1      34.385 -18.643 -23.220  0.00  0.00    -0.082 Cl
ATOM     30  C   UNL     1      33.321 -20.669 -19.357  0.00  0.00    +0.050 C 
ATOM     31  C   UNL     1      32.307 -20.209 -20.183  0.00  0.00    +0.016 C 
ATOM     32  C   UNL     1      34.655 -20.517 -19.697  0.00  0.00    +0.016 C 
ATOM     33  C   UNL     1      32.639 -19.580 -21.382  0.00  0.00    +0.013 C 
ATOM     34  C   UNL     1      34.985 -19.888 -20.896  0.00  0.00    +0.013 C 
ATOM     35  C   UNL     1      33.978 -19.419 -21.740  0.00  0.00    +0.058 C 
ENDBRANCH  26  30
ENDBRANCH  24  27
ENDBRANCH   1  24
TORSDOF 6
ENDMDL
