MODEL 1
REMARK VINA RESULT:     -11.7      0.000      0.000
REMARK  Name = 6852201
REMARK  12 active torsions:
REMARK  status: ('A' for Active; 'I' for Inactive)
REMARK    1  A    between atoms: N_4  and  C_15
REMARK    2  A    between atoms: C_6  and  O_33
REMARK    3  A    between atoms: C_14  and  S_20
REMARK    4  A    between atoms: S_20  and  C_23
REMARK    5  A    between atoms: C_23  and  C_24
REMARK    6  A    between atoms: C_24  and  N_25
REMARK    7  A    between atoms: N_25  and  C_28
REMARK    8  A    between atoms: C_28  and  C_29
REMARK    9  A    between atoms: C_29  and  C_30
REMARK   10  A    between atoms: C_30  and  O_31
REMARK   11  A    between atoms: O_33  and  C_34
REMARK   12  A    between atoms: C_34  and  C_35
REMARK                            x       y       z     vdW  Elec       q    Type
REMARK                         _______ _______ _______ _____ _____    ______ ____
ROOT
ATOM      1  N   UNL     1      33.345 -22.331 -16.201  0.00  0.00    -0.293 NA
ATOM      2  N   UNL     1      32.441 -24.211 -13.173  0.00  0.00    -0.266 NA
ATOM      3  N   UNL     1      31.104 -23.292 -16.256  0.00  0.00    -0.316 NA
ATOM      4  N   UNL     1      31.938 -22.046 -18.052  0.00  0.00    -0.238 N 
ATOM      5  N   UNL     1      30.516 -24.532 -14.250  0.00  0.00    -0.296 N 
ATOM      6  C   UNL     1      33.578 -22.832 -14.967  0.00  0.00    +0.288 C 
ATOM      7  C   UNL     1      32.573 -23.566 -14.370  0.00  0.00    +0.215 C 
ATOM      8  C   UNL     1      31.366 -23.781 -15.020  0.00  0.00    +0.196 C 
ATOM      9  C   UNL     1      32.139 -22.589 -16.761  0.00  0.00    +0.207 C 
ATOM     10  C   UNL     1      31.192 -24.773 -13.147  0.00  0.00    +0.164 C 
ATOM     11  H   UNL     1      33.118 -24.261 -12.461  0.00  0.00    +0.126 HD
ATOM     12  H   UNL     1      31.054 -22.249 -18.434  0.00  0.00    +0.166 HD
ATOM     13  H   UNL     1      29.603 -24.826 -14.472  0.00  0.00    +0.150 HD
ENDROOT
BRANCH   4  15
ATOM     14  C   UNL     1      34.376 -19.738 -20.569  0.00  0.00    +0.106 C 
ATOM     15  C   UNL     1      32.755 -21.273 -18.896  0.00  0.00    +0.059 C 
ATOM     16  C   UNL     1      34.949 -20.685 -19.720  0.00  0.00    +0.020 C 
ATOM     17  C   UNL     1      32.993 -19.558 -20.581  0.00  0.00    +0.020 C 
ATOM     18  C   UNL     1      34.138 -21.453 -18.884  0.00  0.00    +0.017 C 
ATOM     19  C   UNL     1      32.182 -20.326 -19.745  0.00  0.00    +0.017 C 
BRANCH  14  20
ATOM     20  S   UNL     1      35.389 -18.778 -21.617  0.00  0.00    +0.007 S 
ATOM     21  O   UNL     1      36.755 -18.860 -21.119  0.00  0.00    -0.169 OA
ATOM     22  O   UNL     1      35.103 -19.128 -23.001  0.00  0.00    -0.169 OA
BRANCH  20  23
ATOM     23  C   UNL     1      34.820 -17.110 -21.376  0.00  0.00    +0.133 C 
BRANCH  23  24
ATOM     24  C   UNL     1      34.532 -16.429 -22.704  0.00  0.00    -0.056 C 
BRANCH  24  25
ATOM     25  N   UNL     1      34.207 -15.021 -22.508  0.00  0.00    +0.385 N 
ATOM     26  H   UNL     1      33.369 -14.794 -23.043  0.00  0.00    -0.084 HD
ATOM     27  H   UNL     1      34.995 -14.458 -22.825  0.00  0.00    -0.084 HD
BRANCH  25  28
ATOM     28  C   UNL     1      33.966 -14.735 -21.100  0.00  0.00    -0.079 C 
BRANCH  28  29
ATOM     29  C   UNL     1      33.475 -13.300 -20.929  0.00  0.00    +0.008 C 
BRANCH  29  30
ATOM     30  C   UNL     1      32.833 -12.774 -22.206  0.00  0.00    +0.135 C 
BRANCH  30  31
ATOM     31  O   UNL     1      33.836 -12.159 -23.004  0.00  0.00    -0.382 OA
ATOM     32  H   UNL     1      33.699 -12.397 -23.934  0.00  0.00    +0.210 HD
ENDBRANCH  30  31
ENDBRANCH  29  30
ENDBRANCH  28  29
ENDBRANCH  25  28
ENDBRANCH  24  25
ENDBRANCH  23  24
ENDBRANCH  20  23
ENDBRANCH  14  20
ENDBRANCH   4  15
BRANCH   6  33
ATOM     33  O   UNL     1      34.791 -22.590 -14.371  0.00  0.00    -0.453 OA
BRANCH  33  34
ATOM     34  C   UNL     1      35.950 -22.879 -15.129  0.00  0.00    +0.208 C 
BRANCH  34  35
ATOM     35  C   UNL     1      36.820 -23.851 -14.333  0.00  0.00    +0.044 C 
ATOM     36  C   UNL     1      36.288 -25.284 -14.463  0.00  0.00    +0.004 C 
ATOM     37  C   UNL     1      36.896 -23.428 -12.860  0.00  0.00    +0.004 C 
ATOM     38  C   UNL     1      37.110 -26.268 -13.632  0.00  0.00    +0.000 C 
ATOM     39  C   UNL     1      37.718 -24.415 -12.033  0.00  0.00    +0.000 C 
ATOM     40  C   UNL     1      37.192 -25.840 -12.171  0.00  0.00    +0.000 C 
ENDBRANCH  34  35
ENDBRANCH  33  34
ENDBRANCH   6  33
TORSDOF 12
ENDMDL
MODEL 2
REMARK VINA RESULT:     -10.6      3.153     11.072
REMARK  Name = 6852201
REMARK  12 active torsions:
REMARK  status: ('A' for Active; 'I' for Inactive)
REMARK    1  A    between atoms: N_4  and  C_15
REMARK    2  A    between atoms: C_6  and  O_33
REMARK    3  A    between atoms: C_14  and  S_20
REMARK    4  A    between atoms: S_20  and  C_23
REMARK    5  A    between atoms: C_23  and  C_24
REMARK    6  A    between atoms: C_24  and  N_25
REMARK    7  A    between atoms: N_25  and  C_28
REMARK    8  A    between atoms: C_28  and  C_29
REMARK    9  A    between atoms: C_29  and  C_30
REMARK   10  A    between atoms: C_30  and  O_31
REMARK   11  A    between atoms: O_33  and  C_34
REMARK   12  A    between atoms: C_34  and  C_35
REMARK                            x       y       z     vdW  Elec       q    Type
REMARK                         _______ _______ _______ _____ _____    ______ ____
ROOT
ATOM      1  N   UNL     1      34.562 -18.311 -20.753  0.00  0.00    -0.293 NA
ATOM      2  N   UNL     1      34.111 -15.915 -23.506  0.00  0.00    -0.266 NA
ATOM      3  N   UNL     1      34.169 -19.350 -22.925  0.00  0.00    -0.316 NA
ATOM      4  N   UNL     1      34.489 -20.640 -20.999  0.00  0.00    -0.238 N 
ATOM      5  N   UNL     1      33.874 -17.758 -24.737  0.00  0.00    -0.296 N 
ATOM      6  C   UNL     1      34.485 -17.069 -21.283  0.00  0.00    +0.288 C 
ATOM      7  C   UNL     1      34.250 -16.962 -22.639  0.00  0.00    +0.215 C 
ATOM      8  C   UNL     1      34.098 -18.094 -23.427  0.00  0.00    +0.196 C 
ATOM      9  C   UNL     1      34.402 -19.360 -21.595  0.00  0.00    +0.207 C 
ATOM     10  C   UNL     1      33.888 -16.442 -24.751  0.00  0.00    +0.164 C 
ATOM     11  H   UNL     1      34.163 -14.959 -23.278  0.00  0.00    +0.126 HD
ATOM     12  H   UNL     1      34.369 -21.381 -21.633  0.00  0.00    +0.166 HD
ATOM     13  H   UNL     1      33.733 -18.366 -25.500  0.00  0.00    +0.150 HD
ENDROOT
BRANCH   4  15
ATOM     14  C   UNL     1      35.166 -21.889 -17.051  0.00  0.00    +0.106 C 
ATOM     15  C   UNL     1      34.715 -21.058 -19.676  0.00  0.00    +0.059 C 
ATOM     16  C   UNL     1      36.196 -21.296 -17.781  0.00  0.00    +0.020 C 
ATOM     17  C   UNL     1      33.911 -22.067 -17.633  0.00  0.00    +0.020 C 
ATOM     18  C   UNL     1      35.970 -20.880 -19.093  0.00  0.00    +0.017 C 
ATOM     19  C   UNL     1      33.685 -21.651 -18.945  0.00  0.00    +0.017 C 
BRANCH  14  20
ATOM     20  S   UNL     1      35.446 -22.408 -15.408  0.00  0.00    +0.007 S 
ATOM     21  O   UNL     1      36.861 -22.226 -15.116  0.00  0.00    -0.169 OA
ATOM     22  O   UNL     1      34.445 -21.800 -14.543  0.00  0.00    -0.169 OA
BRANCH  20  23
ATOM     23  C   UNL     1      35.115 -24.156 -15.434  0.00  0.00    +0.133 C 
BRANCH  23  24
ATOM     24  C   UNL     1      35.687 -24.844 -14.205  0.00  0.00    -0.056 C 
BRANCH  24  25
ATOM     25  N   UNL     1      36.922 -25.547 -14.527  0.00  0.00    +0.385 N 
ATOM     26  H   UNL     1      37.406 -25.049 -15.275  0.00  0.00    -0.084 HD
ATOM     27  H   UNL     1      36.690 -26.495 -14.823  0.00  0.00    -0.084 HD
BRANCH  25  28
ATOM     28  C   UNL     1      37.795 -25.624 -13.364  0.00  0.00    -0.079 C 
BRANCH  28  29
ATOM     29  C   UNL     1      39.034 -24.759 -13.574  0.00  0.00    +0.008 C 
BRANCH  29  30
ATOM     30  C   UNL     1      40.105 -25.500 -14.364  0.00  0.00    +0.135 C 
BRANCH  30  31
ATOM     31  O   UNL     1      39.766 -25.465 -15.743  0.00  0.00    -0.382 OA
ATOM     32  H   UNL     1      40.233 -24.731 -16.172  0.00  0.00    +0.210 HD
ENDBRANCH  30  31
ENDBRANCH  29  30
ENDBRANCH  28  29
ENDBRANCH  25  28
ENDBRANCH  24  25
ENDBRANCH  23  24
ENDBRANCH  20  23
ENDBRANCH  14  20
ENDBRANCH   4  15
BRANCH   6  33
ATOM     33  O   UNL     1      34.643 -15.984 -20.457  0.00  0.00    -0.453 OA
BRANCH  33  34
ATOM     34  C   UNL     1      33.468 -15.413 -19.913  0.00  0.00    +0.208 C 
BRANCH  34  35
ATOM     35  C   UNL     1      33.352 -13.974 -20.413  0.00  0.00    +0.044 C 
ATOM     36  C   UNL     1      31.932 -13.436 -20.190  0.00  0.00    +0.004 C 
ATOM     37  C   UNL     1      33.745 -13.882 -21.893  0.00  0.00    +0.004 C 
ATOM     38  C   UNL     1      31.776 -12.016 -20.731  0.00  0.00    +0.000 C 
ATOM     39  C   UNL     1      33.587 -12.461 -22.430  0.00  0.00    +0.000 C 
ATOM     40  C   UNL     1      32.178 -11.926 -22.199  0.00  0.00    +0.000 C 
ENDBRANCH  34  35
ENDBRANCH  33  34
ENDBRANCH   6  33
TORSDOF 12
ENDMDL
MODEL 3
REMARK VINA RESULT:     -10.5      3.180     10.916
REMARK  Name = 6852201
REMARK  12 active torsions:
REMARK  status: ('A' for Active; 'I' for Inactive)
REMARK    1  A    between atoms: N_4  and  C_15
REMARK    2  A    between atoms: C_6  and  O_33
REMARK    3  A    between atoms: C_14  and  S_20
REMARK    4  A    between atoms: S_20  and  C_23
REMARK    5  A    between atoms: C_23  and  C_24
REMARK    6  A    between atoms: C_24  and  N_25
REMARK    7  A    between atoms: N_25  and  C_28
REMARK    8  A    between atoms: C_28  and  C_29
REMARK    9  A    between atoms: C_29  and  C_30
REMARK   10  A    between atoms: C_30  and  O_31
REMARK   11  A    between atoms: O_33  and  C_34
REMARK   12  A    between atoms: C_34  and  C_35
REMARK                            x       y       z     vdW  Elec       q    Type
REMARK                         _______ _______ _______ _____ _____    ______ ____
ROOT
ATOM      1  N   UNL     1      34.515 -18.205 -20.871  0.00  0.00    -0.293 NA
ATOM      2  N   UNL     1      34.110 -15.705 -23.536  0.00  0.00    -0.266 NA
ATOM      3  N   UNL     1      34.109 -19.158 -23.079  0.00  0.00    -0.316 NA
ATOM      4  N   UNL     1      34.403 -20.521 -21.200  0.00  0.00    -0.238 N 
ATOM      5  N   UNL     1      33.843 -17.498 -24.833  0.00  0.00    -0.296 N 
ATOM      6  C   UNL     1      34.461 -16.944 -21.356  0.00  0.00    +0.288 C 
ATOM      7  C   UNL     1      34.230 -16.783 -22.708  0.00  0.00    +0.215 C 
ATOM      8  C   UNL     1      34.060 -17.884 -23.536  0.00  0.00    +0.196 C 
ATOM      9  C   UNL     1      34.338 -19.220 -21.750  0.00  0.00    +0.207 C 
ATOM     10  C   UNL     1      33.880 -16.183 -24.800  0.00  0.00    +0.164 C 
ATOM     11  H   UNL     1      34.178 -14.759 -23.275  0.00  0.00    +0.126 HD
ATOM     12  H   UNL     1      34.272 -21.238 -21.861  0.00  0.00    +0.166 HD
ATOM     13  H   UNL     1      33.693 -18.075 -25.617  0.00  0.00    +0.150 HD
ENDROOT
BRANCH   4  15
ATOM     14  C   UNL     1      35.049 -21.922 -17.297  0.00  0.00    +0.106 C 
ATOM     15  C   UNL     1      34.620 -20.991 -19.893  0.00  0.00    +0.059 C 
ATOM     16  C   UNL     1      33.795 -22.063 -17.891  0.00  0.00    +0.020 C 
ATOM     17  C   UNL     1      36.089 -21.314 -18.002  0.00  0.00    +0.020 C 
ATOM     18  C   UNL     1      33.580 -21.598 -19.188  0.00  0.00    +0.017 C 
ATOM     19  C   UNL     1      35.875 -20.849 -19.299  0.00  0.00    +0.017 C 
BRANCH  14  20
ATOM     20  S   UNL     1      35.319 -22.505 -15.675  0.00  0.00    +0.007 S 
ATOM     21  O   UNL     1      34.717 -21.555 -14.751  0.00  0.00    -0.169 OA
ATOM     22  O   UNL     1      34.947 -23.912 -15.610  0.00  0.00    -0.169 OA
BRANCH  20  23
ATOM     23  C   UNL     1      37.084 -22.427 -15.465  0.00  0.00    +0.133 C 
BRANCH  23  24
ATOM     24  C   UNL     1      37.579 -23.528 -14.542  0.00  0.00    -0.056 C 
BRANCH  24  25
ATOM     25  N   UNL     1      36.694 -23.682 -13.393  0.00  0.00    +0.385 N 
ATOM     26  H   UNL     1      36.631 -24.671 -13.150  0.00  0.00    -0.084 HD
ATOM     27  H   UNL     1      35.775 -23.316 -13.639  0.00  0.00    -0.084 HD
BRANCH  25  28
ATOM     28  C   UNL     1      37.199 -22.941 -12.246  0.00  0.00    -0.079 C 
BRANCH  28  29
ATOM     29  C   UNL     1      36.140 -22.880 -11.148  0.00  0.00    +0.008 C 
BRANCH  29  30
ATOM     30  C   UNL     1      34.981 -23.823 -11.438  0.00  0.00    +0.135 C 
BRANCH  30  31
ATOM     31  O   UNL     1      33.998 -23.125 -12.190  0.00  0.00    -0.382 OA
ATOM     32  H   UNL     1      34.109 -22.171 -12.060  0.00  0.00    +0.210 HD
ENDBRANCH  30  31
ENDBRANCH  29  30
ENDBRANCH  28  29
ENDBRANCH  25  28
ENDBRANCH  24  25
ENDBRANCH  23  24
ENDBRANCH  20  23
ENDBRANCH  14  20
ENDBRANCH   4  15
BRANCH   6  33
ATOM     33  O   UNL     1      34.635 -15.892 -20.491  0.00  0.00    -0.453 OA
BRANCH  33  34
ATOM     34  C   UNL     1      33.470 -15.335 -19.911  0.00  0.00    +0.208 C 
BRANCH  34  35
ATOM     35  C   UNL     1      33.328 -13.894 -20.397  0.00  0.00    +0.044 C 
ATOM     36  C   UNL     1      31.884 -13.405 -20.223  0.00  0.00    +0.004 C 
ATOM     37  C   UNL     1      33.776 -13.768 -21.859  0.00  0.00    +0.004 C 
ATOM     38  C   UNL     1      31.704 -11.983 -20.752  0.00  0.00    +0.000 C 
ATOM     39  C   UNL     1      33.593 -12.346 -22.383  0.00  0.00    +0.000 C 
ATOM     40  C   UNL     1      32.159 -11.859 -22.202  0.00  0.00    +0.000 C 
ENDBRANCH  34  35
ENDBRANCH  33  34
ENDBRANCH   6  33
TORSDOF 12
ENDMDL
MODEL 4
REMARK VINA RESULT:     -10.4      4.191      8.172
REMARK  Name = 6852201
REMARK  12 active torsions:
REMARK  status: ('A' for Active; 'I' for Inactive)
REMARK    1  A    between atoms: N_4  and  C_15
REMARK    2  A    between atoms: C_6  and  O_33
REMARK    3  A    between atoms: C_14  and  S_20
REMARK    4  A    between atoms: S_20  and  C_23
REMARK    5  A    between atoms: C_23  and  C_24
REMARK    6  A    between atoms: C_24  and  N_25
REMARK    7  A    between atoms: N_25  and  C_28
REMARK    8  A    between atoms: C_28  and  C_29
REMARK    9  A    between atoms: C_29  and  C_30
REMARK   10  A    between atoms: C_30  and  O_31
REMARK   11  A    between atoms: O_33  and  C_34
REMARK   12  A    between atoms: C_34  and  C_35
REMARK                            x       y       z     vdW  Elec       q    Type
REMARK                         _______ _______ _______ _____ _____    ______ ____
ROOT
ATOM      1  N   UNL     1      31.824 -23.188 -15.429  0.00  0.00    -0.293 NA
ATOM      2  N   UNL     1      28.700 -21.911 -16.887  0.00  0.00    -0.266 NA
ATOM      3  N   UNL     1      29.992 -22.979 -13.833  0.00  0.00    -0.316 NA
ATOM      4  N   UNL     1      32.095 -23.766 -13.175  0.00  0.00    -0.238 N 
ATOM      5  N   UNL     1      27.931 -22.135 -14.806  0.00  0.00    -0.296 N 
ATOM      6  C   UNL     1      31.054 -22.729 -16.441  0.00  0.00    +0.288 C 
ATOM      7  C   UNL     1      29.746 -22.393 -16.154  0.00  0.00    +0.215 C 
ATOM      8  C   UNL     1      29.245 -22.523 -14.866  0.00  0.00    +0.196 C 
ATOM      9  C   UNL     1      31.254 -23.283 -14.204  0.00  0.00    +0.207 C 
ATOM     10  C   UNL     1      27.634 -21.773 -16.036  0.00  0.00    +0.164 C 
ATOM     11  H   UNL     1      28.708 -21.702 -17.848  0.00  0.00    +0.126 HD
ATOM     12  H   UNL     1      31.654 -23.825 -12.298  0.00  0.00    +0.166 HD
ATOM     13  H   UNL     1      27.340 -22.128 -14.018  0.00  0.00    +0.150 HD
ENDROOT
BRANCH   4  15
ATOM     14  C   UNL     1      36.105 -25.001 -13.135  0.00  0.00    +0.106 C 
ATOM     15  C   UNL     1      33.438 -24.181 -13.162  0.00  0.00    +0.059 C 
ATOM     16  C   UNL     1      35.552 -24.388 -12.010  0.00  0.00    +0.020 C 
ATOM     17  C   UNL     1      35.324 -25.204 -14.273  0.00  0.00    +0.020 C 
ATOM     18  C   UNL     1      34.219 -23.979 -12.024  0.00  0.00    +0.017 C 
ATOM     19  C   UNL     1      33.991 -24.794 -14.287  0.00  0.00    +0.017 C 
BRANCH  14  20
ATOM     20  S   UNL     1      37.772 -25.517 -13.118  0.00  0.00    +0.007 S 
ATOM     21  O   UNL     1      38.123 -25.857 -11.746  0.00  0.00    -0.169 OA
ATOM     22  O   UNL     1      37.976 -26.492 -14.180  0.00  0.00    -0.169 OA
BRANCH  20  23
ATOM     23  C   UNL     1      38.689 -24.061 -13.570  0.00  0.00    +0.133 C 
BRANCH  23  24
ATOM     24  C   UNL     1      39.017 -24.054 -15.054  0.00  0.00    -0.056 C 
BRANCH  24  25
ATOM     25  N   UNL     1      38.209 -23.069 -15.762  0.00  0.00    +0.385 N 
ATOM     26  H   UNL     1      37.693 -23.533 -16.509  0.00  0.00    -0.084 HD
ATOM     27  H   UNL     1      38.828 -22.355 -16.146  0.00  0.00    -0.084 HD
BRANCH  25  28
ATOM     28  C   UNL     1      37.263 -22.427 -14.859  0.00  0.00    -0.079 C 
BRANCH  28  29
ATOM     29  C   UNL     1      36.272 -21.576 -15.647  0.00  0.00    +0.008 C 
BRANCH  29  30
ATOM     30  C   UNL     1      36.896 -21.032 -16.925  0.00  0.00    +0.135 C 
BRANCH  30  31
ATOM     31  O   UNL     1      37.224 -19.663 -16.728  0.00  0.00    -0.382 OA
ATOM     32  H   UNL     1      37.560 -19.289 -17.558  0.00  0.00    +0.210 HD
ENDBRANCH  30  31
ENDBRANCH  29  30
ENDBRANCH  28  29
ENDBRANCH  25  28
ENDBRANCH  24  25
ENDBRANCH  23  24
ENDBRANCH  20  23
ENDBRANCH  14  20
ENDBRANCH   4  15
BRANCH   6  33
ATOM     33  O   UNL     1      31.602 -22.620 -17.695  0.00  0.00    -0.453 OA
BRANCH  33  34
ATOM     34  C   UNL     1      33.004 -22.440 -17.772  0.00  0.00    +0.208 C 
BRANCH  34  35
ATOM     35  C   UNL     1      33.332 -21.745 -19.092  0.00  0.00    +0.044 C 
ATOM     36  C   UNL     1      34.773 -21.217 -19.083  0.00  0.00    +0.004 C 
ATOM     37  C   UNL     1      32.337 -20.611 -19.369  0.00  0.00    +0.004 C 
ATOM     38  C   UNL     1      35.108 -20.471 -20.373  0.00  0.00    +0.000 C 
ATOM     39  C   UNL     1      32.676 -19.866 -20.659  0.00  0.00    +0.000 C 
ATOM     40  C   UNL     1      34.111 -19.350 -20.650  0.00  0.00    +0.000 C 
ENDBRANCH  34  35
ENDBRANCH  33  34
ENDBRANCH   6  33
TORSDOF 12
ENDMDL
MODEL 5
REMARK VINA RESULT:     -10.3      1.982      4.457
REMARK  Name = 6852201
REMARK  12 active torsions:
REMARK  status: ('A' for Active; 'I' for Inactive)
REMARK    1  A    between atoms: N_4  and  C_15
REMARK    2  A    between atoms: C_6  and  O_33
REMARK    3  A    between atoms: C_14  and  S_20
REMARK    4  A    between atoms: S_20  and  C_23
REMARK    5  A    between atoms: C_23  and  C_24
REMARK    6  A    between atoms: C_24  and  N_25
REMARK    7  A    between atoms: N_25  and  C_28
REMARK    8  A    between atoms: C_28  and  C_29
REMARK    9  A    between atoms: C_29  and  C_30
REMARK   10  A    between atoms: C_30  and  O_31
REMARK   11  A    between atoms: O_33  and  C_34
REMARK   12  A    between atoms: C_34  and  C_35
REMARK                            x       y       z     vdW  Elec       q    Type
REMARK                         _______ _______ _______ _____ _____    ______ ____
ROOT
ATOM      1  N   UNL     1      34.531 -22.497 -16.173  0.00  0.00    -0.293 NA
ATOM      2  N   UNL     1      34.529 -24.363 -13.005  0.00  0.00    -0.266 NA
ATOM      3  N   UNL     1      36.745 -22.801 -15.194  0.00  0.00    -0.316 NA
ATOM      4  N   UNL     1      36.453 -21.649 -17.209  0.00  0.00    -0.238 N 
ATOM      5  N   UNL     1      36.732 -24.036 -13.100  0.00  0.00    -0.296 N 
ATOM      6  C   UNL     1      33.941 -23.168 -15.159  0.00  0.00    +0.288 C 
ATOM      7  C   UNL     1      34.751 -23.660 -14.155  0.00  0.00    +0.215 C 
ATOM      8  C   UNL     1      36.125 -23.468 -14.191  0.00  0.00    +0.196 C 
ATOM      9  C   UNL     1      35.878 -22.357 -16.129  0.00  0.00    +0.207 C 
ATOM     10  C   UNL     1      35.746 -24.566 -12.408  0.00  0.00    +0.164 C 
ATOM     11  H   UNL     1      33.657 -24.670 -12.668  0.00  0.00    +0.126 HD
ATOM     12  H   UNL     1      37.432 -21.563 -17.150  0.00  0.00    +0.166 HD
ATOM     13  H   UNL     1      37.693 -24.045 -12.883  0.00  0.00    +0.150 HD
ENDROOT
BRANCH   4  15
ATOM     14  C   UNL     1      34.803 -19.845 -20.619  0.00  0.00    +0.106 C 
ATOM     15  C   UNL     1      35.900 -21.045 -18.352  0.00  0.00    +0.059 C 
ATOM     16  C   UNL     1      36.032 -19.408 -20.125  0.00  0.00    +0.020 C 
ATOM     17  C   UNL     1      34.123 -20.881 -19.980  0.00  0.00    +0.020 C 
ATOM     18  C   UNL     1      36.581 -20.008 -18.991  0.00  0.00    +0.017 C 
ATOM     19  C   UNL     1      34.671 -21.482 -18.847  0.00  0.00    +0.017 C 
BRANCH  14  20
ATOM     20  S   UNL     1      34.117 -19.096 -22.038  0.00  0.00    +0.007 S 
ATOM     21  O   UNL     1      34.823 -19.611 -23.203  0.00  0.00    -0.169 OA
ATOM     22  O   UNL     1      32.665 -19.195 -21.970  0.00  0.00    -0.169 OA
BRANCH  20  23
ATOM     23  C   UNL     1      34.526 -17.372 -21.870  0.00  0.00    +0.133 C 
BRANCH  23  24
ATOM     24  C   UNL     1      34.615 -16.692 -23.227  0.00  0.00    -0.056 C 
BRANCH  24  25
ATOM     25  N   UNL     1      34.516 -15.244 -23.091  0.00  0.00    +0.385 N 
ATOM     26  H   UNL     1      33.815 -14.894 -23.744  0.00  0.00    -0.084 HD
ATOM     27  H   UNL     1      35.428 -14.835 -23.294  0.00  0.00    -0.084 HD
BRANCH  25  28
ATOM     28  C   UNL     1      34.132 -14.874 -21.736  0.00  0.00    -0.079 C 
BRANCH  28  29
ATOM     29  C   UNL     1      33.563 -13.458 -21.716  0.00  0.00    +0.008 C 
BRANCH  29  30
ATOM     30  C   UNL     1      33.515 -12.855 -23.113  0.00  0.00    +0.135 C 
BRANCH  30  31
ATOM     31  O   UNL     1      32.397 -13.391 -23.807  0.00  0.00    -0.382 OA
ATOM     32  H   UNL     1      32.689 -14.120 -24.377  0.00  0.00    +0.210 HD
ENDBRANCH  30  31
ENDBRANCH  29  30
ENDBRANCH  28  29
ENDBRANCH  25  28
ENDBRANCH  24  25
ENDBRANCH  23  24
ENDBRANCH  20  23
ENDBRANCH  14  20
ENDBRANCH   4  15
BRANCH   6  33
ATOM     33  O   UNL     1      32.577 -23.327 -15.173  0.00  0.00    -0.453 OA
BRANCH  33  34
ATOM     34  C   UNL     1      31.815 -22.424 -14.395  0.00  0.00    +0.208 C 
BRANCH  34  35
ATOM     35  C   UNL     1      30.334 -22.725 -14.614  0.00  0.00    +0.044 C 
ATOM     36  C   UNL     1      30.047 -24.217 -14.399  0.00  0.00    +0.004 C 
ATOM     37  C   UNL     1      29.892 -22.281 -16.015  0.00  0.00    +0.004 C 
ATOM     38  C   UNL     1      28.581 -24.554 -14.665  0.00  0.00    +0.000 C 
ATOM     39  C   UNL     1      28.426 -22.620 -16.277  0.00  0.00    +0.000 C 
ATOM     40  C   UNL     1      28.142 -24.102 -16.053  0.00  0.00    +0.000 C 
ENDBRANCH  34  35
ENDBRANCH  33  34
ENDBRANCH   6  33
TORSDOF 12
ENDMDL
MODEL 6
REMARK VINA RESULT:     -10.0      2.802     11.949
REMARK  Name = 6852201
REMARK  12 active torsions:
REMARK  status: ('A' for Active; 'I' for Inactive)
REMARK    1  A    between atoms: N_4  and  C_15
REMARK    2  A    between atoms: C_6  and  O_33
REMARK    3  A    between atoms: C_14  and  S_20
REMARK    4  A    between atoms: S_20  and  C_23
REMARK    5  A    between atoms: C_23  and  C_24
REMARK    6  A    between atoms: C_24  and  N_25
REMARK    7  A    between atoms: N_25  and  C_28
REMARK    8  A    between atoms: C_28  and  C_29
REMARK    9  A    between atoms: C_29  and  C_30
REMARK   10  A    between atoms: C_30  and  O_31
REMARK   11  A    between atoms: O_33  and  C_34
REMARK   12  A    between atoms: C_34  and  C_35
REMARK                            x       y       z     vdW  Elec       q    Type
REMARK                         _______ _______ _______ _____ _____    ______ ____
ROOT
ATOM      1  N   UNL     1      33.822 -15.408 -22.539  0.00  0.00    -0.293 NA
ATOM      2  N   UNL     1      32.738 -12.349 -24.268  0.00  0.00    -0.266 NA
ATOM      3  N   UNL     1      33.707 -15.622 -24.967  0.00  0.00    -0.316 NA
ATOM      4  N   UNL     1      34.367 -17.415 -23.617  0.00  0.00    -0.238 N 
ATOM      5  N   UNL     1      32.990 -13.595 -26.100  0.00  0.00    -0.296 N 
ATOM      6  C   UNL     1      33.417 -14.119 -22.589  0.00  0.00    +0.288 C 
ATOM      7  C   UNL     1      33.154 -13.574 -23.830  0.00  0.00    +0.215 C 
ATOM      8  C   UNL     1      33.302 -14.329 -24.985  0.00  0.00    +0.196 C 
ATOM      9  C   UNL     1      33.940 -16.070 -23.715  0.00  0.00    +0.207 C 
ATOM     10  C   UNL     1      32.655 -12.410 -25.635  0.00  0.00    +0.164 C 
ATOM     11  H   UNL     1      32.536 -11.567 -23.707  0.00  0.00    +0.126 HD
ATOM     12  H   UNL     1      34.444 -17.871 -24.485  0.00  0.00    +0.166 HD
ATOM     13  H   UNL     1      33.010 -13.888 -27.040  0.00  0.00    +0.150 HD
ENDROOT
BRANCH   4  15
ATOM     14  C   UNL     1      35.370 -19.840 -20.342  0.00  0.00    +0.106 C 
ATOM     15  C   UNL     1      34.704 -18.228 -22.520  0.00  0.00    +0.059 C 
ATOM     16  C   UNL     1      34.073 -19.861 -20.854  0.00  0.00    +0.020 C 
ATOM     17  C   UNL     1      36.334 -19.013 -20.919  0.00  0.00    +0.020 C 
ATOM     18  C   UNL     1      33.740 -19.055 -21.943  0.00  0.00    +0.017 C 
ATOM     19  C   UNL     1      36.001 -18.207 -22.008  0.00  0.00    +0.017 C 
BRANCH  14  20
ATOM     20  S   UNL     1      35.788 -20.849 -18.981  0.00  0.00    +0.007 S 
ATOM     21  O   UNL     1      36.421 -22.056 -19.495  0.00  0.00    -0.169 OA
ATOM     22  O   UNL     1      36.478 -20.039 -17.986  0.00  0.00    -0.169 OA
BRANCH  20  23
ATOM     23  C   UNL     1      34.222 -21.312 -18.276  0.00  0.00    +0.133 C 
BRANCH  23  24
ATOM     24  C   UNL     1      34.393 -22.378 -17.207  0.00  0.00    -0.056 C 
BRANCH  24  25
ATOM     25  N   UNL     1      35.582 -22.124 -16.402  0.00  0.00    +0.385 N 
ATOM     26  H   UNL     1      35.820 -21.134 -16.461  0.00  0.00    -0.084 HD
ATOM     27  H   UNL     1      36.346 -22.696 -16.761  0.00  0.00    -0.084 HD
BRANCH  25  28
ATOM     28  C   UNL     1      35.351 -22.477 -15.008  0.00  0.00    -0.079 C 
BRANCH  28  29
ATOM     29  C   UNL     1      36.680 -22.707 -14.294  0.00  0.00    +0.008 C 
BRANCH  29  30
ATOM     30  C   UNL     1      37.099 -24.169 -14.353  0.00  0.00    +0.135 C 
BRANCH  30  31
ATOM     31  O   UNL     1      36.265 -24.850 -15.280  0.00  0.00    -0.382 OA
ATOM     32  H   UNL     1      35.685 -25.464 -14.803  0.00  0.00    +0.210 HD
ENDBRANCH  30  31
ENDBRANCH  29  30
ENDBRANCH  28  29
ENDBRANCH  25  28
ENDBRANCH  24  25
ENDBRANCH  23  24
ENDBRANCH  20  23
ENDBRANCH  14  20
ENDBRANCH   4  15
BRANCH   6  33
ATOM     33  O   UNL     1      33.286 -13.419 -21.415  0.00  0.00    -0.453 OA
BRANCH  33  34
ATOM     34  C   UNL     1      31.987 -12.974 -21.072  0.00  0.00    +0.208 C 
BRANCH  34  35
ATOM     35  C   UNL     1      32.037 -11.467 -20.835  0.00  0.00    +0.044 C 
ATOM     36  C   UNL     1      31.620 -11.130 -19.397  0.00  0.00    +0.004 C 
ATOM     37  C   UNL     1      31.150 -10.729 -21.847  0.00  0.00    +0.004 C 
ATOM     38  C   UNL     1      31.610  -9.623 -19.151  0.00  0.00    +0.000 C 
ATOM     39  C   UNL     1      31.143  -9.222 -21.597  0.00  0.00    +0.000 C 
ATOM     40  C   UNL     1      30.737  -8.892 -20.165  0.00  0.00    +0.000 C 
ENDBRANCH  34  35
ENDBRANCH  33  34
ENDBRANCH   6  33
TORSDOF 12
ENDMDL
MODEL 7
REMARK VINA RESULT:      -9.9      2.837     10.808
REMARK  Name = 6852201
REMARK  12 active torsions:
REMARK  status: ('A' for Active; 'I' for Inactive)
REMARK    1  A    between atoms: N_4  and  C_15
REMARK    2  A    between atoms: C_6  and  O_33
REMARK    3  A    between atoms: C_14  and  S_20
REMARK    4  A    between atoms: S_20  and  C_23
REMARK    5  A    between atoms: C_23  and  C_24
REMARK    6  A    between atoms: C_24  and  N_25
REMARK    7  A    between atoms: N_25  and  C_28
REMARK    8  A    between atoms: C_28  and  C_29
REMARK    9  A    between atoms: C_29  and  C_30
REMARK   10  A    between atoms: C_30  and  O_31
REMARK   11  A    between atoms: O_33  and  C_34
REMARK   12  A    between atoms: C_34  and  C_35
REMARK                            x       y       z     vdW  Elec       q    Type
REMARK                         _______ _______ _______ _____ _____    ______ ____
ROOT
ATOM      1  N   UNL     1      34.485 -18.215 -20.886  0.00  0.00    -0.293 NA
ATOM      2  N   UNL     1      34.115 -15.732 -23.573  0.00  0.00    -0.266 NA
ATOM      3  N   UNL     1      34.069 -19.182 -23.087  0.00  0.00    -0.316 NA
ATOM      4  N   UNL     1      34.344 -20.533 -21.196  0.00  0.00    -0.238 N 
ATOM      5  N   UNL     1      33.826 -17.533 -24.855  0.00  0.00    -0.296 N 
ATOM      6  C   UNL     1      34.448 -16.958 -21.382  0.00  0.00    +0.288 C 
ATOM      7  C   UNL     1      34.220 -16.806 -22.735  0.00  0.00    +0.215 C 
ATOM      8  C   UNL     1      34.037 -17.911 -23.554  0.00  0.00    +0.196 C 
ATOM      9  C   UNL     1      34.296 -19.235 -21.757  0.00  0.00    +0.207 C 
ATOM     10  C   UNL     1      33.880 -16.218 -24.833  0.00  0.00    +0.164 C 
ATOM     11  H   UNL     1      34.195 -14.785 -23.319  0.00  0.00    +0.126 HD
ATOM     12  H   UNL     1      34.204 -21.253 -21.851  0.00  0.00    +0.166 HD
ATOM     13  H   UNL     1      33.670 -18.115 -25.634  0.00  0.00    +0.150 HD
ENDROOT
BRANCH   4  15
ATOM     14  C   UNL     1      34.971 -21.910 -17.282  0.00  0.00    +0.106 C 
ATOM     15  C   UNL     1      34.553 -20.994 -19.884  0.00  0.00    +0.059 C 
ATOM     16  C   UNL     1      36.024 -21.343 -17.999  0.00  0.00    +0.020 C 
ATOM     17  C   UNL     1      33.709 -22.019 -17.866  0.00  0.00    +0.020 C 
ATOM     18  C   UNL     1      35.815 -20.885 -19.300  0.00  0.00    +0.017 C 
ATOM     19  C   UNL     1      33.499 -21.561 -19.167  0.00  0.00    +0.017 C 
BRANCH  14  20
ATOM     20  S   UNL     1      35.230 -22.482 -15.654  0.00  0.00    +0.007 S 
ATOM     21  O   UNL     1      36.501 -23.193 -15.625  0.00  0.00    -0.169 OA
ATOM     22  O   UNL     1      34.994 -21.385 -14.725  0.00  0.00    -0.169 OA
BRANCH  20  23
ATOM     23  C   UNL     1      33.933 -23.671 -15.391  0.00  0.00    +0.133 C 
BRANCH  23  24
ATOM     24  C   UNL     1      33.327 -23.527 -14.005  0.00  0.00    -0.056 C 
BRANCH  24  25
ATOM     25  N   UNL     1      32.315 -22.478 -13.984  0.00  0.00    +0.385 N 
ATOM     26  H   UNL     1      32.194 -22.111 -14.928  0.00  0.00    -0.084 HD
ATOM     27  H   UNL     1      32.624 -21.740 -13.352  0.00  0.00    -0.084 HD
BRANCH  25  28
ATOM     28  C   UNL     1      31.040 -22.996 -13.508  0.00  0.00    -0.079 C 
BRANCH  28  29
ATOM     29  C   UNL     1      30.238 -23.578 -14.668  0.00  0.00    +0.008 C 
BRANCH  29  30
ATOM     30  C   UNL     1      29.906 -25.046 -14.436  0.00  0.00    +0.135 C 
BRANCH  30  31
ATOM     31  O   UNL     1      28.685 -25.132 -13.714  0.00  0.00    -0.382 OA
ATOM     32  H   UNL     1      28.303 -24.245 -13.618  0.00  0.00    +0.210 HD
ENDBRANCH  30  31
ENDBRANCH  29  30
ENDBRANCH  28  29
ENDBRANCH  25  28
ENDBRANCH  24  25
ENDBRANCH  23  24
ENDBRANCH  20  23
ENDBRANCH  14  20
ENDBRANCH   4  15
BRANCH   6  33
ATOM     33  O   UNL     1      34.635 -15.901 -20.526  0.00  0.00    -0.453 OA
BRANCH  33  34
ATOM     34  C   UNL     1      33.478 -15.336 -19.937  0.00  0.00    +0.208 C 
BRANCH  34  35
ATOM     35  C   UNL     1      33.342 -13.894 -20.423  0.00  0.00    +0.044 C 
ATOM     36  C   UNL     1      31.908 -13.388 -20.221  0.00  0.00    +0.004 C 
ATOM     37  C   UNL     1      33.760 -13.776 -21.895  0.00  0.00    +0.004 C 
ATOM     38  C   UNL     1      31.732 -11.965 -20.748  0.00  0.00    +0.000 C 
ATOM     39  C   UNL     1      33.583 -12.352 -22.418  0.00  0.00    +0.000 C 
ATOM     40  C   UNL     1      32.158 -11.849 -22.208  0.00  0.00    +0.000 C 
ENDBRANCH  34  35
ENDBRANCH  33  34
ENDBRANCH   6  33
TORSDOF 12
ENDMDL
MODEL 8
REMARK VINA RESULT:      -9.9      4.117      9.048
REMARK  Name = 6852201
REMARK  12 active torsions:
REMARK  status: ('A' for Active; 'I' for Inactive)
REMARK    1  A    between atoms: N_4  and  C_15
REMARK    2  A    between atoms: C_6  and  O_33
REMARK    3  A    between atoms: C_14  and  S_20
REMARK    4  A    between atoms: S_20  and  C_23
REMARK    5  A    between atoms: C_23  and  C_24
REMARK    6  A    between atoms: C_24  and  N_25
REMARK    7  A    between atoms: N_25  and  C_28
REMARK    8  A    between atoms: C_28  and  C_29
REMARK    9  A    between atoms: C_29  and  C_30
REMARK   10  A    between atoms: C_30  and  O_31
REMARK   11  A    between atoms: O_33  and  C_34
REMARK   12  A    between atoms: C_34  and  C_35
REMARK                            x       y       z     vdW  Elec       q    Type
REMARK                         _______ _______ _______ _____ _____    ______ ____
ROOT
ATOM      1  N   UNL     1      32.002 -22.864 -16.043  0.00  0.00    -0.293 NA
ATOM      2  N   UNL     1      28.549 -21.949 -16.913  0.00  0.00    -0.266 NA
ATOM      3  N   UNL     1      30.342 -23.557 -14.395  0.00  0.00    -0.316 NA
ATOM      4  N   UNL     1      32.618 -24.010 -14.094  0.00  0.00    -0.238 N 
ATOM      5  N   UNL     1      28.063 -22.947 -14.980  0.00  0.00    -0.296 N 
ATOM      6  C   UNL     1      31.054 -22.312 -16.832  0.00  0.00    +0.288 C 
ATOM      7  C   UNL     1      29.743 -22.379 -16.407  0.00  0.00    +0.215 C 
ATOM      8  C   UNL     1      29.415 -22.995 -15.207  0.00  0.00    +0.196 C 
ATOM      9  C   UNL     1      31.593 -23.445 -14.889  0.00  0.00    +0.207 C 
ATOM     10  C   UNL     1      27.572 -22.313 -16.024  0.00  0.00    +0.164 C 
ATOM     11  H   UNL     1      28.415 -21.467 -17.760  0.00  0.00    +0.126 HD
ATOM     12  H   UNL     1      32.292 -24.424 -13.264  0.00  0.00    +0.166 HD
ATOM     13  H   UNL     1      27.569 -23.308 -14.208  0.00  0.00    +0.150 HD
ENDROOT
BRANCH   4  15
ATOM     14  C   UNL     1      36.776 -24.267 -14.591  0.00  0.00    +0.106 C 
ATOM     15  C   UNL     1      34.011 -24.097 -14.260  0.00  0.00    +0.059 C 
ATOM     16  C   UNL     1      36.186 -23.044 -14.273  0.00  0.00    +0.020 C 
ATOM     17  C   UNL     1      35.984 -25.405 -14.744  0.00  0.00    +0.020 C 
ATOM     18  C   UNL     1      34.804 -22.959 -14.107  0.00  0.00    +0.017 C 
ATOM     19  C   UNL     1      34.601 -25.320 -14.579  0.00  0.00    +0.017 C 
BRANCH  14  20
ATOM     20  S   UNL     1      38.506 -24.375 -14.797  0.00  0.00    +0.007 S 
ATOM     21  O   UNL     1      38.799 -25.625 -15.483  0.00  0.00    -0.169 OA
ATOM     22  O   UNL     1      38.997 -23.118 -15.343  0.00  0.00    -0.169 OA
BRANCH  20  23
ATOM     23  C   UNL     1      39.141 -24.502 -13.139  0.00  0.00    +0.133 C 
BRANCH  23  24
ATOM     24  C   UNL     1      38.582 -23.404 -12.249  0.00  0.00    -0.056 C 
BRANCH  24  25
ATOM     25  N   UNL     1      37.941 -23.967 -11.067  0.00  0.00    +0.385 N 
ATOM     26  H   UNL     1      37.337 -23.262 -10.646  0.00  0.00    -0.084 HD
ATOM     27  H   UNL     1      38.666 -24.254 -10.410  0.00  0.00    -0.084 HD
BRANCH  25  28
ATOM     28  C   UNL     1      37.141 -25.133 -11.416  0.00  0.00    -0.079 C 
BRANCH  28  29
ATOM     29  C   UNL     1      35.665 -24.863 -11.138  0.00  0.00    +0.008 C 
BRANCH  29  30
ATOM     30  C   UNL     1      35.465 -23.532 -10.428  0.00  0.00    +0.135 C 
BRANCH  30  31
ATOM     31  O   UNL     1      35.942 -23.646  -9.094  0.00  0.00    -0.382 OA
ATOM     32  H   UNL     1      36.901 -23.500  -9.081  0.00  0.00    +0.210 HD
ENDBRANCH  30  31
ENDBRANCH  29  30
ENDBRANCH  28  29
ENDBRANCH  25  28
ENDBRANCH  24  25
ENDBRANCH  23  24
ENDBRANCH  20  23
ENDBRANCH  14  20
ENDBRANCH   4  15
BRANCH   6  33
ATOM     33  O   UNL     1      31.435 -21.714 -18.008  0.00  0.00    -0.453 OA
BRANCH  33  34
ATOM     34  C   UNL     1      32.612 -22.200 -18.625  0.00  0.00    +0.208 C 
BRANCH  34  35
ATOM     35  C   UNL     1      33.465 -21.006 -19.050  0.00  0.00    +0.044 C 
ATOM     36  C   UNL     1      32.855 -20.313 -20.276  0.00  0.00    +0.004 C 
ATOM     37  C   UNL     1      34.909 -21.444 -19.332  0.00  0.00    +0.004 C 
ATOM     38  C   UNL     1      33.719 -19.147 -20.752  0.00  0.00    +0.000 C 
ATOM     39  C   UNL     1      35.769 -20.276 -19.809  0.00  0.00    +0.000 C 
ATOM     40  C   UNL     1      35.155 -19.584 -21.022  0.00  0.00    +0.000 C 
ENDBRANCH  34  35
ENDBRANCH  33  34
ENDBRANCH   6  33
TORSDOF 12
ENDMDL
MODEL 9
REMARK VINA RESULT:      -9.8      2.245      4.726
REMARK  Name = 6852201
REMARK  12 active torsions:
REMARK  status: ('A' for Active; 'I' for Inactive)
REMARK    1  A    between atoms: N_4  and  C_15
REMARK    2  A    between atoms: C_6  and  O_33
REMARK    3  A    between atoms: C_14  and  S_20
REMARK    4  A    between atoms: S_20  and  C_23
REMARK    5  A    between atoms: C_23  and  C_24
REMARK    6  A    between atoms: C_24  and  N_25
REMARK    7  A    between atoms: N_25  and  C_28
REMARK    8  A    between atoms: C_28  and  C_29
REMARK    9  A    between atoms: C_29  and  C_30
REMARK   10  A    between atoms: C_30  and  O_31
REMARK   11  A    between atoms: O_33  and  C_34
REMARK   12  A    between atoms: C_34  and  C_35
REMARK                            x       y       z     vdW  Elec       q    Type
REMARK                         _______ _______ _______ _____ _____    ______ ____
ROOT
ATOM      1  N   UNL     1      34.353 -22.642 -15.076  0.00  0.00    -0.293 NA
ATOM      2  N   UNL     1      34.302 -24.256 -11.773  0.00  0.00    -0.266 NA
ATOM      3  N   UNL     1      36.538 -23.410 -14.308  0.00  0.00    -0.316 NA
ATOM      4  N   UNL     1      36.280 -22.347 -16.376  0.00  0.00    -0.238 N 
ATOM      5  N   UNL     1      36.492 -24.476 -12.124  0.00  0.00    -0.296 N 
ATOM      6  C   UNL     1      33.751 -23.088 -13.951  0.00  0.00    +0.288 C 
ATOM      7  C   UNL     1      34.540 -23.698 -12.997  0.00  0.00    +0.215 C 
ATOM      8  C   UNL     1      35.906 -23.846 -13.192  0.00  0.00    +0.196 C 
ATOM      9  C   UNL     1      35.691 -22.828 -15.184  0.00  0.00    +0.207 C 
ATOM     10  C   UNL     1      35.502 -24.710 -11.290  0.00  0.00    +0.164 C 
ATOM     11  H   UNL     1      33.430 -24.322 -11.322  0.00  0.00    +0.126 HD
ATOM     12  H   UNL     1      37.251 -22.496 -16.427  0.00  0.00    +0.166 HD
ATOM     13  H   UNL     1      37.444 -24.704 -12.007  0.00  0.00    +0.150 HD
ENDROOT
BRANCH   4  15
ATOM     14  C   UNL     1      34.692 -20.408 -19.742  0.00  0.00    +0.106 C 
ATOM     15  C   UNL     1      35.748 -21.698 -17.504  0.00  0.00    +0.059 C 
ATOM     16  C   UNL     1      35.979 -20.097 -19.300  0.00  0.00    +0.020 C 
ATOM     17  C   UNL     1      33.934 -21.363 -19.065  0.00  0.00    +0.020 C 
ATOM     18  C   UNL     1      36.506 -20.742 -18.181  0.00  0.00    +0.017 C 
ATOM     19  C   UNL     1      34.462 -22.009 -17.947  0.00  0.00    +0.017 C 
BRANCH  14  20
ATOM     20  S   UNL     1      34.032 -19.603 -21.143  0.00  0.00    +0.007 S 
ATOM     21  O   UNL     1      34.690 -20.145 -22.323  0.00  0.00    -0.169 OA
ATOM     22  O   UNL     1      32.578 -19.618 -21.055  0.00  0.00    -0.169 OA
BRANCH  20  23
ATOM     23  C   UNL     1      34.545 -17.909 -20.962  0.00  0.00    +0.133 C 
BRANCH  23  24
ATOM     24  C   UNL     1      34.999 -17.326 -22.290  0.00  0.00    -0.056 C 
BRANCH  24  25
ATOM     25  N   UNL     1      34.029 -17.606 -23.341  0.00  0.00    +0.385 N 
ATOM     26  H   UNL     1      33.116 -17.772 -22.919  0.00  0.00    -0.084 HD
ATOM     27  H   UNL     1      34.338 -18.428 -23.859  0.00  0.00    -0.084 HD
BRANCH  25  28
ATOM     28  C   UNL     1      33.928 -16.485 -24.266  0.00  0.00    -0.079 C 
BRANCH  28  29
ATOM     29  C   UNL     1      34.101 -15.166 -23.519  0.00  0.00    +0.008 C 
BRANCH  29  30
ATOM     30  C   UNL     1      33.110 -14.116 -24.002  0.00  0.00    +0.135 C 
BRANCH  30  31
ATOM     31  O   UNL     1      32.743 -14.414 -25.342  0.00  0.00    -0.382 OA
ATOM     32  H   UNL     1      32.839 -13.618 -25.888  0.00  0.00    +0.210 HD
ENDBRANCH  30  31
ENDBRANCH  29  30
ENDBRANCH  28  29
ENDBRANCH  25  28
ENDBRANCH  24  25
ENDBRANCH  23  24
ENDBRANCH  20  23
ENDBRANCH  14  20
ENDBRANCH   4  15
BRANCH   6  33
ATOM     33  O   UNL     1      32.396 -22.914 -13.810  0.00  0.00    -0.453 OA
BRANCH  33  34
ATOM     34  C   UNL     1      31.585 -24.070 -13.904  0.00  0.00    +0.208 C 
BRANCH  34  35
ATOM     35  C   UNL     1      30.543 -23.845 -14.997  0.00  0.00    +0.044 C 
ATOM     36  C   UNL     1      30.085 -22.381 -15.015  0.00  0.00    +0.004 C 
ATOM     37  C   UNL     1      29.348 -24.789 -14.810  0.00  0.00    +0.004 C 
ATOM     38  C   UNL     1      29.003 -22.141 -16.066  0.00  0.00    +0.000 C 
ATOM     39  C   UNL     1      28.268 -24.546 -15.862  0.00  0.00    +0.000 C 
ATOM     40  C   UNL     1      27.821 -23.088 -15.883  0.00  0.00    +0.000 C 
ENDBRANCH  34  35
ENDBRANCH  33  34
ENDBRANCH   6  33
TORSDOF 12
ENDMDL
