MODEL 1
REMARK VINA RESULT:     -11.8      0.000      0.000
REMARK  Name = 4565
REMARK  4 active torsions:
REMARK  status: ('A' for Active; 'I' for Inactive)
REMARK    1  A    between atoms: N_5  and  C_15
REMARK    2  A    between atoms: C_6  and  O_21
REMARK    3  A    between atoms: O_21  and  C_22
REMARK    4  A    between atoms: C_22  and  C_23
REMARK                            x       y       z     vdW  Elec       q    Type
REMARK                         _______ _______ _______ _____ _____    ______ ____
ROOT
ATOM      1  N   UNL     1      32.982 -22.564 -16.266  0.00  0.00    -0.293 NA
ATOM      2  N   UNL     1      29.353 -22.191 -16.732  0.00  0.00    -0.266 NA
ATOM      3  N   UNL     1      31.679 -22.838 -14.220  0.00  0.00    -0.316 NA
ATOM      4  N   UNL     1      29.283 -22.588 -14.539  0.00  0.00    -0.296 N 
ATOM      5  N   UNL     1      34.012 -23.023 -14.213  0.00  0.00    -0.238 N 
ATOM      6  C   UNL     1      31.867 -22.341 -16.995  0.00  0.00    +0.288 C 
ATOM      7  C   UNL     1      30.651 -22.365 -16.345  0.00  0.00    +0.215 C 
ATOM      8  C   UNL     1      30.581 -22.610 -14.980  0.00  0.00    +0.196 C 
ATOM      9  C   UNL     1      32.821 -22.796 -14.940  0.00  0.00    +0.207 C 
ATOM     10  C   UNL     1      28.570 -22.334 -15.616  0.00  0.00    +0.164 C 
ATOM     11  H   UNL     1      29.036 -21.998 -17.644  0.00  0.00    +0.126 HD
ATOM     12  H   UNL     1      28.956 -22.731 -13.622  0.00  0.00    +0.150 HD
ATOM     13  H   UNL     1      33.865 -23.189 -13.253  0.00  0.00    +0.166 HD
ENDROOT
BRANCH   5  15
ATOM     14 CL   UNL     1      38.598 -25.288 -13.810  0.00  0.00    -0.082 Cl
ATOM     15  C   UNL     1      35.366 -23.060 -14.593  0.00  0.00    +0.059 C 
ATOM     16  C   UNL     1      36.214 -24.042 -14.074  0.00  0.00    +0.027 C 
ATOM     17  C   UNL     1      35.869 -22.115 -15.490  0.00  0.00    +0.015 C 
ATOM     18  C   UNL     1      37.556 -24.077 -14.451  0.00  0.00    +0.059 C 
ATOM     19  C   UNL     1      37.210 -22.151 -15.868  0.00  0.00    +0.002 C 
ATOM     20  C   UNL     1      38.055 -23.133 -15.348  0.00  0.00    +0.011 C 
ENDBRANCH   5  15
BRANCH   6  21
ATOM     21  O   UNL     1      31.994 -22.103 -18.342  0.00  0.00    -0.453 OA
BRANCH  21  22
ATOM     22  C   UNL     1      33.269 -22.322 -18.917  0.00  0.00    +0.208 C 
BRANCH  22  23
ATOM     23  C   UNL     1      33.886 -20.967 -19.257  0.00  0.00    +0.044 C 
ATOM     24  C   UNL     1      35.372 -21.121 -19.611  0.00  0.00    +0.004 C 
ATOM     25  C   UNL     1      33.119 -20.295 -20.404  0.00  0.00    +0.004 C 
ATOM     26  C   UNL     1      35.998 -19.786 -20.007  0.00  0.00    +0.000 C 
ATOM     27  C   UNL     1      33.750 -18.962 -20.800  0.00  0.00    +0.000 C 
ATOM     28  C   UNL     1      35.229 -19.118 -21.141  0.00  0.00    +0.000 C 
ENDBRANCH  22  23
ENDBRANCH  21  22
ENDBRANCH   6  21
TORSDOF 4
ENDMDL
MODEL 2
REMARK VINA RESULT:     -11.6      1.722      2.342
REMARK  Name = 4565
REMARK  4 active torsions:
REMARK  status: ('A' for Active; 'I' for Inactive)
REMARK    1  A    between atoms: N_5  and  C_15
REMARK    2  A    between atoms: C_6  and  O_21
REMARK    3  A    between atoms: O_21  and  C_22
REMARK    4  A    between atoms: C_22  and  C_23
REMARK                            x       y       z     vdW  Elec       q    Type
REMARK                         _______ _______ _______ _____ _____    ______ ____
ROOT
ATOM      1  N   UNL     1      32.959 -23.601 -14.555  0.00  0.00    -0.293 NA
ATOM      2  N   UNL     1      29.465 -23.807 -15.686  0.00  0.00    -0.266 NA
ATOM      3  N   UNL     1      31.459 -24.689 -12.968  0.00  0.00    -0.316 NA
ATOM      4  N   UNL     1      29.153 -24.819 -13.724  0.00  0.00    -0.296 N 
ATOM      5  N   UNL     1      33.737 -24.423 -12.505  0.00  0.00    -0.238 N 
ATOM      6  C   UNL     1      31.951 -23.395 -15.431  0.00  0.00    +0.288 C 
ATOM      7  C   UNL     1      30.690 -23.834 -15.083  0.00  0.00    +0.215 C 
ATOM      8  C   UNL     1      30.470 -24.467 -13.867  0.00  0.00    +0.196 C 
ATOM      9  C   UNL     1      32.654 -24.227 -13.393  0.00  0.00    +0.207 C 
ATOM     10  C   UNL     1      28.576 -24.409 -14.834  0.00  0.00    +0.164 C 
ATOM     11  H   UNL     1      29.258 -23.425 -16.569  0.00  0.00    +0.126 HD
ATOM     12  H   UNL     1      28.731 -25.278 -12.962  0.00  0.00    +0.150 HD
ATOM     13  H   UNL     1      33.487 -24.880 -11.669  0.00  0.00    +0.166 HD
ENDROOT
BRANCH   5  15
ATOM     14 CL   UNL     1      38.373 -25.444 -14.450  0.00  0.00    -0.082 Cl
ATOM     15  C   UNL     1      35.102 -24.092 -12.582  0.00  0.00    +0.059 C 
ATOM     16  C   UNL     1      35.963 -24.844 -13.384  0.00  0.00    +0.027 C 
ATOM     17  C   UNL     1      35.602 -23.008 -11.855  0.00  0.00    +0.015 C 
ATOM     18  C   UNL     1      37.315 -24.515 -13.460  0.00  0.00    +0.059 C 
ATOM     19  C   UNL     1      36.955 -22.678 -11.932  0.00  0.00    +0.002 C 
ATOM     20  C   UNL     1      37.812 -23.432 -12.735  0.00  0.00    +0.011 C 
ENDBRANCH   5  15
BRANCH   6  21
ATOM     21  O   UNL     1      32.225 -22.763 -16.619  0.00  0.00    -0.453 OA
BRANCH  21  22
ATOM     22  C   UNL     1      33.588 -22.599 -16.961  0.00  0.00    +0.208 C 
BRANCH  22  23
ATOM     23  C   UNL     1      33.668 -22.061 -18.388  0.00  0.00    +0.044 C 
ATOM     24  C   UNL     1      32.472 -21.148 -18.691  0.00  0.00    +0.004 C 
ATOM     25  C   UNL     1      34.992 -21.319 -18.614  0.00  0.00    +0.004 C 
ATOM     26  C   UNL     1      32.557 -20.554 -20.095  0.00  0.00    +0.000 C 
ATOM     27  C   UNL     1      35.073 -20.725 -20.019  0.00  0.00    +0.000 C 
ATOM     28  C   UNL     1      33.877 -19.825 -20.319  0.00  0.00    +0.000 C 
ENDBRANCH  22  23
ENDBRANCH  21  22
ENDBRANCH   6  21
TORSDOF 4
ENDMDL
MODEL 3
REMARK VINA RESULT:     -11.4      2.799      6.057
REMARK  Name = 4565
REMARK  4 active torsions:
REMARK  status: ('A' for Active; 'I' for Inactive)
REMARK    1  A    between atoms: N_5  and  C_15
REMARK    2  A    between atoms: C_6  and  O_21
REMARK    3  A    between atoms: O_21  and  C_22
REMARK    4  A    between atoms: C_22  and  C_23
REMARK                            x       y       z     vdW  Elec       q    Type
REMARK                         _______ _______ _______ _____ _____    ______ ____
ROOT
ATOM      1  N   UNL     1      33.140 -22.664 -15.985  0.00  0.00    -0.293 NA
ATOM      2  N   UNL     1      31.494 -24.292 -13.128  0.00  0.00    -0.266 NA
ATOM      3  N   UNL     1      30.743 -23.013 -16.281  0.00  0.00    -0.316 NA
ATOM      4  N   UNL     1      29.665 -24.091 -14.387  0.00  0.00    -0.296 N 
ATOM      5  N   UNL     1      32.040 -21.997 -17.942  0.00  0.00    -0.238 N 
ATOM      6  C   UNL     1      33.113 -23.226 -14.758  0.00  0.00    +0.288 C 
ATOM      7  C   UNL     1      31.903 -23.687 -14.282  0.00  0.00    +0.215 C 
ATOM      8  C   UNL     1      30.750 -23.572 -15.047  0.00  0.00    +0.196 C 
ATOM      9  C   UNL     1      31.968 -22.593 -16.662  0.00  0.00    +0.207 C 
ATOM     10  C   UNL     1      30.146 -24.515 -13.238  0.00  0.00    +0.164 C 
ATOM     11  H   UNL     1      32.062 -24.527 -12.359  0.00  0.00    +0.126 HD
ATOM     12  H   UNL     1      28.734 -24.135 -14.703  0.00  0.00    +0.150 HD
ATOM     13  H   UNL     1      31.174 -21.959 -18.411  0.00  0.00    +0.166 HD
ENDROOT
BRANCH   5  15
ATOM     14 CL   UNL     1      33.589 -19.019 -21.823  0.00  0.00    -0.082 Cl
ATOM     15  C   UNL     1      33.106 -21.449 -18.678  0.00  0.00    +0.059 C 
ATOM     16  C   UNL     1      32.850 -20.604 -19.761  0.00  0.00    +0.027 C 
ATOM     17  C   UNL     1      34.425 -21.747 -18.330  0.00  0.00    +0.015 C 
ATOM     18  C   UNL     1      33.907 -20.060 -20.489  0.00  0.00    +0.059 C 
ATOM     19  C   UNL     1      35.483 -21.203 -19.058  0.00  0.00    +0.002 C 
ATOM     20  C   UNL     1      35.223 -20.359 -20.139  0.00  0.00    +0.011 C 
ENDBRANCH   5  15
BRANCH   6  21
ATOM     21  O   UNL     1      34.283 -23.314 -14.044  0.00  0.00    -0.453 OA
BRANCH  21  22
ATOM     22  C   UNL     1      35.471 -22.919 -14.705  0.00  0.00    +0.208 C 
BRANCH  22  23
ATOM     23  C   UNL     1      36.502 -24.036 -14.558  0.00  0.00    +0.044 C 
ATOM     24  C   UNL     1      37.918 -23.505 -14.829  0.00  0.00    +0.004 C 
ATOM     25  C   UNL     1      36.416 -24.673 -13.165  0.00  0.00    +0.004 C 
ATOM     26  C   UNL     1      38.973 -24.592 -14.636  0.00  0.00    +0.000 C 
ATOM     27  C   UNL     1      37.474 -25.758 -12.975  0.00  0.00    +0.000 C 
ATOM     28  C   UNL     1      38.878 -25.229 -13.254  0.00  0.00    +0.000 C 
ENDBRANCH  22  23
ENDBRANCH  21  22
ENDBRANCH   6  21
TORSDOF 4
ENDMDL
MODEL 4
REMARK VINA RESULT:     -11.2      3.061      6.763
REMARK  Name = 4565
REMARK  4 active torsions:
REMARK  status: ('A' for Active; 'I' for Inactive)
REMARK    1  A    between atoms: N_5  and  C_15
REMARK    2  A    between atoms: C_6  and  O_21
REMARK    3  A    between atoms: O_21  and  C_22
REMARK    4  A    between atoms: C_22  and  C_23
REMARK                            x       y       z     vdW  Elec       q    Type
REMARK                         _______ _______ _______ _____ _____    ______ ____
ROOT
ATOM      1  N   UNL     1      34.818 -23.180 -15.525  0.00  0.00    -0.293 NA
ATOM      2  N   UNL     1      35.692 -24.978 -12.439  0.00  0.00    -0.266 NA
ATOM      3  N   UNL     1      37.197 -23.138 -14.986  0.00  0.00    -0.316 NA
ATOM      4  N   UNL     1      37.764 -24.329 -12.945  0.00  0.00    -0.296 N 
ATOM      5  N   UNL     1      36.362 -22.073 -16.895  0.00  0.00    -0.238 N 
ATOM      6  C   UNL     1      34.539 -23.914 -14.427  0.00  0.00    +0.288 C 
ATOM      7  C   UNL     1      35.585 -24.266 -13.599  0.00  0.00    +0.215 C 
ATOM      8  C   UNL     1      36.884 -23.874 -13.893  0.00  0.00    +0.196 C 
ATOM      9  C   UNL     1      36.113 -22.842 -15.735  0.00  0.00    +0.207 C 
ATOM     10  C   UNL     1      37.016 -24.989 -12.086  0.00  0.00    +0.164 C 
ATOM     11  H   UNL     1      34.955 -25.406 -11.946  0.00  0.00    +0.126 HD
ATOM     12  H   UNL     1      38.739 -24.193 -12.914  0.00  0.00    +0.150 HD
ATOM     13  H   UNL     1      37.311 -21.842 -17.022  0.00  0.00    +0.166 HD
ENDROOT
BRANCH   5  15
ATOM     14 CL   UNL     1      35.799 -19.094 -21.034  0.00  0.00    -0.082 Cl
ATOM     15  C   UNL     1      35.518 -21.573 -17.903  0.00  0.00    +0.059 C 
ATOM     16  C   UNL     1      36.017 -20.684 -18.859  0.00  0.00    +0.027 C 
ATOM     17  C   UNL     1      34.178 -21.964 -17.955  0.00  0.00    +0.015 C 
ATOM     18  C   UNL     1      35.181 -20.189 -19.858  0.00  0.00    +0.059 C 
ATOM     19  C   UNL     1      33.342 -21.469 -18.955  0.00  0.00    +0.002 C 
ATOM     20  C   UNL     1      33.843 -20.581 -19.908  0.00  0.00    +0.011 C 
ENDBRANCH   5  15
BRANCH   6  21
ATOM     21  O   UNL     1      33.236 -24.274 -14.184  0.00  0.00    -0.453 OA
BRANCH  21  22
ATOM     22  C   UNL     1      32.491 -23.445 -13.312  0.00  0.00    +0.208 C 
BRANCH  22  23
ATOM     23  C   UNL     1      31.044 -23.403 -13.801  0.00  0.00    +0.044 C 
ATOM     24  C   UNL     1      30.973 -22.855 -15.234  0.00  0.00    +0.004 C 
ATOM     25  C   UNL     1      30.402 -24.794 -13.716  0.00  0.00    +0.004 C 
ATOM     26  C   UNL     1      29.541 -22.852 -15.765  0.00  0.00    +0.000 C 
ATOM     27  C   UNL     1      28.972 -24.788 -14.251  0.00  0.00    +0.000 C 
ATOM     28  C   UNL     1      28.904 -24.234 -15.671  0.00  0.00    +0.000 C 
ENDBRANCH  22  23
ENDBRANCH  21  22
ENDBRANCH   6  21
TORSDOF 4
ENDMDL
MODEL 5
REMARK VINA RESULT:     -11.2      2.150      5.416
REMARK  Name = 4565
REMARK  4 active torsions:
REMARK  status: ('A' for Active; 'I' for Inactive)
REMARK    1  A    between atoms: N_5  and  C_15
REMARK    2  A    between atoms: C_6  and  O_21
REMARK    3  A    between atoms: O_21  and  C_22
REMARK    4  A    between atoms: C_22  and  C_23
REMARK                            x       y       z     vdW  Elec       q    Type
REMARK                         _______ _______ _______ _____ _____    ______ ____
ROOT
ATOM      1  N   UNL     1      34.687 -22.332 -17.154  0.00  0.00    -0.293 NA
ATOM      2  N   UNL     1      33.043 -20.778 -20.054  0.00  0.00    -0.266 NA
ATOM      3  N   UNL     1      36.101 -20.770 -18.384  0.00  0.00    -0.316 NA
ATOM      4  N   UNL     1      35.005 -19.749 -20.299  0.00  0.00    -0.296 N 
ATOM      5  N   UNL     1      36.893 -21.901 -16.495  0.00  0.00    -0.238 N 
ATOM      6  C   UNL     1      33.651 -22.122 -17.994  0.00  0.00    +0.288 C 
ATOM      7  C   UNL     1      33.831 -21.235 -19.036  0.00  0.00    +0.215 C 
ATOM      8  C   UNL     1      35.043 -20.581 -19.209  0.00  0.00    +0.196 C 
ATOM      9  C   UNL     1      35.833 -21.652 -17.398  0.00  0.00    +0.207 C 
ATOM     10  C   UNL     1      33.790 -19.891 -20.783  0.00  0.00    +0.164 C 
ATOM     11  H   UNL     1      32.110 -21.039 -20.232  0.00  0.00    +0.126 HD
ATOM     12  H   UNL     1      35.726 -19.174 -20.642  0.00  0.00    +0.150 HD
ATOM     13  H   UNL     1      37.713 -21.394 -16.696  0.00  0.00    +0.166 HD
ENDROOT
BRANCH   5  15
ATOM     14 CL   UNL     1      39.629 -25.367 -13.882  0.00  0.00    -0.082 Cl
ATOM     15  C   UNL     1      37.005 -22.733 -15.367  0.00  0.00    +0.059 C 
ATOM     16  C   UNL     1      38.130 -23.545 -15.202  0.00  0.00    +0.027 C 
ATOM     17  C   UNL     1      35.991 -22.752 -14.405  0.00  0.00    +0.015 C 
ATOM     18  C   UNL     1      38.241 -24.368 -14.082  0.00  0.00    +0.059 C 
ATOM     19  C   UNL     1      36.103 -23.575 -13.285  0.00  0.00    +0.002 C 
ATOM     20  C   UNL     1      37.228 -24.384 -13.124  0.00  0.00    +0.011 C 
ENDBRANCH   5  15
BRANCH   6  21
ATOM     21  O   UNL     1      32.474 -22.795 -17.776  0.00  0.00    -0.453 OA
BRANCH  21  22
ATOM     22  C   UNL     1      31.611 -22.277 -16.781  0.00  0.00    +0.208 C 
BRANCH  22  23
ATOM     23  C   UNL     1      31.329 -23.380 -15.763  0.00  0.00    +0.044 C 
ATOM     24  C   UNL     1      32.211 -23.207 -14.518  0.00  0.00    +0.004 C 
ATOM     25  C   UNL     1      29.843 -23.399 -15.381  0.00  0.00    +0.004 C 
ATOM     26  C   UNL     1      31.909 -24.268 -13.462  0.00  0.00    +0.000 C 
ATOM     27  C   UNL     1      29.546 -24.459 -14.323  0.00  0.00    +0.000 C 
ATOM     28  C   UNL     1      30.430 -24.289 -13.091  0.00  0.00    +0.000 C 
ENDBRANCH  22  23
ENDBRANCH  21  22
ENDBRANCH   6  21
TORSDOF 4
ENDMDL
MODEL 6
REMARK VINA RESULT:     -11.2      2.347      5.491
REMARK  Name = 4565
REMARK  4 active torsions:
REMARK  status: ('A' for Active; 'I' for Inactive)
REMARK    1  A    between atoms: N_5  and  C_15
REMARK    2  A    between atoms: C_6  and  O_21
REMARK    3  A    between atoms: O_21  and  C_22
REMARK    4  A    between atoms: C_22  and  C_23
REMARK                            x       y       z     vdW  Elec       q    Type
REMARK                         _______ _______ _______ _____ _____    ______ ____
ROOT
ATOM      1  N   UNL     1      34.944 -22.802 -16.109  0.00  0.00    -0.293 NA
ATOM      2  N   UNL     1      33.312 -21.288 -19.036  0.00  0.00    -0.266 NA
ATOM      3  N   UNL     1      36.448 -21.513 -17.535  0.00  0.00    -0.316 NA
ATOM      4  N   UNL     1      35.359 -20.518 -19.466  0.00  0.00    -0.296 N 
ATOM      5  N   UNL     1      37.221 -22.585 -15.604  0.00  0.00    -0.238 N 
ATOM      6  C   UNL     1      33.889 -22.535 -16.909  0.00  0.00    +0.288 C 
ATOM      7  C   UNL     1      34.104 -21.756 -18.027  0.00  0.00    +0.215 C 
ATOM      8  C   UNL     1      35.370 -21.264 -18.316  0.00  0.00    +0.196 C 
ATOM      9  C   UNL     1      36.143 -22.282 -16.467  0.00  0.00    +0.207 C 
ATOM     10  C   UNL     1      34.109 -20.552 -19.873  0.00  0.00    +0.164 C 
ATOM     11  H   UNL     1      32.347 -21.450 -19.144  0.00  0.00    +0.126 HD
ATOM     12  H   UNL     1      36.119 -20.058 -19.892  0.00  0.00    +0.150 HD
ATOM     13  H   UNL     1      38.079 -22.194 -15.888  0.00  0.00    +0.166 HD
ENDROOT
BRANCH   5  15
ATOM     14 CL   UNL     1      36.017 -23.061 -10.639  0.00  0.00    -0.082 Cl
ATOM     15  C   UNL     1      37.307 -23.338 -14.418  0.00  0.00    +0.059 C 
ATOM     16  C   UNL     1      36.691 -22.880 -13.250  0.00  0.00    +0.027 C 
ATOM     17  C   UNL     1      38.009 -24.546 -14.403  0.00  0.00    +0.015 C 
ATOM     18  C   UNL     1      36.777 -23.627 -12.076  0.00  0.00    +0.059 C 
ATOM     19  C   UNL     1      38.094 -25.292 -13.229  0.00  0.00    +0.002 C 
ATOM     20  C   UNL     1      37.478 -24.833 -12.064  0.00  0.00    +0.011 C 
ENDBRANCH   5  15
BRANCH   6  21
ATOM     21  O   UNL     1      32.659 -23.047 -16.575  0.00  0.00    -0.453 OA
BRANCH  21  22
ATOM     22  C   UNL     1      32.344 -23.119 -15.197  0.00  0.00    +0.208 C 
BRANCH  22  23
ATOM     23  C   UNL     1      30.825 -23.072 -15.044  0.00  0.00    +0.044 C 
ATOM     24  C   UNL     1      30.177 -22.423 -16.276  0.00  0.00    +0.004 C 
ATOM     25  C   UNL     1      30.260 -24.478 -14.807  0.00  0.00    +0.004 C 
ATOM     26  C   UNL     1      28.653 -22.412 -16.170  0.00  0.00    +0.000 C 
ATOM     27  C   UNL     1      28.737 -24.464 -14.705  0.00  0.00    +0.000 C 
ATOM     28  C   UNL     1      28.096 -23.810 -15.926  0.00  0.00    +0.000 C 
ENDBRANCH  22  23
ENDBRANCH  21  22
ENDBRANCH   6  21
TORSDOF 4
ENDMDL
MODEL 7
REMARK VINA RESULT:     -11.2      2.838      5.616
REMARK  Name = 4565
REMARK  4 active torsions:
REMARK  status: ('A' for Active; 'I' for Inactive)
REMARK    1  A    between atoms: N_5  and  C_15
REMARK    2  A    between atoms: C_6  and  O_21
REMARK    3  A    between atoms: O_21  and  C_22
REMARK    4  A    between atoms: C_22  and  C_23
REMARK                            x       y       z     vdW  Elec       q    Type
REMARK                         _______ _______ _______ _____ _____    ______ ____
ROOT
ATOM      1  N   UNL     1      34.274 -23.108 -15.206  0.00  0.00    -0.293 NA
ATOM      2  N   UNL     1      37.935 -23.149 -15.545  0.00  0.00    -0.266 NA
ATOM      3  N   UNL     1      35.432 -24.249 -13.386  0.00  0.00    -0.316 NA
ATOM      4  N   UNL     1      37.851 -24.270 -13.620  0.00  0.00    -0.296 N 
ATOM      5  N   UNL     1      33.099 -24.074 -13.425  0.00  0.00    -0.238 N 
ATOM      6  C   UNL     1      35.440 -22.822 -15.825  0.00  0.00    +0.288 C 
ATOM      7  C   UNL     1      36.610 -23.247 -15.230  0.00  0.00    +0.215 C 
ATOM      8  C   UNL     1      36.583 -23.947 -14.032  0.00  0.00    +0.196 C 
ATOM      9  C   UNL     1      34.341 -23.795 -14.040  0.00  0.00    +0.207 C 
ATOM     10  C   UNL     1      38.639 -23.776 -14.551  0.00  0.00    +0.164 C 
ATOM     11  H   UNL     1      38.316 -22.709 -16.339  0.00  0.00    +0.126 HD
ATOM     12  H   UNL     1      38.113 -24.762 -12.809  0.00  0.00    +0.150 HD
ATOM     13  H   UNL     1      33.178 -24.573 -12.580  0.00  0.00    +0.166 HD
ENDROOT
BRANCH   5  15
ATOM     14 CL   UNL     1      28.280 -25.717 -14.065  0.00  0.00    -0.082 Cl
ATOM     15  C   UNL     1      31.772 -23.778 -13.785  0.00  0.00    +0.059 C 
ATOM     16  C   UNL     1      30.796 -24.778 -13.751  0.00  0.00    +0.027 C 
ATOM     17  C   UNL     1      31.423 -22.483 -14.177  0.00  0.00    +0.015 C 
ATOM     18  C   UNL     1      29.480 -24.483 -14.108  0.00  0.00    +0.059 C 
ATOM     19  C   UNL     1      30.107 -22.189 -14.533  0.00  0.00    +0.002 C 
ATOM     20  C   UNL     1      29.135 -23.189 -14.498  0.00  0.00    +0.011 C 
ENDBRANCH   5  15
BRANCH   6  21
ATOM     21  O   UNL     1      35.408 -22.127 -17.009  0.00  0.00    -0.453 OA
BRANCH  21  22
ATOM     22  C   UNL     1      34.214 -22.200 -17.765  0.00  0.00    +0.208 C 
BRANCH  22  23
ATOM     23  C   UNL     1      34.447 -21.509 -19.107  0.00  0.00    +0.044 C 
ATOM     24  C   UNL     1      33.246 -20.629 -19.481  0.00  0.00    +0.004 C 
ATOM     25  C   UNL     1      35.739 -20.682 -19.074  0.00  0.00    +0.004 C 
ATOM     26  C   UNL     1      33.478 -19.886 -20.794  0.00  0.00    +0.000 C 
ATOM     27  C   UNL     1      35.967 -19.938 -20.388  0.00  0.00    +0.000 C 
ATOM     28  C   UNL     1      34.767 -19.072 -20.760  0.00  0.00    +0.000 C 
ENDBRANCH  22  23
ENDBRANCH  21  22
ENDBRANCH   6  21
TORSDOF 4
ENDMDL
MODEL 8
REMARK VINA RESULT:     -10.9      2.938      6.298
REMARK  Name = 4565
REMARK  4 active torsions:
REMARK  status: ('A' for Active; 'I' for Inactive)
REMARK    1  A    between atoms: N_5  and  C_15
REMARK    2  A    between atoms: C_6  and  O_21
REMARK    3  A    between atoms: O_21  and  C_22
REMARK    4  A    between atoms: C_22  and  C_23
REMARK                            x       y       z     vdW  Elec       q    Type
REMARK                         _______ _______ _______ _____ _____    ______ ____
ROOT
ATOM      1  N   UNL     1      33.603 -22.095 -17.492  0.00  0.00    -0.293 NA
ATOM      2  N   UNL     1      35.208 -20.278 -20.257  0.00  0.00    -0.266 NA
ATOM      3  N   UNL     1      32.035 -21.038 -19.035  0.00  0.00    -0.316 NA
ATOM      4  N   UNL     1      33.107 -19.840 -20.858  0.00  0.00    -0.296 N 
ATOM      5  N   UNL     1      31.287 -22.260 -17.185  0.00  0.00    -0.238 N 
ATOM      6  C   UNL     1      34.664 -21.644 -18.196  0.00  0.00    +0.288 C 
ATOM      7  C   UNL     1      34.421 -20.887 -19.323  0.00  0.00    +0.215 C 
ATOM      8  C   UNL     1      33.121 -20.601 -19.717  0.00  0.00    +0.196 C 
ATOM      9  C   UNL     1      32.370 -21.769 -17.950  0.00  0.00    +0.207 C 
ATOM     10  C   UNL     1      34.376 -19.664 -21.156  0.00  0.00    +0.164 C 
ATOM     11  H   UNL     1      36.193 -20.279 -20.282  0.00  0.00    +0.126 HD
ATOM     12  H   UNL     1      32.321 -19.501 -21.346  0.00  0.00    +0.150 HD
ATOM     13  H   UNL     1      30.404 -22.008 -17.540  0.00  0.00    +0.166 HD
ENDROOT
BRANCH   5  15
ATOM     14 CL   UNL     1      28.527 -25.298 -14.106  0.00  0.00    -0.082 Cl
ATOM     15  C   UNL     1      31.225 -23.038 -16.015  0.00  0.00    +0.059 C 
ATOM     16  C   UNL     1      30.044 -23.705 -15.678  0.00  0.00    +0.027 C 
ATOM     17  C   UNL     1      32.343 -23.148 -15.185  0.00  0.00    +0.015 C 
ATOM     18  C   UNL     1      29.983 -24.477 -14.518  0.00  0.00    +0.059 C 
ATOM     19  C   UNL     1      32.282 -23.921 -14.026  0.00  0.00    +0.002 C 
ATOM     20  C   UNL     1      31.101 -24.586 -13.692  0.00  0.00    +0.011 C 
ENDBRANCH   5  15
BRANCH   6  21
ATOM     21  O   UNL     1      35.929 -21.957 -17.760  0.00  0.00    -0.453 OA
BRANCH  21  22
ATOM     22  C   UNL     1      36.289 -21.517 -16.463  0.00  0.00    +0.208 C 
BRANCH  22  23
ATOM     23  C   UNL     1      36.469 -22.742 -15.569  0.00  0.00    +0.044 C 
ATOM     24  C   UNL     1      37.959 -23.054 -15.370  0.00  0.00    +0.004 C 
ATOM     25  C   UNL     1      35.770 -22.534 -14.219  0.00  0.00    +0.004 C 
ATOM     26  C   UNL     1      38.166 -24.243 -14.436  0.00  0.00    +0.000 C 
ATOM     27  C   UNL     1      35.982 -23.725 -13.286  0.00  0.00    +0.000 C 
ATOM     28  C   UNL     1      37.464 -24.037 -13.098  0.00  0.00    +0.000 C 
ENDBRANCH  22  23
ENDBRANCH  21  22
ENDBRANCH   6  21
TORSDOF 4
ENDMDL
MODEL 9
REMARK VINA RESULT:     -10.4      2.956      5.956
REMARK  Name = 4565
REMARK  4 active torsions:
REMARK  status: ('A' for Active; 'I' for Inactive)
REMARK    1  A    between atoms: N_5  and  C_15
REMARK    2  A    between atoms: C_6  and  O_21
REMARK    3  A    between atoms: O_21  and  C_22
REMARK    4  A    between atoms: C_22  and  C_23
REMARK                            x       y       z     vdW  Elec       q    Type
REMARK                         _______ _______ _______ _____ _____    ______ ____
ROOT
ATOM      1  N   UNL     1      34.210 -23.738 -14.150  0.00  0.00    -0.293 NA
ATOM      2  N   UNL     1      37.734 -23.516 -13.122  0.00  0.00    -0.266 NA
ATOM      3  N   UNL     1      34.568 -23.997 -11.750  0.00  0.00    -0.316 NA
ATOM      4  N   UNL     1      36.900 -23.849 -11.082  0.00  0.00    -0.296 N 
ATOM      5  N   UNL     1      32.423 -24.095 -12.680  0.00  0.00    -0.238 N 
ATOM      6  C   UNL     1      35.533 -23.580 -14.373  0.00  0.00    +0.288 C 
ATOM      7  C   UNL     1      36.383 -23.629 -13.287  0.00  0.00    +0.215 C 
ATOM      8  C   UNL     1      35.888 -23.835 -12.007  0.00  0.00    +0.196 C 
ATOM      9  C   UNL     1      33.814 -23.934 -12.869  0.00  0.00    +0.207 C 
ATOM     10  C   UNL     1      37.995 -23.654 -11.784  0.00  0.00    +0.164 C 
ATOM     11  H   UNL     1      38.399 -23.363 -13.832  0.00  0.00    +0.126 HD
ATOM     12  H   UNL     1      36.823 -23.976 -10.108  0.00  0.00    +0.150 HD
ATOM     13  H   UNL     1      32.164 -24.235 -11.740  0.00  0.00    +0.166 HD
ENDROOT
BRANCH   5  15
ATOM     14 CL   UNL     1      30.145 -22.020 -16.783  0.00  0.00    -0.082 Cl
ATOM     15  C   UNL     1      31.335 -24.094 -13.572  0.00  0.00    +0.059 C 
ATOM     16  C   UNL     1      31.283 -23.165 -14.614  0.00  0.00    +0.027 C 
ATOM     17  C   UNL     1      30.302 -25.021 -13.419  0.00  0.00    +0.015 C 
ATOM     18  C   UNL     1      30.205 -23.165 -15.498  0.00  0.00    +0.059 C 
ATOM     19  C   UNL     1      29.224 -25.022 -14.304  0.00  0.00    +0.002 C 
ATOM     20  C   UNL     1      29.175 -24.093 -15.344  0.00  0.00    +0.011 C 
ENDBRANCH   5  15
BRANCH   6  21
ATOM     21  O   UNL     1      35.969 -23.379 -15.660  0.00  0.00    -0.453 OA
BRANCH  21  22
ATOM     22  C   UNL     1      36.377 -22.068 -16.004  0.00  0.00    +0.208 C 
BRANCH  22  23
ATOM     23  C   UNL     1      35.400 -21.513 -17.038  0.00  0.00    +0.044 C 
ATOM     24  C   UNL     1      36.111 -21.263 -18.376  0.00  0.00    +0.004 C 
ATOM     25  C   UNL     1      34.208 -22.461 -17.222  0.00  0.00    +0.004 C 
ATOM     26  C   UNL     1      35.143 -20.757 -19.443  0.00  0.00    +0.000 C 
ATOM     27  C   UNL     1      33.244 -21.953 -18.292  0.00  0.00    +0.000 C 
ATOM     28  C   UNL     1      33.956 -21.698 -19.617  0.00  0.00    +0.000 C 
ENDBRANCH  22  23
ENDBRANCH  21  22
ENDBRANCH   6  21
TORSDOF 4
ENDMDL
