MODEL 1
REMARK VINA RESULT:     -10.7      0.000      0.000
REMARK  Name = 25052023
REMARK  8 active torsions:
REMARK  status: ('A' for Active; 'I' for Inactive)
REMARK    1  A    between atoms: N_1  and  C_31
REMARK    2  A    between atoms: C_2  and  C_7
REMARK    3  A    between atoms: C_4  and  C_19
REMARK    4  A    between atoms: C_8  and  C_16
REMARK    5  A    between atoms: N_18  and  C_21
REMARK    6  A    between atoms: C_22  and  S_27
REMARK    7  A    between atoms: C_31  and  C_32
REMARK    8  A    between atoms: C_32  and  O_33
REMARK                            x       y       z     vdW  Elec       q    Type
REMARK                         _______ _______ _______ _____ _____    ______ ____
ROOT
ATOM      1  N   UNL     1      33.275  -8.214 -23.203  0.00  0.00    -0.283 N 
ATOM      2  C   UNL     1      32.004  -8.065 -22.712  0.00  0.00    +0.048 C 
ATOM      3  C   UNL     1      31.504  -9.320 -22.446  0.00  0.00    -0.003 C 
ATOM      4  C   UNL     1      32.510 -10.258 -22.789  0.00  0.00    +0.066 C 
ATOM      5  C   UNL     1      33.594  -9.547 -23.253  0.00  0.00    +0.070 C 
ATOM      6  C   UNL     1      30.166  -9.638 -21.904  0.00  0.00    +0.033 C 
ENDROOT
BRANCH   2   7
ATOM      7  C   UNL     1      31.379  -6.774 -22.539  0.00  0.00    +0.017 C 
ATOM      8  C   UNL     1      31.472  -6.085 -21.330  0.00  0.00    +0.073 C 
ATOM      9  C   UNL     1      30.674  -6.217 -23.606  0.00  0.00    +0.001 C 
ATOM     10  C   UNL     1      30.860  -4.841 -21.187  0.00  0.00    +0.004 C 
ATOM     11  C   UNL     1      30.061  -4.972 -23.463  0.00  0.00    +0.000 C 
ATOM     12  C   UNL     1      30.154  -4.284 -22.254  0.00  0.00    -0.000 C 
BRANCH   8  16
ATOM     13  F   UNL     1      31.639  -7.769 -19.639  0.00  0.00    -0.166 F 
ATOM     14  F   UNL     1      33.498  -7.014 -20.460  0.00  0.00    -0.166 F 
ATOM     15  F   UNL     1      32.315  -5.766 -19.129  0.00  0.00    -0.166 F 
ATOM     16  C   UNL     1      32.217  -6.650 -20.163  0.00  0.00    +0.419 C 
ENDBRANCH   8  16
ENDBRANCH   2   7
BRANCH   4  19
ATOM     17  O   UNL     1      31.381 -12.291 -22.859  0.00  0.00    -0.270 OA
ATOM     18  N   UNL     1      33.686 -12.342 -22.429  0.00  0.00    -0.280 N 
ATOM     19  C   UNL     1      32.465 -11.689 -22.691  0.00  0.00    +0.250 C 
ATOM     20  H   UNL     1      34.466 -11.751 -22.318  0.00  0.00    +0.155 HD
BRANCH  18  21
ATOM     21  C   UNL     1      33.952 -13.729 -22.304  0.00  0.00    +0.051 C 
ATOM     22  C   UNL     1      34.474 -16.457 -22.056  0.00  0.00    +0.106 C 
ATOM     23  C   UNL     1      34.192 -14.498 -23.442  0.00  0.00    +0.016 C 
ATOM     24  C   UNL     1      33.972 -14.323 -21.041  0.00  0.00    +0.016 C 
ATOM     25  C   UNL     1      34.454 -15.863 -23.317  0.00  0.00    +0.020 C 
ATOM     26  C   UNL     1      34.234 -15.688 -20.918  0.00  0.00    +0.020 C 
BRANCH  22  27
ATOM     27  S   UNL     1      34.802 -18.166 -21.901  0.00  0.00    +0.010 S 
ATOM     28  O   UNL     1      34.257 -18.612 -20.627  0.00  0.00    -0.169 OA
ATOM     29  O   UNL     1      34.408 -18.836 -23.131  0.00  0.00    -0.169 OA
ATOM     30  C   UNL     1      36.576 -18.267 -21.802  0.00  0.00    +0.182 C 
ENDBRANCH  22  27
ENDBRANCH  18  21
ENDBRANCH   4  19
BRANCH   1  31
ATOM     31  C   UNL     1      34.165  -7.150 -23.613  0.00  0.00    +0.127 C 
BRANCH  31  32
ATOM     32  C   UNL     1      33.921  -6.712 -25.052  0.00  0.00    +0.159 C 
BRANCH  32  33
ATOM     33  O   UNL     1      33.753  -5.301 -25.104  0.00  0.00    -0.380 OA
ATOM     34  H   UNL     1      34.312  -4.933 -25.805  0.00  0.00    +0.211 HD
ENDBRANCH  32  33
ENDBRANCH  31  32
ENDBRANCH   1  31
TORSDOF 8
ENDMDL
MODEL 2
REMARK VINA RESULT:     -10.5      1.700      2.306
REMARK  Name = 25052023
REMARK  8 active torsions:
REMARK  status: ('A' for Active; 'I' for Inactive)
REMARK    1  A    between atoms: N_1  and  C_31
REMARK    2  A    between atoms: C_2  and  C_7
REMARK    3  A    between atoms: C_4  and  C_19
REMARK    4  A    between atoms: C_8  and  C_16
REMARK    5  A    between atoms: N_18  and  C_21
REMARK    6  A    between atoms: C_22  and  S_27
REMARK    7  A    between atoms: C_31  and  C_32
REMARK    8  A    between atoms: C_32  and  O_33
REMARK                            x       y       z     vdW  Elec       q    Type
REMARK                         _______ _______ _______ _____ _____    ______ ____
ROOT
ATOM      1  N   UNL     1      33.524  -8.093 -23.161  0.00  0.00    -0.283 N 
ATOM      2  C   UNL     1      32.362  -8.153 -22.436  0.00  0.00    +0.048 C 
ATOM      3  C   UNL     1      31.992  -9.477 -22.340  0.00  0.00    -0.003 C 
ATOM      4  C   UNL     1      32.966 -10.239 -23.033  0.00  0.00    +0.066 C 
ATOM      5  C   UNL     1      33.901  -9.358 -23.529  0.00  0.00    +0.070 C 
ATOM      6  C   UNL     1      30.800 -10.010 -21.647  0.00  0.00    +0.033 C 
ENDROOT
BRANCH   2   7
ATOM      7  C   UNL     1      31.710  -6.979 -21.903  0.00  0.00    +0.017 C 
ATOM      8  C   UNL     1      30.688  -6.341 -22.605  0.00  0.00    +0.073 C 
ATOM      9  C   UNL     1      32.120  -6.485 -20.664  0.00  0.00    +0.001 C 
ATOM     10  C   UNL     1      30.076  -5.208 -22.070  0.00  0.00    +0.004 C 
ATOM     11  C   UNL     1      31.507  -5.352 -20.128  0.00  0.00    +0.000 C 
ATOM     12  C   UNL     1      30.485  -4.714 -20.831  0.00  0.00    -0.000 C 
BRANCH   8  16
ATOM     13  F   UNL     1      29.728  -5.857 -24.742  0.00  0.00    -0.166 F 
ATOM     14  F   UNL     1      31.209  -7.439 -24.665  0.00  0.00    -0.166 F 
ATOM     15  F   UNL     1      29.229  -7.766 -23.827  0.00  0.00    -0.166 F 
ATOM     16  C   UNL     1      30.225  -6.840 -23.936  0.00  0.00    +0.419 C 
ENDBRANCH   8  16
ENDBRANCH   2   7
BRANCH   4  19
ATOM     17  O   UNL     1      32.460 -12.185 -24.203  0.00  0.00    -0.270 OA
ATOM     18  N   UNL     1      33.743 -12.393 -22.251  0.00  0.00    -0.280 N 
ATOM     19  C   UNL     1      33.020 -11.661 -23.215  0.00  0.00    +0.250 C 
ATOM     20  H   UNL     1      34.135 -11.860 -21.522  0.00  0.00    +0.155 HD
BRANCH  18  21
ATOM     21  C   UNL     1      33.986 -13.788 -22.182  0.00  0.00    +0.051 C 
ATOM     22  C   UNL     1      34.465 -16.532 -22.045  0.00  0.00    +0.106 C 
ATOM     23  C   UNL     1      33.956 -14.440 -20.950  0.00  0.00    +0.016 C 
ATOM     24  C   UNL     1      34.255 -14.508 -23.347  0.00  0.00    +0.016 C 
ATOM     25  C   UNL     1      34.195 -15.813 -20.882  0.00  0.00    +0.020 C 
ATOM     26  C   UNL     1      34.494 -15.880 -23.278  0.00  0.00    +0.020 C 
BRANCH  22  27
ATOM     27  S   UNL     1      34.763 -18.251 -21.960  0.00  0.00    +0.010 S 
ATOM     28  O   UNL     1      34.243 -18.733 -20.689  0.00  0.00    -0.169 OA
ATOM     29  O   UNL     1      34.323 -18.869 -23.202  0.00  0.00    -0.169 OA
ATOM     30  C   UNL     1      36.536 -18.388 -21.913  0.00  0.00    +0.182 C 
ENDBRANCH  22  27
ENDBRANCH  18  21
ENDBRANCH   4  19
BRANCH   1  31
ATOM     31  C   UNL     1      34.259  -6.894 -23.501  0.00  0.00    +0.127 C 
BRANCH  31  32
ATOM     32  C   UNL     1      34.177  -6.565 -24.986  0.00  0.00    +0.159 C 
BRANCH  32  33
ATOM     33  O   UNL     1      33.526  -5.314 -25.166  0.00  0.00    -0.380 OA
ATOM     34  H   UNL     1      34.062  -4.609 -24.771  0.00  0.00    +0.211 HD
ENDBRANCH  32  33
ENDBRANCH  31  32
ENDBRANCH   1  31
TORSDOF 8
ENDMDL
MODEL 3
REMARK VINA RESULT:     -10.1      1.991      2.962
REMARK  Name = 25052023
REMARK  8 active torsions:
REMARK  status: ('A' for Active; 'I' for Inactive)
REMARK    1  A    between atoms: N_1  and  C_31
REMARK    2  A    between atoms: C_2  and  C_7
REMARK    3  A    between atoms: C_4  and  C_19
REMARK    4  A    between atoms: C_8  and  C_16
REMARK    5  A    between atoms: N_18  and  C_21
REMARK    6  A    between atoms: C_22  and  S_27
REMARK    7  A    between atoms: C_31  and  C_32
REMARK    8  A    between atoms: C_32  and  O_33
REMARK                            x       y       z     vdW  Elec       q    Type
REMARK                         _______ _______ _______ _____ _____    ______ ____
ROOT
ATOM      1  N   UNL     1      31.413  -8.446 -21.292  0.00  0.00    -0.283 N 
ATOM      2  C   UNL     1      31.711  -8.557 -22.626  0.00  0.00    +0.048 C 
ATOM      3  C   UNL     1      32.020  -9.874 -22.882  0.00  0.00    -0.003 C 
ATOM      4  C   UNL     1      31.904 -10.581 -21.658  0.00  0.00    +0.066 C 
ATOM      5  C   UNL     1      31.527  -9.673 -20.693  0.00  0.00    +0.070 C 
ATOM      6  C   UNL     1      32.404 -10.451 -24.188  0.00  0.00    +0.033 C 
ENDROOT
BRANCH   2   7
ATOM      7  C   UNL     1      31.679  -7.430 -23.531  0.00  0.00    +0.017 C 
ATOM      8  C   UNL     1      32.805  -6.631 -23.726  0.00  0.00    +0.073 C 
ATOM      9  C   UNL     1      30.496  -7.148 -24.215  0.00  0.00    +0.001 C 
ATOM     10  C   UNL     1      32.748  -5.549 -24.604  0.00  0.00    +0.004 C 
ATOM     11  C   UNL     1      30.440  -6.066 -25.093  0.00  0.00    +0.000 C 
ATOM     12  C   UNL     1      31.566  -5.267 -25.287  0.00  0.00    -0.000 C 
BRANCH   8  16
ATOM     13  F   UNL     1      33.947  -6.994 -21.655  0.00  0.00    -0.166 F 
ATOM     14  F   UNL     1      34.690  -8.064 -23.388  0.00  0.00    -0.166 F 
ATOM     15  F   UNL     1      35.016  -5.921 -23.215  0.00  0.00    -0.166 F 
ATOM     16  C   UNL     1      34.089  -6.900 -23.009  0.00  0.00    +0.419 C 
ENDBRANCH   8  16
ENDBRANCH   2   7
BRANCH   4  19
ATOM     17  O   UNL     1      31.299 -12.627 -20.733  0.00  0.00    -0.270 OA
ATOM     18  N   UNL     1      33.277 -12.546 -21.991  0.00  0.00    -0.280 N 
ATOM     19  C   UNL     1      32.124 -11.977 -21.412  0.00  0.00    +0.250 C 
ATOM     20  H   UNL     1      33.844 -11.924 -22.502  0.00  0.00    +0.155 HD
BRANCH  18  21
ATOM     21  C   UNL     1      33.737 -13.885 -21.941  0.00  0.00    +0.051 C 
ATOM     22  C   UNL     1      34.643 -16.522 -21.843  0.00  0.00    +0.106 C 
ATOM     23  C   UNL     1      33.840 -14.542 -20.715  0.00  0.00    +0.016 C 
ATOM     24  C   UNL     1      34.088 -14.546 -23.119  0.00  0.00    +0.016 C 
ATOM     25  C   UNL     1      34.293 -15.860 -20.666  0.00  0.00    +0.020 C 
ATOM     26  C   UNL     1      34.541 -15.865 -23.069  0.00  0.00    +0.020 C 
BRANCH  22  27
ATOM     27  S   UNL     1      35.210 -18.172 -21.782  0.00  0.00    +0.010 S 
ATOM     28  O   UNL     1      36.625 -18.173 -22.124  0.00  0.00    -0.169 OA
ATOM     29  O   UNL     1      34.767 -18.778 -20.534  0.00  0.00    -0.169 OA
ATOM     30  C   UNL     1      34.329 -18.989 -23.094  0.00  0.00    +0.182 C 
ENDBRANCH  22  27
ENDBRANCH  18  21
ENDBRANCH   4  19
BRANCH   1  31
ATOM     31  C   UNL     1      31.035  -7.235 -20.598  0.00  0.00    +0.127 C 
BRANCH  31  32
ATOM     32  C   UNL     1      31.603  -7.175 -19.184  0.00  0.00    +0.159 C 
BRANCH  32  33
ATOM     33  O   UNL     1      32.682  -6.250 -19.138  0.00  0.00    -0.380 OA
ATOM     34  H   UNL     1      32.558  -5.574 -19.822  0.00  0.00    +0.211 HD
ENDBRANCH  32  33
ENDBRANCH  31  32
ENDBRANCH   1  31
TORSDOF 8
ENDMDL
MODEL 4
REMARK VINA RESULT:      -9.8      2.275      3.221
REMARK  Name = 25052023
REMARK  8 active torsions:
REMARK  status: ('A' for Active; 'I' for Inactive)
REMARK    1  A    between atoms: N_1  and  C_31
REMARK    2  A    between atoms: C_2  and  C_7
REMARK    3  A    between atoms: C_4  and  C_19
REMARK    4  A    between atoms: C_8  and  C_16
REMARK    5  A    between atoms: N_18  and  C_21
REMARK    6  A    between atoms: C_22  and  S_27
REMARK    7  A    between atoms: C_31  and  C_32
REMARK    8  A    between atoms: C_32  and  O_33
REMARK                            x       y       z     vdW  Elec       q    Type
REMARK                         _______ _______ _______ _____ _____    ______ ____
ROOT
ATOM      1  N   UNL     1      31.649  -8.318 -21.585  0.00  0.00    -0.283 N 
ATOM      2  C   UNL     1      32.493  -8.317 -22.666  0.00  0.00    +0.048 C 
ATOM      3  C   UNL     1      32.838  -9.623 -22.933  0.00  0.00    -0.003 C 
ATOM      4  C   UNL     1      32.180 -10.438 -21.978  0.00  0.00    +0.066 C 
ATOM      5  C   UNL     1      31.451  -9.605 -21.158  0.00  0.00    +0.070 C 
ATOM      6  C   UNL     1      33.731 -10.094 -24.013  0.00  0.00    +0.033 C 
ENDROOT
BRANCH   2   7
ATOM      7  C   UNL     1      32.894  -7.105 -23.344  0.00  0.00    +0.017 C 
ATOM      8  C   UNL     1      32.108  -6.550 -24.353  0.00  0.00    +0.073 C 
ATOM      9  C   UNL     1      34.091  -6.490 -22.973  0.00  0.00    +0.001 C 
ATOM     10  C   UNL     1      32.517  -5.381 -24.993  0.00  0.00    +0.004 C 
ATOM     11  C   UNL     1      34.500  -5.320 -23.614  0.00  0.00    +0.000 C 
ATOM     12  C   UNL     1      33.714  -4.766 -24.623  0.00  0.00    -0.000 C 
BRANCH   8  16
ATOM     13  F   UNL     1      30.487  -6.917 -26.074  0.00  0.00    -0.166 F 
ATOM     14  F   UNL     1      30.824  -8.543 -24.679  0.00  0.00    -0.166 F 
ATOM     15  F   UNL     1      29.761  -6.760 -24.031  0.00  0.00    -0.166 F 
ATOM     16  C   UNL     1      30.821  -7.182 -24.778  0.00  0.00    +0.419 C 
ENDBRANCH   8  16
ENDBRANCH   2   7
BRANCH   4  19
ATOM     17  O   UNL     1      31.179 -12.500 -21.582  0.00  0.00    -0.270 OA
ATOM     18  N   UNL     1      33.478 -12.480 -22.048  0.00  0.00    -0.280 N 
ATOM     19  C   UNL     1      32.225 -11.866 -21.844  0.00  0.00    +0.250 C 
ATOM     20  H   UNL     1      34.221 -11.866 -22.248  0.00  0.00    +0.155 HD
BRANCH  18  21
ATOM     21  C   UNL     1      33.819 -13.854 -22.006  0.00  0.00    +0.051 C 
ATOM     22  C   UNL     1      34.492 -16.560 -21.922  0.00  0.00    +0.106 C 
ATOM     23  C   UNL     1      34.082 -14.544 -23.189  0.00  0.00    +0.016 C 
ATOM     24  C   UNL     1      33.894 -14.517 -20.780  0.00  0.00    +0.016 C 
ATOM     25  C   UNL     1      34.418 -15.897 -23.147  0.00  0.00    +0.020 C 
ATOM     26  C   UNL     1      34.230 -15.870 -20.739  0.00  0.00    +0.020 C 
BRANCH  22  27
ATOM     27  S   UNL     1      34.914 -18.254 -21.870  0.00  0.00    +0.010 S 
ATOM     28  O   UNL     1      34.465 -18.788 -20.592  0.00  0.00    -0.169 OA
ATOM     29  O   UNL     1      34.485 -18.886 -23.109  0.00  0.00    -0.169 OA
ATOM     30  C   UNL     1      36.693 -18.265 -21.872  0.00  0.00    +0.182 C 
ENDBRANCH  22  27
ENDBRANCH  18  21
ENDBRANCH   4  19
BRANCH   1  31
ATOM     31  C   UNL     1      31.048  -7.156 -20.968  0.00  0.00    +0.127 C 
BRANCH  31  32
ATOM     32  C   UNL     1      31.499  -6.966 -19.524  0.00  0.00    +0.159 C 
BRANCH  32  33
ATOM     33  O   UNL     1      32.871  -6.593 -19.494  0.00  0.00    -0.380 OA
ATOM     34  H   UNL     1      32.943  -5.627 -19.455  0.00  0.00    +0.211 HD
ENDBRANCH  32  33
ENDBRANCH  31  32
ENDBRANCH   1  31
TORSDOF 8
ENDMDL
MODEL 5
REMARK VINA RESULT:      -9.6     10.063     15.960
REMARK  Name = 25052023
REMARK  8 active torsions:
REMARK  status: ('A' for Active; 'I' for Inactive)
REMARK    1  A    between atoms: N_1  and  C_31
REMARK    2  A    between atoms: C_2  and  C_7
REMARK    3  A    between atoms: C_4  and  C_19
REMARK    4  A    between atoms: C_8  and  C_16
REMARK    5  A    between atoms: N_18  and  C_21
REMARK    6  A    between atoms: C_22  and  S_27
REMARK    7  A    between atoms: C_31  and  C_32
REMARK    8  A    between atoms: C_32  and  O_33
REMARK                            x       y       z     vdW  Elec       q    Type
REMARK                         _______ _______ _______ _____ _____    ______ ____
ROOT
ATOM      1  N   UNL     1      33.377 -23.864 -14.378  0.00  0.00    -0.283 N 
ATOM      2  C   UNL     1      34.700 -23.507 -14.361  0.00  0.00    +0.048 C 
ATOM      3  C   UNL     1      35.010 -22.977 -15.594  0.00  0.00    -0.003 C 
ATOM      4  C   UNL     1      33.831 -23.017 -16.380  0.00  0.00    +0.066 C 
ATOM      5  C   UNL     1      32.837 -23.569 -15.603  0.00  0.00    +0.070 C 
ATOM      6  C   UNL     1      36.327 -22.460 -16.024  0.00  0.00    +0.033 C 
ENDROOT
BRANCH   2   7
ATOM      7  C   UNL     1      35.546 -23.692 -13.204  0.00  0.00    +0.017 C 
ATOM      8  C   UNL     1      36.401 -24.788 -13.104  0.00  0.00    +0.073 C 
ATOM      9  C   UNL     1      35.496 -22.750 -12.175  0.00  0.00    +0.001 C 
ATOM     10  C   UNL     1      37.207 -24.944 -11.977  0.00  0.00    +0.004 C 
ATOM     11  C   UNL     1      36.302 -22.906 -11.048  0.00  0.00    +0.000 C 
ATOM     12  C   UNL     1      37.157 -24.003 -10.949  0.00  0.00    -0.000 C 
BRANCH   8  16
ATOM     13  F   UNL     1      35.271 -26.112 -14.746  0.00  0.00    -0.166 F 
ATOM     14  F   UNL     1      37.281 -25.454 -15.228  0.00  0.00    -0.166 F 
ATOM     15  F   UNL     1      36.977 -27.007 -13.736  0.00  0.00    -0.166 F 
ATOM     16  C   UNL     1      36.480 -25.819 -14.185  0.00  0.00    +0.419 C 
ENDBRANCH   8  16
ENDBRANCH   2   7
BRANCH   4  19
ATOM     17  O   UNL     1      32.998 -23.286 -18.535  0.00  0.00    -0.270 OA
ATOM     18  N   UNL     1      34.208 -21.330 -18.074  0.00  0.00    -0.280 N 
ATOM     19  C   UNL     1      33.648 -22.578 -17.734  0.00  0.00    +0.250 C 
ATOM     20  H   UNL     1      34.696 -20.875 -17.350  0.00  0.00    +0.155 HD
BRANCH  18  21
ATOM     21  C   UNL     1      34.170 -20.638 -19.310  0.00  0.00    +0.051 C 
ATOM     22  C   UNL     1      34.095 -19.275 -21.742  0.00  0.00    +0.106 C 
ATOM     23  C   UNL     1      32.944 -20.335 -19.902  0.00  0.00    +0.016 C 
ATOM     24  C   UNL     1      35.359 -20.259 -19.934  0.00  0.00    +0.016 C 
ATOM     25  C   UNL     1      32.907 -19.654 -21.118  0.00  0.00    +0.020 C 
ATOM     26  C   UNL     1      35.321 -19.578 -21.150  0.00  0.00    +0.020 C 
BRANCH  22  27
ATOM     27  S   UNL     1      34.048 -18.421 -23.265  0.00  0.00    +0.010 S 
ATOM     28  O   UNL     1      35.128 -18.931 -24.098  0.00  0.00    -0.169 OA
ATOM     29  O   UNL     1      32.683 -18.427 -23.768  0.00  0.00    -0.169 OA
ATOM     30  C   UNL     1      34.435 -16.738 -22.839  0.00  0.00    +0.182 C 
ENDBRANCH  22  27
ENDBRANCH  18  21
ENDBRANCH   4  19
BRANCH   1  31
ATOM     31  C   UNL     1      32.638 -24.462 -13.287  0.00  0.00    +0.127 C 
BRANCH  31  32
ATOM     32  C   UNL     1      31.152 -24.597 -13.597  0.00  0.00    +0.159 C 
BRANCH  32  33
ATOM     33  O   UNL     1      30.417 -24.717 -12.386  0.00  0.00    -0.380 OA
ATOM     34  H   UNL     1      30.368 -25.651 -12.128  0.00  0.00    +0.211 HD
ENDBRANCH  32  33
ENDBRANCH  31  32
ENDBRANCH   1  31
TORSDOF 8
ENDMDL
MODEL 6
REMARK VINA RESULT:      -7.8      4.838     10.529
REMARK  Name = 25052023
REMARK  8 active torsions:
REMARK  status: ('A' for Active; 'I' for Inactive)
REMARK    1  A    between atoms: N_1  and  C_31
REMARK    2  A    between atoms: C_2  and  C_7
REMARK    3  A    between atoms: C_4  and  C_19
REMARK    4  A    between atoms: C_8  and  C_16
REMARK    5  A    between atoms: N_18  and  C_21
REMARK    6  A    between atoms: C_22  and  S_27
REMARK    7  A    between atoms: C_31  and  C_32
REMARK    8  A    between atoms: C_32  and  O_33
REMARK                            x       y       z     vdW  Elec       q    Type
REMARK                         _______ _______ _______ _____ _____    ______ ____
ROOT
ATOM      1  N   UNL     1      33.799 -17.459 -23.490  0.00  0.00    -0.283 N 
ATOM      2  C   UNL     1      33.960 -17.420 -22.129  0.00  0.00    +0.048 C 
ATOM      3  C   UNL     1      33.941 -16.099 -21.739  0.00  0.00    -0.003 C 
ATOM      4  C   UNL     1      33.762 -15.316 -22.907  0.00  0.00    +0.066 C 
ATOM      5  C   UNL     1      33.676 -16.182 -23.974  0.00  0.00    +0.070 C 
ATOM      6  C   UNL     1      34.081 -15.586 -20.360  0.00  0.00    +0.033 C 
ENDROOT
BRANCH   2   7
ATOM      7  C   UNL     1      34.116 -18.611 -21.325  0.00  0.00    +0.017 C 
ATOM      8  C   UNL     1      35.379 -19.065 -20.947  0.00  0.00    +0.073 C 
ATOM      9  C   UNL     1      32.976 -19.309 -20.927  0.00  0.00    +0.001 C 
ATOM     10  C   UNL     1      35.503 -20.217 -20.173  0.00  0.00    +0.004 C 
ATOM     11  C   UNL     1      33.100 -20.462 -20.151  0.00  0.00    +0.000 C 
ATOM     12  C   UNL     1      34.363 -20.916 -19.775  0.00  0.00    -0.000 C 
BRANCH   8  16
ATOM     13  F   UNL     1      37.444 -19.088 -22.155  0.00  0.00    -0.166 F 
ATOM     14  F   UNL     1      36.384 -17.199 -22.057  0.00  0.00    -0.166 F 
ATOM     15  F   UNL     1      37.386 -17.973 -20.289  0.00  0.00    -0.166 F 
ATOM     16  C   UNL     1      36.624 -18.345 -21.358  0.00  0.00    +0.419 C 
ENDBRANCH   8  16
ENDBRANCH   2   7
BRANCH   4  19
ATOM     17  O   UNL     1      34.516 -13.265 -23.704  0.00  0.00    -0.270 OA
ATOM     18  N   UNL     1      32.605 -13.266 -22.345  0.00  0.00    -0.280 N 
ATOM     19  C   UNL     1      33.676 -13.888 -23.017  0.00  0.00    +0.250 C 
ATOM     20  H   UNL     1      32.015 -13.871 -21.839  0.00  0.00    +0.155 HD
BRANCH  18  21
ATOM     21  C   UNL     1      32.256 -11.894 -22.292  0.00  0.00    +0.051 C 
ATOM     22  C   UNL     1      31.568  -9.192 -22.188  0.00  0.00    +0.106 C 
ATOM     23  C   UNL     1      32.692 -11.024 -23.291  0.00  0.00    +0.016 C 
ATOM     24  C   UNL     1      31.475 -11.413 -21.240  0.00  0.00    +0.016 C 
ATOM     25  C   UNL     1      32.348  -9.674 -23.239  0.00  0.00    +0.020 C 
ATOM     26  C   UNL     1      31.132 -10.062 -21.188  0.00  0.00    +0.020 C 
BRANCH  22  27
ATOM     27  S   UNL     1      31.137  -7.501 -22.123  0.00  0.00    +0.010 S 
ATOM     28  O   UNL     1      30.005  -7.293 -23.015  0.00  0.00    -0.169 OA
ATOM     29  O   UNL     1      31.044  -7.091 -20.730  0.00  0.00    -0.169 OA
ATOM     30  C   UNL     1      32.542  -6.661 -22.818  0.00  0.00    +0.182 C 
ENDBRANCH  22  27
ENDBRANCH  18  21
ENDBRANCH   4  19
BRANCH   1  31
ATOM     31  C   UNL     1      33.762 -18.648 -24.314  0.00  0.00    +0.127 C 
BRANCH  31  32
ATOM     32  C   UNL     1      32.340 -19.048 -24.692  0.00  0.00    +0.159 C 
BRANCH  32  33
ATOM     33  O   UNL     1      31.720 -17.992 -25.413  0.00  0.00    -0.380 OA
ATOM     34  H   UNL     1      32.384 -17.326 -25.650  0.00  0.00    +0.211 HD
ENDBRANCH  32  33
ENDBRANCH  31  32
ENDBRANCH   1  31
TORSDOF 8
ENDMDL
MODEL 7
REMARK VINA RESULT:      -7.7      9.450     15.635
REMARK  Name = 25052023
REMARK  8 active torsions:
REMARK  status: ('A' for Active; 'I' for Inactive)
REMARK    1  A    between atoms: N_1  and  C_31
REMARK    2  A    between atoms: C_2  and  C_7
REMARK    3  A    between atoms: C_4  and  C_19
REMARK    4  A    between atoms: C_8  and  C_16
REMARK    5  A    between atoms: N_18  and  C_21
REMARK    6  A    between atoms: C_22  and  S_27
REMARK    7  A    between atoms: C_31  and  C_32
REMARK    8  A    between atoms: C_32  and  O_33
REMARK                            x       y       z     vdW  Elec       q    Type
REMARK                         _______ _______ _______ _____ _____    ______ ____
ROOT
ATOM      1  N   UNL     1      34.268 -23.548 -14.811  0.00  0.00    -0.283 N 
ATOM      2  C   UNL     1      35.621 -23.699 -14.650  0.00  0.00    +0.048 C 
ATOM      3  C   UNL     1      36.249 -22.905 -15.585  0.00  0.00    -0.003 C 
ATOM      4  C   UNL     1      35.236 -22.254 -16.334  0.00  0.00    +0.066 C 
ATOM      5  C   UNL     1      34.022 -22.670 -15.834  0.00  0.00    +0.070 C 
ATOM      6  C   UNL     1      37.707 -22.755 -15.776  0.00  0.00    +0.033 C 
ENDROOT
BRANCH   2   7
ATOM      7  C   UNL     1      36.199 -24.563 -13.646  0.00  0.00    +0.017 C 
ATOM      8  C   UNL     1      36.472 -24.094 -12.362  0.00  0.00    +0.073 C 
ATOM      9  C   UNL     1      36.482 -25.888 -13.980  0.00  0.00    +0.001 C 
ATOM     10  C   UNL     1      37.030 -24.947 -11.412  0.00  0.00    +0.004 C 
ATOM     11  C   UNL     1      37.040 -26.742 -13.028  0.00  0.00    +0.000 C 
ATOM     12  C   UNL     1      37.315 -26.271 -11.745  0.00  0.00    -0.000 C 
BRANCH   8  16
ATOM     13  F   UNL     1      36.895 -21.761 -12.684  0.00  0.00    -0.166 F 
ATOM     14  F   UNL     1      34.876 -22.326 -12.130  0.00  0.00    -0.166 F 
ATOM     15  F   UNL     1      36.476 -22.433 -10.659  0.00  0.00    -0.166 F 
ATOM     16  C   UNL     1      36.184 -22.680 -11.969  0.00  0.00    +0.419 C 
ENDBRANCH   8  16
ENDBRANCH   2   7
BRANCH   4  19
ATOM     17  O   UNL     1      36.369 -20.551 -17.442  0.00  0.00    -0.270 OA
ATOM     18  N   UNL     1      34.406 -21.370 -18.429  0.00  0.00    -0.280 N 
ATOM     19  C   UNL     1      35.388 -21.326 -17.419  0.00  0.00    +0.250 C 
ATOM     20  H   UNL     1      33.686 -22.027 -18.289  0.00  0.00    +0.155 HD
BRANCH  18  21
ATOM     21  C   UNL     1      34.306 -20.603 -19.616  0.00  0.00    +0.051 C 
ATOM     22  C   UNL     1      34.110 -19.092 -21.953  0.00  0.00    +0.106 C 
ATOM     23  C   UNL     1      35.462 -20.165 -20.262  0.00  0.00    +0.016 C 
ATOM     24  C   UNL     1      33.052 -20.286 -20.138  0.00  0.00    +0.016 C 
ATOM     25  C   UNL     1      35.364 -19.410 -21.430  0.00  0.00    +0.020 C 
ATOM     26  C   UNL     1      32.954 -19.530 -21.307  0.00  0.00    +0.020 C 
BRANCH  22  27
ATOM     27  S   UNL     1      33.988 -18.147 -23.416  0.00  0.00    +0.010 S 
ATOM     28  O   UNL     1      35.028 -18.599 -24.329  0.00  0.00    -0.169 OA
ATOM     29  O   UNL     1      32.599 -18.131 -23.853  0.00  0.00    -0.169 OA
ATOM     30  C   UNL     1      34.389 -16.491 -22.906  0.00  0.00    +0.182 C 
ENDBRANCH  22  27
ENDBRANCH  18  21
ENDBRANCH   4  19
BRANCH   1  31
ATOM     31  C   UNL     1      33.237 -24.204 -14.037  0.00  0.00    +0.127 C 
BRANCH  31  32
ATOM     32  C   UNL     1      31.930 -23.419 -14.028  0.00  0.00    +0.159 C 
BRANCH  32  33
ATOM     33  O   UNL     1      31.929 -22.500 -12.943  0.00  0.00    -0.380 OA
ATOM     34  H   UNL     1      32.125 -21.609 -13.273  0.00  0.00    +0.211 HD
ENDBRANCH  32  33
ENDBRANCH  31  32
ENDBRANCH   1  31
TORSDOF 8
ENDMDL
