MODEL 1
REMARK VINA RESULT:     -11.4      0.000      0.000
REMARK  Name = 9939865
REMARK  5 active torsions:
REMARK  status: ('A' for Active; 'I' for Inactive)
REMARK    1  A    between atoms: C_1  and  C_9
REMARK    2  A    between atoms: C_1  and  C_19
REMARK    3  A    between atoms: C_1  and  N_26
REMARK    4  A    between atoms: N_3  and  C_12
REMARK    5  A    between atoms: C_27  and  C_30
REMARK                            x       y       z     vdW  Elec       q    Type
REMARK                         _______ _______ _______ _____ _____    ______ ____
ROOT
ATOM      1  C   UNL     1      32.034 -23.245 -15.937  0.00  0.00    +0.172 C 
ENDROOT
BRANCH   1   9
ATOM      2  O   UNL     1      31.895 -22.613 -13.658  0.00  0.00    -0.273 OA
ATOM      3  N   UNL     1      36.827 -23.010 -14.160  0.00  0.00    +0.390 N 
ATOM      4  N   UNL     1      34.019 -22.647 -14.596  0.00  0.00    -0.282 N 
ATOM      5  C   UNL     1      35.903 -22.900 -13.022  0.00  0.00    -0.055 C 
ATOM      6  C   UNL     1      36.162 -23.656 -15.302  0.00  0.00    -0.055 C 
ATOM      7  C   UNL     1      34.664 -22.093 -13.407  0.00  0.00    +0.071 C 
ATOM      8  C   UNL     1      34.922 -22.868 -15.731  0.00  0.00    +0.071 C 
ATOM      9  C   UNL     1      32.635 -22.805 -14.626  0.00  0.00    +0.248 C 
ATOM     10  H   UNL     1      37.108 -22.071 -14.440  0.00  0.00    -0.079 HD
BRANCH   3  12
ATOM     11  N   UNL     1      39.756 -26.090 -14.109  0.00  0.00    +0.385 N 
ATOM     12  C   UNL     1      38.026 -23.753 -13.779  0.00  0.00    -0.062 C 
ATOM     13  C   UNL     1      38.954 -23.919 -14.986  0.00  0.00    -0.044 C 
ATOM     14  C   UNL     1      37.662 -25.126 -13.207  0.00  0.00    -0.044 C 
ATOM     15  C   UNL     1      40.169 -24.780 -14.629  0.00  0.00    -0.080 C 
ATOM     16  C   UNL     1      38.919 -25.948 -12.910  0.00  0.00    -0.080 C 
ATOM     17  C   UNL     1      40.926 -26.918 -13.821  0.00  0.00    -0.101 C 
ATOM     18  H   UNL     1      39.197 -26.551 -14.827  0.00  0.00    -0.080 HD
ENDBRANCH   3  12
ENDBRANCH   1   9
BRANCH   1  19
ATOM     19  C   UNL     1      30.542 -23.389 -15.848  0.00  0.00    +0.004 C 
ATOM     20  C   UNL     1      29.994 -24.518 -15.250  0.00  0.00    -0.002 C 
ATOM     21  C   UNL     1      29.724 -22.391 -16.364  0.00  0.00    -0.002 C 
ATOM     22  C   UNL     1      28.608 -24.651 -15.167  0.00  0.00    -0.000 C 
ATOM     23  C   UNL     1      28.338 -22.524 -16.280  0.00  0.00    -0.000 C 
ATOM     24  C   UNL     1      27.780 -23.654 -15.682  0.00  0.00    -0.000 C 
ENDBRANCH   1  19
BRANCH   1  26
ATOM     25  O   UNL     1      33.112 -23.771 -18.545  0.00  0.00    -0.270 OA
ATOM     26  N   UNL     1      32.457 -22.270 -16.902  0.00  0.00    -0.291 N 
ATOM     27  C   UNL     1      32.970 -22.617 -18.148  0.00  0.00    +0.246 C 
ATOM     28  H   UNL     1      32.381 -21.316 -16.673  0.00  0.00    +0.150 HD
BRANCH  27  30
ATOM     29  N   UNL     1      36.311 -19.525 -20.149  0.00  0.00    -0.312 N 
ATOM     30  C   UNL     1      33.388 -21.491 -19.022  0.00  0.00    +0.055 C 
ATOM     31  C   UNL     1      34.728 -21.155 -19.060  0.00  0.00    +0.019 C 
ATOM     32  C   UNL     1      32.423 -20.835 -19.755  0.00  0.00    +0.005 C 
ATOM     33  C   UNL     1      35.081 -20.090 -19.898  0.00  0.00    +0.048 C 
ATOM     34  C   UNL     1      34.143 -19.391 -20.662  0.00  0.00    +0.015 C 
ATOM     35  C   UNL     1      32.789 -19.771 -20.589  0.00  0.00    +0.001 C 
ATOM     36  C   UNL     1      34.855 -18.389 -21.380  0.00  0.00    +0.017 C 
ATOM     37  C   UNL     1      36.184 -18.497 -21.044  0.00  0.00    +0.062 C 
ATOM     38  H   UNL     1      37.158 -19.819 -19.744  0.00  0.00    +0.152 HD
ENDBRANCH  27  30
ENDBRANCH   1  26
TORSDOF 5
ENDMDL
MODEL 2
REMARK VINA RESULT:     -11.0      1.963      6.954
REMARK  Name = 9939865
REMARK  5 active torsions:
REMARK  status: ('A' for Active; 'I' for Inactive)
REMARK    1  A    between atoms: C_1  and  C_9
REMARK    2  A    between atoms: C_1  and  C_19
REMARK    3  A    between atoms: C_1  and  N_26
REMARK    4  A    between atoms: N_3  and  C_12
REMARK    5  A    between atoms: C_27  and  C_30
REMARK                            x       y       z     vdW  Elec       q    Type
REMARK                         _______ _______ _______ _____ _____    ______ ____
ROOT
ATOM      1  C   UNL     1      36.793 -22.773 -14.121  0.00  0.00    +0.172 C 
ENDROOT
BRANCH   1   9
ATOM      2  O   UNL     1      36.010 -22.595 -11.892  0.00  0.00    -0.273 OA
ATOM      3  N   UNL     1      31.789 -23.841 -14.209  0.00  0.00    +0.390 N 
ATOM      4  N   UNL     1      34.526 -23.481 -13.444  0.00  0.00    -0.282 N 
ATOM      5  C   UNL     1      32.129 -23.316 -12.878  0.00  0.00    -0.055 C 
ATOM      6  C   UNL     1      32.789 -23.418 -15.201  0.00  0.00    -0.055 C 
ATOM      7  C   UNL     1      33.511 -23.800 -12.442  0.00  0.00    +0.071 C 
ATOM      8  C   UNL     1      34.187 -23.899 -14.808  0.00  0.00    +0.071 C 
ATOM      9  C   UNL     1      35.748 -22.940 -13.047  0.00  0.00    +0.248 C 
ATOM     10  H   UNL     1      31.792 -24.861 -14.163  0.00  0.00    -0.079 HD
BRANCH   3  12
ATOM     11  N   UNL     1      28.369 -23.214 -16.653  0.00  0.00    +0.385 N 
ATOM     12  C   UNL     1      30.453 -23.404 -14.608  0.00  0.00    -0.062 C 
ATOM     13  C   UNL     1      29.602 -24.608 -15.021  0.00  0.00    -0.044 C 
ATOM     14  C   UNL     1      30.527 -22.396 -15.759  0.00  0.00    -0.044 C 
ATOM     15  C   UNL     1      28.232 -24.159 -15.537  0.00  0.00    -0.080 C 
ATOM     16  C   UNL     1      29.127 -22.021 -16.251  0.00  0.00    -0.080 C 
ATOM     17  C   UNL     1      27.054 -22.834 -17.166  0.00  0.00    -0.101 C 
ATOM     18  H   UNL     1      28.889 -23.679 -17.397  0.00  0.00    -0.080 HD
ENDBRANCH   3  12
ENDBRANCH   1   9
BRANCH   1  19
ATOM     19  C   UNL     1      37.624 -24.013 -14.289  0.00  0.00    +0.004 C 
ATOM     20  C   UNL     1      38.956 -23.901 -14.674  0.00  0.00    -0.002 C 
ATOM     21  C   UNL     1      37.054 -25.259 -14.058  0.00  0.00    -0.002 C 
ATOM     22  C   UNL     1      39.728 -25.052 -14.830  0.00  0.00    -0.000 C 
ATOM     23  C   UNL     1      37.827 -26.410 -14.213  0.00  0.00    -0.000 C 
ATOM     24  C   UNL     1      39.163 -26.307 -14.599  0.00  0.00    -0.000 C 
ENDBRANCH   1  19
BRANCH   1  26
ATOM     25  O   UNL     1      37.824 -21.321 -16.372  0.00  0.00    -0.270 OA
ATOM     26  N   UNL     1      36.072 -22.405 -15.307  0.00  0.00    -0.291 N 
ATOM     27  C   UNL     1      36.655 -21.697 -16.353  0.00  0.00    +0.246 C 
ATOM     28  H   UNL     1      35.126 -22.664 -15.383  0.00  0.00    +0.150 HD
BRANCH  27  30
ATOM     29  N   UNL     1      35.521 -19.351 -20.588  0.00  0.00    -0.312 N 
ATOM     30  C   UNL     1      35.768 -21.369 -17.499  0.00  0.00    +0.055 C 
ATOM     31  C   UNL     1      36.225 -20.469 -18.443  0.00  0.00    +0.019 C 
ATOM     32  C   UNL     1      34.533 -21.977 -17.568  0.00  0.00    +0.005 C 
ATOM     33  C   UNL     1      35.360 -20.189 -19.508  0.00  0.00    +0.048 C 
ATOM     34  C   UNL     1      34.098 -20.776 -19.626  0.00  0.00    +0.015 C 
ATOM     35  C   UNL     1      33.677 -21.686 -18.638  0.00  0.00    +0.001 C 
ATOM     36  C   UNL     1      33.509 -20.261 -20.816  0.00  0.00    +0.017 C 
ATOM     37  C   UNL     1      34.408 -19.388 -21.384  0.00  0.00    +0.062 C 
ATOM     38  H   UNL     1      36.320 -18.805 -20.762  0.00  0.00    +0.152 HD
ENDBRANCH  27  30
ENDBRANCH   1  26
TORSDOF 5
ENDMDL
MODEL 3
REMARK VINA RESULT:     -10.1      2.071      8.098
REMARK  Name = 9939865
REMARK  5 active torsions:
REMARK  status: ('A' for Active; 'I' for Inactive)
REMARK    1  A    between atoms: C_1  and  C_9
REMARK    2  A    between atoms: C_1  and  C_19
REMARK    3  A    between atoms: C_1  and  N_26
REMARK    4  A    between atoms: N_3  and  C_12
REMARK    5  A    between atoms: C_27  and  C_30
REMARK                            x       y       z     vdW  Elec       q    Type
REMARK                         _______ _______ _______ _____ _____    ______ ____
ROOT
ATOM      1  C   UNL     1      36.292 -23.505 -15.466  0.00  0.00    +0.172 C 
ENDROOT
BRANCH   1   9
ATOM      2  O   UNL     1      38.136 -22.022 -15.581  0.00  0.00    -0.273 OA
ATOM      3  N   UNL     1      35.238 -20.101 -19.137  0.00  0.00    +0.390 N 
ATOM      4  N   UNL     1      36.260 -21.442 -16.822  0.00  0.00    -0.282 N 
ATOM      5  C   UNL     1      36.643 -19.932 -18.737  0.00  0.00    -0.055 C 
ATOM      6  C   UNL     1      34.760 -21.446 -18.786  0.00  0.00    -0.055 C 
ATOM      7  C   UNL     1      36.806 -20.150 -17.234  0.00  0.00    +0.071 C 
ATOM      8  C   UNL     1      34.891 -21.698 -17.283  0.00  0.00    +0.071 C 
ATOM      9  C   UNL     1      36.984 -22.259 -15.955  0.00  0.00    +0.248 C 
ATOM     10  H   UNL     1      34.675 -19.416 -18.633  0.00  0.00    -0.079 HD
BRANCH   3  12
ATOM     11  N   UNL     1      34.269 -18.086 -22.753  0.00  0.00    +0.385 N 
ATOM     12  C   UNL     1      35.080 -19.858 -20.570  0.00  0.00    -0.062 C 
ATOM     13  C   UNL     1      35.922 -18.654 -21.000  0.00  0.00    -0.044 C 
ATOM     14  C   UNL     1      33.610 -19.623 -20.928  0.00  0.00    -0.044 C 
ATOM     15  C   UNL     1      35.692 -18.324 -22.477  0.00  0.00    -0.080 C 
ATOM     16  C   UNL     1      33.456 -19.260 -22.407  0.00  0.00    -0.080 C 
ATOM     17  C   UNL     1      34.072 -17.723 -24.155  0.00  0.00    -0.101 C 
ATOM     18  H   UNL     1      33.961 -17.309 -22.167  0.00  0.00    -0.080 HD
ENDBRANCH   3  12
ENDBRANCH   1   9
BRANCH   1  19
ATOM     19  C   UNL     1      36.933 -24.049 -14.221  0.00  0.00    +0.004 C 
ATOM     20  C   UNL     1      36.780 -23.370 -13.017  0.00  0.00    -0.002 C 
ATOM     21  C   UNL     1      37.672 -25.223 -14.286  0.00  0.00    -0.002 C 
ATOM     22  C   UNL     1      37.376 -23.875 -11.861  0.00  0.00    -0.000 C 
ATOM     23  C   UNL     1      38.267 -25.729 -13.130  0.00  0.00    -0.000 C 
ATOM     24  C   UNL     1      38.119 -25.055 -11.917  0.00  0.00    -0.000 C 
ENDBRANCH   1  19
BRANCH   1  26
ATOM     25  O   UNL     1      34.157 -25.220 -14.603  0.00  0.00    -0.270 OA
ATOM     26  N   UNL     1      34.916 -23.136 -15.284  0.00  0.00    -0.291 N 
ATOM     27  C   UNL     1      33.945 -24.038 -14.861  0.00  0.00    +0.246 C 
ATOM     28  H   UNL     1      34.649 -22.207 -15.467  0.00  0.00    +0.150 HD
BRANCH  27  30
ATOM     29  N   UNL     1      29.607 -22.460 -16.711  0.00  0.00    -0.312 N 
ATOM     30  C   UNL     1      32.562 -23.507 -14.748  0.00  0.00    +0.055 C 
ATOM     31  C   UNL     1      31.851 -23.281 -15.912  0.00  0.00    +0.019 C 
ATOM     32  C   UNL     1      32.051 -23.266 -13.491  0.00  0.00    +0.005 C 
ATOM     33  C   UNL     1      30.551 -22.783 -15.762  0.00  0.00    +0.048 C 
ATOM     34  C   UNL     1      29.985 -22.521 -14.513  0.00  0.00    +0.015 C 
ATOM     35  C   UNL     1      30.750 -22.767 -13.356  0.00  0.00    +0.001 C 
ATOM     36  C   UNL     1      28.669 -22.031 -14.746  0.00  0.00    +0.017 C 
ATOM     37  C   UNL     1      28.466 -22.004 -16.106  0.00  0.00    +0.062 C 
ATOM     38  H   UNL     1      29.734 -22.544 -17.683  0.00  0.00    +0.152 HD
ENDBRANCH  27  30
ENDBRANCH   1  26
TORSDOF 5
ENDMDL
MODEL 4
REMARK VINA RESULT:      -9.4      1.846      7.563
REMARK  Name = 9939865
REMARK  5 active torsions:
REMARK  status: ('A' for Active; 'I' for Inactive)
REMARK    1  A    between atoms: C_1  and  C_9
REMARK    2  A    between atoms: C_1  and  C_19
REMARK    3  A    between atoms: C_1  and  N_26
REMARK    4  A    between atoms: N_3  and  C_12
REMARK    5  A    between atoms: C_27  and  C_30
REMARK                            x       y       z     vdW  Elec       q    Type
REMARK                         _______ _______ _______ _____ _____    ______ ____
ROOT
ATOM      1  C   UNL     1      33.037 -22.753 -15.210  0.00  0.00    +0.172 C 
ENDROOT
BRANCH   1   9
ATOM      2  O   UNL     1      31.614 -23.687 -16.859  0.00  0.00    -0.273 OA
ATOM      3  N   UNL     1      34.941 -21.398 -19.762  0.00  0.00    +0.390 N 
ATOM      4  N   UNL     1      33.591 -22.731 -17.616  0.00  0.00    -0.282 N 
ATOM      5  C   UNL     1      33.615 -21.998 -19.973  0.00  0.00    -0.055 C 
ATOM      6  C   UNL     1      35.070 -20.905 -18.383  0.00  0.00    -0.055 C 
ATOM      7  C   UNL     1      33.384 -23.153 -19.000  0.00  0.00    +0.071 C 
ATOM      8  C   UNL     1      34.861 -22.038 -17.376  0.00  0.00    +0.071 C 
ATOM      9  C   UNL     1      32.678 -23.104 -16.632  0.00  0.00    +0.248 C 
ATOM     10  H   UNL     1      35.648 -22.117 -19.916  0.00  0.00    -0.079 HD
BRANCH   3  12
ATOM     11  N   UNL     1      34.941 -17.486 -21.424  0.00  0.00    +0.385 N 
ATOM     12  C   UNL     1      35.172 -20.316 -20.717  0.00  0.00    -0.062 C 
ATOM     13  C   UNL     1      36.069 -19.242 -20.094  0.00  0.00    -0.044 C 
ATOM     14  C   UNL     1      33.850 -19.692 -21.171  0.00  0.00    -0.044 C 
ATOM     15  C   UNL     1      36.242 -18.054 -21.043  0.00  0.00    -0.080 C 
ATOM     16  C   UNL     1      34.095 -18.488 -22.084  0.00  0.00    -0.080 C 
ATOM     17  C   UNL     1      35.125 -16.322 -22.289  0.00  0.00    -0.101 C 
ATOM     18  H   UNL     1      34.467 -17.188 -20.571  0.00  0.00    -0.080 HD
ENDBRANCH   3  12
ENDBRANCH   1   9
BRANCH   1  19
ATOM     19  C   UNL     1      31.959 -23.155 -14.245  0.00  0.00    +0.004 C 
ATOM     20  C   UNL     1      31.119 -22.185 -13.709  0.00  0.00    -0.002 C 
ATOM     21  C   UNL     1      31.811 -24.492 -13.899  0.00  0.00    -0.002 C 
ATOM     22  C   UNL     1      30.118 -22.559 -12.813  0.00  0.00    -0.000 C 
ATOM     23  C   UNL     1      30.809 -24.867 -13.004  0.00  0.00    -0.000 C 
ATOM     24  C   UNL     1      29.962 -23.900 -12.460  0.00  0.00    -0.000 C 
ENDBRANCH   1  19
BRANCH   1  26
ATOM     25  O   UNL     1      34.474 -22.801 -12.725  0.00  0.00    -0.270 OA
ATOM     26  N   UNL     1      34.296 -23.397 -14.960  0.00  0.00    -0.291 N 
ATOM     27  C   UNL     1      34.922 -23.368 -13.718  0.00  0.00    +0.246 C 
ATOM     28  H   UNL     1      34.734 -23.879 -15.698  0.00  0.00    +0.150 HD
BRANCH  27  30
ATOM     29  N   UNL     1      39.365 -24.752 -15.472  0.00  0.00    -0.312 N 
ATOM     30  C   UNL     1      36.234 -24.060 -13.629  0.00  0.00    +0.055 C 
ATOM     31  C   UNL     1      37.091 -23.980 -14.711  0.00  0.00    +0.019 C 
ATOM     32  C   UNL     1      36.537 -24.747 -12.473  0.00  0.00    +0.005 C 
ATOM     33  C   UNL     1      38.317 -24.644 -14.586  0.00  0.00    +0.048 C 
ATOM     34  C   UNL     1      38.674 -25.355 -13.438  0.00  0.00    +0.015 C 
ATOM     35  C   UNL     1      37.766 -25.408 -12.362  0.00  0.00    +0.001 C 
ATOM     36  C   UNL     1      39.973 -25.891 -13.666  0.00  0.00    +0.017 C 
ATOM     37  C   UNL     1      40.370 -25.503 -14.925  0.00  0.00    +0.062 C 
ATOM     38  H   UNL     1      39.388 -24.346 -16.368  0.00  0.00    +0.152 HD
ENDBRANCH  27  30
ENDBRANCH   1  26
TORSDOF 5
ENDMDL
MODEL 5
REMARK VINA RESULT:      -8.4     14.442     20.142
REMARK  Name = 9939865
REMARK  5 active torsions:
REMARK  status: ('A' for Active; 'I' for Inactive)
REMARK    1  A    between atoms: C_1  and  C_9
REMARK    2  A    between atoms: C_1  and  C_19
REMARK    3  A    between atoms: C_1  and  N_26
REMARK    4  A    between atoms: N_3  and  C_12
REMARK    5  A    between atoms: C_27  and  C_30
REMARK                            x       y       z     vdW  Elec       q    Type
REMARK                         _______ _______ _______ _____ _____    ______ ____
ROOT
ATOM      1  C   UNL     1      32.512  -5.199 -24.182  0.00  0.00    +0.172 C 
ENDROOT
BRANCH   1   9
ATOM      2  O   UNL     1      31.143  -4.892 -26.092  0.00  0.00    -0.273 OA
ATOM      3  N   UNL     1      35.636  -4.900 -28.223  0.00  0.00    +0.390 N 
ATOM      4  N   UNL     1      33.394  -5.302 -26.485  0.00  0.00    -0.282 N 
ATOM      5  C   UNL     1      34.281  -4.526 -28.655  0.00  0.00    -0.055 C 
ATOM      6  C   UNL     1      35.781  -4.724 -26.770  0.00  0.00    -0.055 C 
ATOM      7  C   UNL     1      33.232  -5.374 -27.936  0.00  0.00    +0.071 C 
ATOM      8  C   UNL     1      34.756  -5.571 -26.012  0.00  0.00    +0.071 C 
ATOM      9  C   UNL     1      32.280  -5.117 -25.670  0.00  0.00    +0.248 C 
ATOM     10  H   UNL     1      35.786  -5.884 -28.445  0.00  0.00    -0.079 HD
BRANCH   3  12
ATOM     11  N   UNL     1      39.286  -2.867 -29.007  0.00  0.00    +0.385 N 
ATOM     12  C   UNL     1      36.638  -4.111 -28.937  0.00  0.00    -0.062 C 
ATOM     13  C   UNL     1      37.920  -4.928 -29.125  0.00  0.00    -0.044 C 
ATOM     14  C   UNL     1      36.951  -2.814 -28.187  0.00  0.00    -0.044 C 
ATOM     15  C   UNL     1      39.015  -4.085 -29.783  0.00  0.00    -0.080 C 
ATOM     16  C   UNL     1      38.079  -2.040 -28.875  0.00  0.00    -0.080 C 
ATOM     17  C   UNL     1      40.368  -2.099 -29.620  0.00  0.00    -0.101 C 
ATOM     18  H   UNL     1      39.575  -3.150 -28.070  0.00  0.00    -0.080 HD
ENDBRANCH   3  12
ENDBRANCH   1   9
BRANCH   1  19
ATOM     19  C   UNL     1      31.676  -4.202 -23.431  0.00  0.00    +0.004 C 
ATOM     20  C   UNL     1      31.809  -2.846 -23.708  0.00  0.00    -0.002 C 
ATOM     21  C   UNL     1      30.779  -4.645 -22.467  0.00  0.00    -0.002 C 
ATOM     22  C   UNL     1      31.032  -1.920 -23.011  0.00  0.00    -0.000 C 
ATOM     23  C   UNL     1      30.002  -3.720 -21.770  0.00  0.00    -0.000 C 
ATOM     24  C   UNL     1      30.128  -2.357 -22.042  0.00  0.00    -0.000 C 
ENDBRANCH   1  19
BRANCH   1  26
ATOM     25  O   UNL     1      34.277  -7.000 -22.812  0.00  0.00    -0.270 OA
ATOM     26  N   UNL     1      32.236  -6.561 -23.822  0.00  0.00    -0.291 N 
ATOM     27  C   UNL     1      33.156  -7.364 -23.156  0.00  0.00    +0.246 C 
ATOM     28  H   UNL     1      31.360  -6.942 -24.056  0.00  0.00    +0.150 HD
BRANCH  27  30
ATOM     29  N   UNL     1      33.624 -12.307 -23.418  0.00  0.00    -0.312 N 
ATOM     30  C   UNL     1      32.729  -8.760 -22.879  0.00  0.00    +0.055 C 
ATOM     31  C   UNL     1      33.511  -9.791 -23.364  0.00  0.00    +0.019 C 
ATOM     32  C   UNL     1      31.576  -8.962 -22.152  0.00  0.00    +0.005 C 
ATOM     33  C   UNL     1      33.075 -11.091 -23.080  0.00  0.00    +0.048 C 
ATOM     34  C   UNL     1      31.915 -11.353 -22.348  0.00  0.00    +0.015 C 
ATOM     35  C   UNL     1      31.151 -10.268 -21.875  0.00  0.00    +0.001 C 
ATOM     36  C   UNL     1      31.789 -12.768 -22.258  0.00  0.00    +0.017 C 
ATOM     37  C   UNL     1      32.854 -13.327 -22.925  0.00  0.00    +0.062 C 
ATOM     38  H   UNL     1      34.451 -12.427 -23.938  0.00  0.00    +0.152 HD
ENDBRANCH  27  30
ENDBRANCH   1  26
TORSDOF 5
ENDMDL
