MODEL 1
REMARK VINA RESULT:     -11.8      0.000      0.000
REMARK  Name = 16737780
REMARK  11 active torsions:
REMARK  status: ('A' for Active; 'I' for Inactive)
REMARK    1  A    between atoms: C_1  and  C_2
REMARK    2  A    between atoms: C_1  and  C_18
REMARK    3  A    between atoms: C_2  and  N_3
REMARK    4  A    between atoms: C_11  and  O_14
REMARK    5  A    between atoms: C_12  and  O_16
REMARK    6  A    between atoms: C_18  and  C_19
REMARK    7  A    between atoms: C_19  and  N_21
REMARK    8  A    between atoms: C_22  and  C_24
REMARK    9  A    between atoms: C_25  and  O_31
REMARK   10  A    between atoms: O_31  and  C_32
REMARK   11  A    between atoms: C_32  and  C_34
REMARK                            x       y       z     vdW  Elec       q    Type
REMARK                         _______ _______ _______ _____ _____    ______ ____
ROOT
ATOM      1  C   UNL     1      34.542 -19.319 -21.701  0.00  0.00    -0.021 C 
ENDROOT
BRANCH   1   2
ATOM      2  C   UNL     1      35.690 -18.307 -21.683  0.00  0.00    -0.077 C 
BRANCH   2   3
ATOM      3  N   UNL     1      35.289 -17.014 -22.238  0.00  0.00    +0.390 N 
ATOM      4  C   UNL     1      34.485 -17.194 -23.453  0.00  0.00    -0.072 C 
ATOM      5  C   UNL     1      34.533 -16.239 -21.237  0.00  0.00    -0.050 C 
ATOM      6  C   UNL     1      34.252 -15.840 -24.129  0.00  0.00    +0.003 C 
ATOM      7  C   UNL     1      33.967 -14.949 -21.783  0.00  0.00    -0.044 C 
ATOM      8  C   UNL     1      33.791 -14.776 -23.167  0.00  0.00    -0.027 C 
ATOM      9  C   UNL     1      33.552 -13.940 -20.903  0.00  0.00    +0.033 C 
ATOM     10  C   UNL     1      33.239 -13.583 -23.652  0.00  0.00    +0.035 C 
ATOM     11  C   UNL     1      32.994 -12.761 -21.395  0.00  0.00    +0.172 C 
ATOM     12  C   UNL     1      32.840 -12.581 -22.768  0.00  0.00    +0.172 C 
ATOM     13  H   UNL     1      36.133 -16.498 -22.485  0.00  0.00    -0.079 HD
BRANCH  11  14
ATOM     14  O   UNL     1      32.604 -11.790 -20.523  0.00  0.00    -0.468 OA
ATOM     15  C   UNL     1      31.218 -11.455 -20.503  0.00  0.00    +0.253 C 
ENDBRANCH  11  14
BRANCH  12  16
ATOM     16  O   UNL     1      32.300 -11.431 -23.261  0.00  0.00    -0.468 OA
ATOM     17  C   UNL     1      33.200 -10.356 -23.527  0.00  0.00    +0.253 C 
ENDBRANCH  12  16
ENDBRANCH   2   3
ENDBRANCH   1   2
BRANCH   1  18
ATOM     18  C   UNL     1      34.361 -20.045 -20.363  0.00  0.00    +0.019 C 
BRANCH  18  19
ATOM     19  C   UNL     1      32.925 -20.512 -20.144  0.00  0.00    +0.090 C 
BRANCH  19  21
ATOM     20  O   UNL     1      33.371 -23.140 -19.080  0.00  0.00    -0.270 OA
ATOM     21  N   UNL     1      32.685 -20.943 -18.795  0.00  0.00    -0.301 N 
ATOM     22  C   UNL     1      32.931 -22.242 -18.367  0.00  0.00    +0.249 C 
ATOM     23  H   UNL     1      32.331 -20.292 -18.148  0.00  0.00    +0.150 HD
BRANCH  22  24
ATOM     24  C   UNL     1      32.605 -22.537 -16.948  0.00  0.00    +0.087 C 
ATOM     25  C   UNL     1      33.610 -22.837 -16.030  0.00  0.00    +0.143 C 
ATOM     26  C   UNL     1      31.272 -22.508 -16.538  0.00  0.00    +0.003 C 
ATOM     27  C   UNL     1      30.945 -22.780 -15.210  0.00  0.00    -0.022 C 
ATOM     28  C   UNL     1      33.284 -23.110 -14.701  0.00  0.00    +0.037 C 
ATOM     29  C   UNL     1      31.952 -23.081 -14.291  0.00  0.00    -0.001 C 
ATOM     30  C   UNL     1      29.521 -22.750 -14.770  0.00  0.00    +0.031 C 
BRANCH  25  31
ATOM     31  O   UNL     1      34.919 -22.872 -16.412  0.00  0.00    -0.472 OA
BRANCH  31  32
ATOM     32  C   UNL     1      35.823 -22.030 -15.699  0.00  0.00    +0.243 C 
BRANCH  32  34
ATOM     33  F   UNL     1      36.258 -21.568 -17.947  0.00  0.00    -0.230 F 
ATOM     34  C   UNL     1      36.739 -21.350 -16.693  0.00  0.00    +0.240 C 
ENDBRANCH  32  34
ENDBRANCH  31  32
ENDBRANCH  25  31
ENDBRANCH  22  24
ENDBRANCH  19  21
ENDBRANCH  18  19
ENDBRANCH   1  18
TORSDOF 11
ENDMDL
MODEL 2
REMARK VINA RESULT:     -11.6      1.104      2.106
REMARK  Name = 16737780
REMARK  11 active torsions:
REMARK  status: ('A' for Active; 'I' for Inactive)
REMARK    1  A    between atoms: C_1  and  C_2
REMARK    2  A    between atoms: C_1  and  C_18
REMARK    3  A    between atoms: C_2  and  N_3
REMARK    4  A    between atoms: C_11  and  O_14
REMARK    5  A    between atoms: C_12  and  O_16
REMARK    6  A    between atoms: C_18  and  C_19
REMARK    7  A    between atoms: C_19  and  N_21
REMARK    8  A    between atoms: C_22  and  C_24
REMARK    9  A    between atoms: C_25  and  O_31
REMARK   10  A    between atoms: O_31  and  C_32
REMARK   11  A    between atoms: C_32  and  C_34
REMARK                            x       y       z     vdW  Elec       q    Type
REMARK                         _______ _______ _______ _____ _____    ______ ____
ROOT
ATOM      1  C   UNL     1      35.521 -19.311 -21.239  0.00  0.00    -0.021 C 
ENDROOT
BRANCH   1   2
ATOM      2  C   UNL     1      34.843 -18.741 -22.487  0.00  0.00    -0.077 C 
BRANCH   2   3
ATOM      3  N   UNL     1      34.240 -17.434 -22.233  0.00  0.00    +0.390 N 
ATOM      4  C   UNL     1      34.929 -16.744 -21.135  0.00  0.00    -0.072 C 
ATOM      5  C   UNL     1      34.273 -16.608 -23.453  0.00  0.00    -0.050 C 
ATOM      6  C   UNL     1      34.158 -15.478 -20.749  0.00  0.00    +0.003 C 
ATOM      7  C   UNL     1      33.792 -15.193 -23.231  0.00  0.00    -0.044 C 
ATOM      8  C   UNL     1      33.780 -14.637 -21.940  0.00  0.00    -0.027 C 
ATOM      9  C   UNL     1      33.416 -14.403 -24.326  0.00  0.00    +0.033 C 
ATOM     10  C   UNL     1      33.355 -13.314 -21.758  0.00  0.00    +0.035 C 
ATOM     11  C   UNL     1      33.005 -13.084 -24.136  0.00  0.00    +0.172 C 
ATOM     12  C   UNL     1      32.972 -12.541 -22.854  0.00  0.00    +0.172 C 
ATOM     13  H   UNL     1      33.267 -17.579 -21.961  0.00  0.00    -0.079 HD
BRANCH  11  14
ATOM     14  O   UNL     1      32.636 -12.336 -25.213  0.00  0.00    -0.468 OA
ATOM     15  C   UNL     1      32.747 -12.949 -26.497  0.00  0.00    +0.253 C 
ENDBRANCH  11  14
BRANCH  12  16
ATOM     16  O   UNL     1      32.568 -11.255 -22.655  0.00  0.00    -0.468 OA
ATOM     17  C   UNL     1      31.418 -11.057 -21.835  0.00  0.00    +0.253 C 
ENDBRANCH  12  16
ENDBRANCH   2   3
ENDBRANCH   1   2
BRANCH   1  18
ATOM     18  C   UNL     1      34.567 -20.123 -20.355  0.00  0.00    +0.019 C 
BRANCH  18  19
ATOM     19  C   UNL     1      35.283 -21.237 -19.597  0.00  0.00    +0.090 C 
BRANCH  19  21
ATOM     20  O   UNL     1      33.259 -23.227 -19.167  0.00  0.00    -0.270 OA
ATOM     21  N   UNL     1      34.644 -21.556 -18.350  0.00  0.00    -0.301 N 
ATOM     22  C   UNL     1      33.670 -22.540 -18.235  0.00  0.00    +0.249 C 
ATOM     23  H   UNL     1      34.908 -21.057 -17.544  0.00  0.00    +0.150 HD
BRANCH  22  24
ATOM     24  C   UNL     1      33.087 -22.730 -16.882  0.00  0.00    +0.087 C 
ATOM     25  C   UNL     1      33.895 -23.069 -15.797  0.00  0.00    +0.143 C 
ATOM     26  C   UNL     1      31.714 -22.563 -16.705  0.00  0.00    +0.003 C 
ATOM     27  C   UNL     1      31.148 -22.736 -15.441  0.00  0.00    -0.022 C 
ATOM     28  C   UNL     1      33.330 -23.241 -14.533  0.00  0.00    +0.037 C 
ATOM     29  C   UNL     1      31.957 -23.076 -14.355  0.00  0.00    -0.001 C 
ATOM     30  C   UNL     1      29.681 -22.559 -15.250  0.00  0.00    +0.031 C 
BRANCH  25  31
ATOM     31  O   UNL     1      35.239 -23.237 -15.951  0.00  0.00    -0.472 OA
BRANCH  31  32
ATOM     32  C   UNL     1      36.088 -22.516 -15.060  0.00  0.00    +0.243 C 
BRANCH  32  34
ATOM     33  F   UNL     1      37.069 -20.934 -16.472  0.00  0.00    -0.230 F 
ATOM     34  C   UNL     1      37.332 -22.094 -15.810  0.00  0.00    +0.240 C 
ENDBRANCH  32  34
ENDBRANCH  31  32
ENDBRANCH  25  31
ENDBRANCH  22  24
ENDBRANCH  19  21
ENDBRANCH  18  19
ENDBRANCH   1  18
TORSDOF 11
ENDMDL
MODEL 3
REMARK VINA RESULT:     -11.6      1.963      3.479
REMARK  Name = 16737780
REMARK  11 active torsions:
REMARK  status: ('A' for Active; 'I' for Inactive)
REMARK    1  A    between atoms: C_1  and  C_2
REMARK    2  A    between atoms: C_1  and  C_18
REMARK    3  A    between atoms: C_2  and  N_3
REMARK    4  A    between atoms: C_11  and  O_14
REMARK    5  A    between atoms: C_12  and  O_16
REMARK    6  A    between atoms: C_18  and  C_19
REMARK    7  A    between atoms: C_19  and  N_21
REMARK    8  A    between atoms: C_22  and  C_24
REMARK    9  A    between atoms: C_25  and  O_31
REMARK   10  A    between atoms: O_31  and  C_32
REMARK   11  A    between atoms: C_32  and  C_34
REMARK                            x       y       z     vdW  Elec       q    Type
REMARK                         _______ _______ _______ _____ _____    ______ ____
ROOT
ATOM      1  C   UNL     1      34.418 -19.746 -20.560  0.00  0.00    -0.021 C 
ENDROOT
BRANCH   1   2
ATOM      2  C   UNL     1      35.637 -18.894 -20.922  0.00  0.00    -0.077 C 
BRANCH   2   3
ATOM      3  N   UNL     1      35.300 -17.828 -21.864  0.00  0.00    +0.390 N 
ATOM      4  C   UNL     1      34.419 -18.329 -22.926  0.00  0.00    -0.072 C 
ATOM      5  C   UNL     1      34.659 -16.704 -21.160  0.00  0.00    -0.050 C 
ATOM      6  C   UNL     1      34.248 -17.260 -24.010  0.00  0.00    +0.003 C 
ATOM      7  C   UNL     1      34.158 -15.623 -22.089  0.00  0.00    -0.044 C 
ATOM      8  C   UNL     1      33.918 -15.903 -23.446  0.00  0.00    -0.027 C 
ATOM      9  C   UNL     1      33.866 -14.348 -21.585  0.00  0.00    +0.033 C 
ATOM     10  C   UNL     1      33.428 -14.895 -24.286  0.00  0.00    +0.035 C 
ATOM     11  C   UNL     1      33.368 -13.354 -22.427  0.00  0.00    +0.172 C 
ATOM     12  C   UNL     1      33.152 -13.626 -23.776  0.00  0.00    +0.172 C 
ATOM     13  H   UNL     1      36.165 -17.497 -22.293  0.00  0.00    -0.079 HD
BRANCH  11  14
ATOM     14  O   UNL     1      33.098 -12.120 -21.919  0.00  0.00    -0.468 OA
ATOM     15  C   UNL     1      31.869 -11.965 -21.210  0.00  0.00    +0.253 C 
ENDBRANCH  11  14
BRANCH  12  16
ATOM     16  O   UNL     1      32.670 -12.661 -24.609  0.00  0.00    -0.468 OA
ATOM     17  C   UNL     1      32.647 -12.963 -26.003  0.00  0.00    +0.253 C 
ENDBRANCH  12  16
ENDBRANCH   2   3
ENDBRANCH   1   2
BRANCH   1  18
ATOM     18  C   UNL     1      34.783 -21.021 -19.791  0.00  0.00    +0.019 C 
BRANCH  18  19
ATOM     19  C   UNL     1      35.920 -20.796 -18.798  0.00  0.00    +0.090 C 
BRANCH  19  21
ATOM     20  O   UNL     1      37.307 -20.548 -16.297  0.00  0.00    -0.270 OA
ATOM     21  N   UNL     1      35.889 -21.727 -17.704  0.00  0.00    -0.301 N 
ATOM     22  C   UNL     1      36.596 -21.523 -16.525  0.00  0.00    +0.249 C 
ATOM     23  H   UNL     1      35.345 -22.542 -17.793  0.00  0.00    +0.150 HD
BRANCH  22  24
ATOM     24  C   UNL     1      36.481 -22.592 -15.500  0.00  0.00    +0.087 C 
ATOM     25  C   UNL     1      35.235 -22.983 -15.010  0.00  0.00    +0.143 C 
ATOM     26  C   UNL     1      37.641 -23.208 -15.029  0.00  0.00    +0.003 C 
ATOM     27  C   UNL     1      37.554 -24.215 -14.067  0.00  0.00    -0.022 C 
ATOM     28  C   UNL     1      35.148 -23.990 -14.049  0.00  0.00    +0.037 C 
ATOM     29  C   UNL     1      36.307 -24.606 -13.577  0.00  0.00    -0.001 C 
ATOM     30  C   UNL     1      38.792 -24.874 -13.563  0.00  0.00    +0.031 C 
BRANCH  25  31
ATOM     31  O   UNL     1      34.091 -22.392 -15.458  0.00  0.00    -0.472 OA
BRANCH  31  32
ATOM     32  C   UNL     1      32.885 -23.144 -15.340  0.00  0.00    +0.243 C 
BRANCH  32  34
ATOM     33  F   UNL     1      32.685 -22.218 -17.475  0.00  0.00    -0.230 F 
ATOM     34  C   UNL     1      31.948 -22.737 -16.455  0.00  0.00    +0.240 C 
ENDBRANCH  32  34
ENDBRANCH  31  32
ENDBRANCH  25  31
ENDBRANCH  22  24
ENDBRANCH  19  21
ENDBRANCH  18  19
ENDBRANCH   1  18
TORSDOF 11
ENDMDL
MODEL 4
REMARK VINA RESULT:     -11.4      2.634     10.859
REMARK  Name = 16737780
REMARK  11 active torsions:
REMARK  status: ('A' for Active; 'I' for Inactive)
REMARK    1  A    between atoms: C_1  and  C_2
REMARK    2  A    between atoms: C_1  and  C_18
REMARK    3  A    between atoms: C_2  and  N_3
REMARK    4  A    between atoms: C_11  and  O_14
REMARK    5  A    between atoms: C_12  and  O_16
REMARK    6  A    between atoms: C_18  and  C_19
REMARK    7  A    between atoms: C_19  and  N_21
REMARK    8  A    between atoms: C_22  and  C_24
REMARK    9  A    between atoms: C_25  and  O_31
REMARK   10  A    between atoms: O_31  and  C_32
REMARK   11  A    between atoms: C_32  and  C_34
REMARK                            x       y       z     vdW  Elec       q    Type
REMARK                         _______ _______ _______ _____ _____    ______ ____
ROOT
ATOM      1  C   UNL     1      35.721 -20.161 -19.845  0.00  0.00    -0.021 C 
ENDROOT
BRANCH   1   2
ATOM      2  C   UNL     1      34.749 -21.261 -19.413  0.00  0.00    -0.077 C 
BRANCH   2   3
ATOM      3  N   UNL     1      35.163 -21.895 -18.161  0.00  0.00    +0.390 N 
ATOM      4  C   UNL     1      36.206 -21.106 -17.495  0.00  0.00    -0.072 C 
ATOM      5  C   UNL     1      34.005 -22.066 -17.266  0.00  0.00    -0.050 C 
ATOM      6  C   UNL     1      36.769 -21.886 -16.303  0.00  0.00    +0.003 C 
ATOM      7  C   UNL     1      34.377 -22.589 -15.898  0.00  0.00    -0.044 C 
ATOM      8  C   UNL     1      35.693 -22.461 -15.420  0.00  0.00    -0.027 C 
ATOM      9  C   UNL     1      33.393 -23.147 -15.071  0.00  0.00    +0.033 C 
ATOM     10  C   UNL     1      36.014 -22.929 -14.138  0.00  0.00    +0.035 C 
ATOM     11  C   UNL     1      33.720 -23.600 -13.793  0.00  0.00    +0.172 C 
ATOM     12  C   UNL     1      35.028 -23.493 -13.328  0.00  0.00    +0.172 C 
ATOM     13  H   UNL     1      35.546 -22.814 -18.381  0.00  0.00    -0.079 HD
BRANCH  11  14
ATOM     14  O   UNL     1      32.750 -24.146 -13.008  0.00  0.00    -0.468 OA
ATOM     15  C   UNL     1      31.417 -24.126 -13.517  0.00  0.00    +0.253 C 
ENDBRANCH  11  14
BRANCH  12  16
ATOM     16  O   UNL     1      35.360 -23.936 -12.083  0.00  0.00    -0.468 OA
ATOM     17  C   UNL     1      36.396 -24.913 -11.998  0.00  0.00    +0.253 C 
ENDBRANCH  12  16
ENDBRANCH   2   3
ENDBRANCH   1   2
BRANCH   1  18
ATOM     18  C   UNL     1      35.180 -19.299 -20.993  0.00  0.00    +0.019 C 
BRANCH  18  19
ATOM     19  C   UNL     1      36.128 -18.162 -21.362  0.00  0.00    +0.090 C 
BRANCH  19  21
ATOM     20  O   UNL     1      34.448 -16.012 -20.469  0.00  0.00    -0.270 OA
ATOM     21  N   UNL     1      35.500 -17.166 -22.185  0.00  0.00    -0.301 N 
ATOM     22  C   UNL     1      34.699 -16.156 -21.663  0.00  0.00    +0.249 C 
ATOM     23  H   UNL     1      35.642 -17.199 -23.158  0.00  0.00    +0.150 HD
BRANCH  22  24
ATOM     24  C   UNL     1      34.100 -15.220 -22.648  0.00  0.00    +0.087 C 
ATOM     25  C   UNL     1      33.867 -15.618 -23.964  0.00  0.00    +0.143 C 
ATOM     26  C   UNL     1      33.769 -13.927 -22.241  0.00  0.00    +0.003 C 
ATOM     27  C   UNL     1      33.204 -13.033 -23.151  0.00  0.00    -0.022 C 
ATOM     28  C   UNL     1      33.302 -14.724 -24.874  0.00  0.00    +0.037 C 
ATOM     29  C   UNL     1      32.972 -13.432 -24.468  0.00  0.00    -0.001 C 
ATOM     30  C   UNL     1      32.850 -11.651 -22.717  0.00  0.00    +0.031 C 
BRANCH  25  31
ATOM     31  O   UNL     1      34.185 -16.877 -24.381  0.00  0.00    -0.472 OA
BRANCH  31  32
ATOM     32  C   UNL     1      33.102 -17.735 -24.732  0.00  0.00    +0.243 C 
BRANCH  32  34
ATOM     33  F   UNL     1      34.260 -19.731 -24.369  0.00  0.00    -0.230 F 
ATOM     34  C   UNL     1      33.203 -19.004 -23.915  0.00  0.00    +0.240 C 
ENDBRANCH  32  34
ENDBRANCH  31  32
ENDBRANCH  25  31
ENDBRANCH  22  24
ENDBRANCH  19  21
ENDBRANCH  18  19
ENDBRANCH   1  18
TORSDOF 11
ENDMDL
MODEL 5
REMARK VINA RESULT:     -11.4      2.853     10.413
REMARK  Name = 16737780
REMARK  11 active torsions:
REMARK  status: ('A' for Active; 'I' for Inactive)
REMARK    1  A    between atoms: C_1  and  C_2
REMARK    2  A    between atoms: C_1  and  C_18
REMARK    3  A    between atoms: C_2  and  N_3
REMARK    4  A    between atoms: C_11  and  O_14
REMARK    5  A    between atoms: C_12  and  O_16
REMARK    6  A    between atoms: C_18  and  C_19
REMARK    7  A    between atoms: C_19  and  N_21
REMARK    8  A    between atoms: C_22  and  C_24
REMARK    9  A    between atoms: C_25  and  O_31
REMARK   10  A    between atoms: O_31  and  C_32
REMARK   11  A    between atoms: C_32  and  C_34
REMARK                            x       y       z     vdW  Elec       q    Type
REMARK                         _______ _______ _______ _____ _____    ______ ____
ROOT
ATOM      1  C   UNL     1      35.122 -17.421 -22.555  0.00  0.00    -0.021 C 
ENDROOT
BRANCH   1   2
ATOM      2  C   UNL     1      34.171 -18.620 -22.532  0.00  0.00    -0.077 C 
BRANCH   2   3
ATOM      3  N   UNL     1      34.538 -19.589 -21.500  0.00  0.00    +0.390 N 
ATOM      4  C   UNL     1      35.602 -19.060 -20.640  0.00  0.00    -0.072 C 
ATOM      5  C   UNL     1      33.360 -19.947 -20.691  0.00  0.00    -0.050 C 
ATOM      6  C   UNL     1      36.113 -20.160 -19.705  0.00  0.00    +0.003 C 
ATOM      7  C   UNL     1      33.689 -20.841 -19.517  0.00  0.00    -0.044 C 
ATOM      8  C   UNL     1      35.001 -20.907 -19.017  0.00  0.00    -0.027 C 
ATOM      9  C   UNL     1      32.669 -21.560 -18.879  0.00  0.00    +0.033 C 
ATOM     10  C   UNL     1      35.281 -21.721 -17.911  0.00  0.00    +0.035 C 
ATOM     11  C   UNL     1      32.957 -22.359 -17.772  0.00  0.00    +0.172 C 
ATOM     12  C   UNL     1      34.261 -22.441 -17.290  0.00  0.00    +0.172 C 
ATOM     13  H   UNL     1      34.886 -20.430 -21.963  0.00  0.00    -0.079 HD
BRANCH  11  14
ATOM     14  O   UNL     1      31.952 -23.055 -17.171  0.00  0.00    -0.468 OA
ATOM     15  C   UNL     1      30.932 -22.294 -16.526  0.00  0.00    +0.253 C 
ENDBRANCH  11  14
BRANCH  12  16
ATOM     16  O   UNL     1      34.554 -23.222 -16.213  0.00  0.00    -0.468 OA
ATOM     17  C   UNL     1      35.691 -22.851 -15.436  0.00  0.00    +0.253 C 
ENDBRANCH  12  16
ENDBRANCH   2   3
ENDBRANCH   1   2
BRANCH   1  18
ATOM     18  C   UNL     1      34.392 -16.079 -22.683  0.00  0.00    +0.019 C 
BRANCH  18  19
ATOM     19  C   UNL     1      34.272 -15.352 -21.347  0.00  0.00    +0.090 C 
BRANCH  19  21
ATOM     20  O   UNL     1      32.064 -14.343 -19.815  0.00  0.00    -0.270 OA
ATOM     21  N   UNL     1      33.659 -14.059 -21.475  0.00  0.00    -0.301 N 
ATOM     22  C   UNL     1      32.589 -13.654 -20.686  0.00  0.00    +0.249 C 
ATOM     23  H   UNL     1      34.013 -13.434 -22.148  0.00  0.00    +0.150 HD
BRANCH  22  24
ATOM     24  C   UNL     1      32.051 -12.296 -20.959  0.00  0.00    +0.087 C 
ATOM     25  C   UNL     1      31.791 -11.879 -22.264  0.00  0.00    +0.143 C 
ATOM     26  C   UNL     1      31.804 -11.436 -19.889  0.00  0.00    +0.003 C 
ATOM     27  C   UNL     1      31.297 -10.158 -20.125  0.00  0.00    -0.022 C 
ATOM     28  C   UNL     1      31.285 -10.601 -22.500  0.00  0.00    +0.037 C 
ATOM     29  C   UNL     1      31.038  -9.740 -21.431  0.00  0.00    -0.001 C 
ATOM     30  C   UNL     1      31.033  -9.238 -18.982  0.00  0.00    +0.031 C 
BRANCH  25  31
ATOM     31  O   UNL     1      32.028 -12.705 -23.323  0.00  0.00    -0.472 OA
BRANCH  31  32
ATOM     32  C   UNL     1      32.875 -12.207 -24.356  0.00  0.00    +0.243 C 
BRANCH  32  34
ATOM     33  F   UNL     1      32.221 -12.489 -26.580  0.00  0.00    -0.230 F 
ATOM     34  C   UNL     1      32.802 -13.146 -25.539  0.00  0.00    +0.240 C 
ENDBRANCH  32  34
ENDBRANCH  31  32
ENDBRANCH  25  31
ENDBRANCH  22  24
ENDBRANCH  19  21
ENDBRANCH  18  19
ENDBRANCH   1  18
TORSDOF 11
ENDMDL
MODEL 6
REMARK VINA RESULT:     -11.3      2.139      3.219
REMARK  Name = 16737780
REMARK  11 active torsions:
REMARK  status: ('A' for Active; 'I' for Inactive)
REMARK    1  A    between atoms: C_1  and  C_2
REMARK    2  A    between atoms: C_1  and  C_18
REMARK    3  A    between atoms: C_2  and  N_3
REMARK    4  A    between atoms: C_11  and  O_14
REMARK    5  A    between atoms: C_12  and  O_16
REMARK    6  A    between atoms: C_18  and  C_19
REMARK    7  A    between atoms: C_19  and  N_21
REMARK    8  A    between atoms: C_22  and  C_24
REMARK    9  A    between atoms: C_25  and  O_31
REMARK   10  A    between atoms: O_31  and  C_32
REMARK   11  A    between atoms: C_32  and  C_34
REMARK                            x       y       z     vdW  Elec       q    Type
REMARK                         _______ _______ _______ _____ _____    ______ ____
ROOT
ATOM      1  C   UNL     1      34.621 -20.061 -20.934  0.00  0.00    -0.021 C 
ENDROOT
BRANCH   1   2
ATOM      2  C   UNL     1      35.651 -18.930 -20.909  0.00  0.00    -0.077 C 
BRANCH   2   3
ATOM      3  N   UNL     1      35.315 -17.863 -21.852  0.00  0.00    +0.390 N 
ATOM      4  C   UNL     1      34.433 -18.362 -22.913  0.00  0.00    -0.072 C 
ATOM      5  C   UNL     1      34.676 -16.738 -21.146  0.00  0.00    -0.050 C 
ATOM      6  C   UNL     1      34.263 -17.292 -23.996  0.00  0.00    +0.003 C 
ATOM      7  C   UNL     1      34.176 -15.655 -22.074  0.00  0.00    -0.044 C 
ATOM      8  C   UNL     1      33.935 -15.935 -23.431  0.00  0.00    -0.027 C 
ATOM      9  C   UNL     1      33.886 -14.380 -21.570  0.00  0.00    +0.033 C 
ATOM     10  C   UNL     1      33.445 -14.925 -24.271  0.00  0.00    +0.035 C 
ATOM     11  C   UNL     1      33.389 -13.385 -22.411  0.00  0.00    +0.172 C 
ATOM     12  C   UNL     1      33.171 -13.656 -23.760  0.00  0.00    +0.172 C 
ATOM     13  H   UNL     1      36.180 -17.533 -22.281  0.00  0.00    -0.079 HD
BRANCH  11  14
ATOM     14  O   UNL     1      33.121 -12.151 -21.902  0.00  0.00    -0.468 OA
ATOM     15  C   UNL     1      31.846 -11.965 -21.289  0.00  0.00    +0.253 C 
ENDBRANCH  11  14
BRANCH  12  16
ATOM     16  O   UNL     1      32.691 -12.691 -24.592  0.00  0.00    -0.468 OA
ATOM     17  C   UNL     1      32.645 -13.000 -25.984  0.00  0.00    +0.253 C 
ENDBRANCH  12  16
ENDBRANCH   2   3
ENDBRANCH   1   2
BRANCH   1  18
ATOM     18  C   UNL     1      33.427 -19.805 -20.006  0.00  0.00    +0.019 C 
BRANCH  18  19
ATOM     19  C   UNL     1      32.570 -21.051 -19.804  0.00  0.00    +0.090 C 
BRANCH  19  21
ATOM     20  O   UNL     1      33.224 -23.530 -18.512  0.00  0.00    -0.270 OA
ATOM     21  N   UNL     1      32.380 -21.372 -18.417  0.00  0.00    -0.301 N 
ATOM     22  C   UNL     1      32.728 -22.604 -17.875  0.00  0.00    +0.249 C 
ATOM     23  H   UNL     1      31.987 -20.690 -17.825  0.00  0.00    +0.150 HD
BRANCH  22  24
ATOM     24  C   UNL     1      32.443 -22.788 -16.429  0.00  0.00    +0.087 C 
ATOM     25  C   UNL     1      31.142 -22.680 -15.937  0.00  0.00    +0.143 C 
ATOM     26  C   UNL     1      33.496 -23.075 -15.561  0.00  0.00    +0.003 C 
ATOM     27  C   UNL     1      33.249 -23.253 -14.200  0.00  0.00    -0.022 C 
ATOM     28  C   UNL     1      30.895 -22.858 -14.576  0.00  0.00    +0.037 C 
ATOM     29  C   UNL     1      31.947 -23.144 -13.707  0.00  0.00    -0.001 C 
ATOM     30  C   UNL     1      34.373 -23.559 -13.271  0.00  0.00    +0.031 C 
BRANCH  25  31
ATOM     31  O   UNL     1      30.100 -22.399 -16.770  0.00  0.00    -0.472 OA
BRANCH  31  32
ATOM     32  C   UNL     1      28.828 -22.183 -16.164  0.00  0.00    +0.243 C 
BRANCH  32  34
ATOM     33  F   UNL     1      27.099 -22.867 -17.578  0.00  0.00    -0.230 F 
ATOM     34  C   UNL     1      27.900 -23.307 -16.569  0.00  0.00    +0.240 C 
ENDBRANCH  32  34
ENDBRANCH  31  32
ENDBRANCH  25  31
ENDBRANCH  22  24
ENDBRANCH  19  21
ENDBRANCH  18  19
ENDBRANCH   1  18
TORSDOF 11
ENDMDL
MODEL 7
REMARK VINA RESULT:     -11.3      2.565     10.709
REMARK  Name = 16737780
REMARK  11 active torsions:
REMARK  status: ('A' for Active; 'I' for Inactive)
REMARK    1  A    between atoms: C_1  and  C_2
REMARK    2  A    between atoms: C_1  and  C_18
REMARK    3  A    between atoms: C_2  and  N_3
REMARK    4  A    between atoms: C_11  and  O_14
REMARK    5  A    between atoms: C_12  and  O_16
REMARK    6  A    between atoms: C_18  and  C_19
REMARK    7  A    between atoms: C_19  and  N_21
REMARK    8  A    between atoms: C_22  and  C_24
REMARK    9  A    between atoms: C_25  and  O_31
REMARK   10  A    between atoms: O_31  and  C_32
REMARK   11  A    between atoms: C_32  and  C_34
REMARK                            x       y       z     vdW  Elec       q    Type
REMARK                         _______ _______ _______ _____ _____    ______ ____
ROOT
ATOM      1  C   UNL     1      34.718 -19.757 -20.496  0.00  0.00    -0.021 C 
ENDROOT
BRANCH   1   2
ATOM      2  C   UNL     1      35.456 -20.793 -19.645  0.00  0.00    -0.077 C 
BRANCH   2   3
ATOM      3  N   UNL     1      34.670 -21.205 -18.482  0.00  0.00    +0.390 N 
ATOM      4  C   UNL     1      33.681 -22.223 -18.854  0.00  0.00    -0.072 C 
ATOM      5  C   UNL     1      35.555 -21.718 -17.421  0.00  0.00    -0.050 C 
ATOM      6  C   UNL     1      32.737 -22.487 -17.677  0.00  0.00    +0.003 C 
ATOM      7  C   UNL     1      34.805 -22.291 -16.241  0.00  0.00    -0.044 C 
ATOM      8  C   UNL     1      33.467 -22.701 -16.377  0.00  0.00    -0.027 C 
ATOM      9  C   UNL     1      35.463 -22.477 -15.018  0.00  0.00    +0.033 C 
ATOM     10  C   UNL     1      32.796 -23.254 -15.278  0.00  0.00    +0.035 C 
ATOM     11  C   UNL     1      34.790 -23.038 -13.933  0.00  0.00    +0.172 C 
ATOM     12  C   UNL     1      33.458 -23.424 -14.062  0.00  0.00    +0.172 C 
ATOM     13  H   UNL     1      34.173 -20.387 -18.128  0.00  0.00    -0.079 HD
BRANCH  11  14
ATOM     14  O   UNL     1      35.446 -23.203 -12.751  0.00  0.00    -0.468 OA
ATOM     15  C   UNL     1      36.857 -22.986 -12.757  0.00  0.00    +0.253 C 
ENDBRANCH  11  14
BRANCH  12  16
ATOM     16  O   UNL     1      32.789 -23.970 -13.008  0.00  0.00    -0.468 OA
ATOM     17  C   UNL     1      31.518 -24.557 -13.282  0.00  0.00    +0.253 C 
ENDBRANCH  12  16
ENDBRANCH   2   3
ENDBRANCH   1   2
BRANCH   1  18
ATOM     18  C   UNL     1      35.533 -19.285 -21.706  0.00  0.00    +0.019 C 
BRANCH  18  19
ATOM     19  C   UNL     1      36.096 -17.880 -21.516  0.00  0.00    +0.090 C 
BRANCH  19  21
ATOM     20  O   UNL     1      34.356 -15.749 -20.693  0.00  0.00    -0.270 OA
ATOM     21  N   UNL     1      35.463 -16.911 -22.368  0.00  0.00    -0.301 N 
ATOM     22  C   UNL     1      34.632 -15.910 -21.880  0.00  0.00    +0.249 C 
ATOM     23  H   UNL     1      35.625 -16.959 -23.338  0.00  0.00    +0.150 HD
BRANCH  22  24
ATOM     24  C   UNL     1      34.034 -15.003 -22.893  0.00  0.00    +0.087 C 
ATOM     25  C   UNL     1      33.756 -15.456 -24.182  0.00  0.00    +0.143 C 
ATOM     26  C   UNL     1      33.747 -13.685 -22.539  0.00  0.00    +0.003 C 
ATOM     27  C   UNL     1      33.183 -12.819 -23.475  0.00  0.00    -0.022 C 
ATOM     28  C   UNL     1      33.192 -14.590 -25.119  0.00  0.00    +0.037 C 
ATOM     29  C   UNL     1      32.906 -13.271 -24.766  0.00  0.00    -0.001 C 
ATOM     30  C   UNL     1      32.878 -11.409 -23.099  0.00  0.00    +0.031 C 
BRANCH  25  31
ATOM     31  O   UNL     1      34.030 -16.741 -24.547  0.00  0.00    -0.472 OA
BRANCH  31  32
ATOM     32  C   UNL     1      32.916 -17.582 -24.836  0.00  0.00    +0.243 C 
BRANCH  32  34
ATOM     33  F   UNL     1      34.058 -19.613 -24.668  0.00  0.00    -0.230 F 
ATOM     34  C   UNL     1      33.076 -18.879 -24.075  0.00  0.00    +0.240 C 
ENDBRANCH  32  34
ENDBRANCH  31  32
ENDBRANCH  25  31
ENDBRANCH  22  24
ENDBRANCH  19  21
ENDBRANCH  18  19
ENDBRANCH   1  18
TORSDOF 11
ENDMDL
MODEL 8
REMARK VINA RESULT:     -11.2      2.726     10.666
REMARK  Name = 16737780
REMARK  11 active torsions:
REMARK  status: ('A' for Active; 'I' for Inactive)
REMARK    1  A    between atoms: C_1  and  C_2
REMARK    2  A    between atoms: C_1  and  C_18
REMARK    3  A    between atoms: C_2  and  N_3
REMARK    4  A    between atoms: C_11  and  O_14
REMARK    5  A    between atoms: C_12  and  O_16
REMARK    6  A    between atoms: C_18  and  C_19
REMARK    7  A    between atoms: C_19  and  N_21
REMARK    8  A    between atoms: C_22  and  C_24
REMARK    9  A    between atoms: C_25  and  O_31
REMARK   10  A    between atoms: O_31  and  C_32
REMARK   11  A    between atoms: C_32  and  C_34
REMARK                            x       y       z     vdW  Elec       q    Type
REMARK                         _______ _______ _______ _____ _____    ______ ____
ROOT
ATOM      1  C   UNL     1      34.246 -19.376 -20.640  0.00  0.00    -0.021 C 
ENDROOT
BRANCH   1   2
ATOM      2  C   UNL     1      35.227 -20.422 -20.104  0.00  0.00    -0.077 C 
BRANCH   2   3
ATOM      3  N   UNL     1      34.828 -20.922 -18.789  0.00  0.00    +0.390 N 
ATOM      4  C   UNL     1      33.901 -22.053 -18.920  0.00  0.00    -0.072 C 
ATOM      5  C   UNL     1      36.014 -21.323 -18.012  0.00  0.00    -0.050 C 
ATOM      6  C   UNL     1      33.337 -22.426 -17.546  0.00  0.00    +0.003 C 
ATOM      7  C   UNL     1      35.672 -21.979 -16.694  0.00  0.00    -0.044 C 
ATOM      8  C   UNL     1      34.402 -22.547 -16.488  0.00  0.00    -0.027 C 
ATOM      9  C   UNL     1      36.645 -22.082 -15.691  0.00  0.00    +0.033 C 
ATOM     10  C   UNL     1      34.113 -23.175 -15.269  0.00  0.00    +0.035 C 
ATOM     11  C   UNL     1      36.350 -22.718 -14.485  0.00  0.00    +0.172 C 
ATOM     12  C   UNL     1      35.086 -23.261 -14.273  0.00  0.00    +0.172 C 
ATOM     13  H   UNL     1      34.349 -20.169 -18.294  0.00  0.00    -0.079 HD
BRANCH  11  14
ATOM     14  O   UNL     1      37.309 -22.800 -13.521  0.00  0.00    -0.468 OA
ATOM     15  C   UNL     1      37.889 -24.084 -13.291  0.00  0.00    +0.253 C 
ENDBRANCH  11  14
BRANCH  12  16
ATOM     16  O   UNL     1      34.785 -23.881 -13.098  0.00  0.00    -0.468 OA
ATOM     17  C   UNL     1      33.448 -23.748 -12.620  0.00  0.00    +0.253 C 
ENDBRANCH  12  16
ENDBRANCH   2   3
ENDBRANCH   1   2
BRANCH   1  18
ATOM     18  C   UNL     1      34.742 -18.687 -21.917  0.00  0.00    +0.019 C 
BRANCH  18  19
ATOM     19  C   UNL     1      35.545 -17.424 -21.622  0.00  0.00    +0.090 C 
BRANCH  19  21
ATOM     20  O   UNL     1      34.117 -15.629 -19.894  0.00  0.00    -0.270 OA
ATOM     21  N   UNL     1      34.853 -16.226 -22.012  0.00  0.00    -0.301 N 
ATOM     22  C   UNL     1      34.185 -15.414 -21.102  0.00  0.00    +0.249 C 
ATOM     23  H   UNL     1      34.852 -15.970 -22.962  0.00  0.00    +0.150 HD
BRANCH  22  24
ATOM     24  C   UNL     1      33.497 -14.226 -21.668  0.00  0.00    +0.087 C 
ATOM     25  C   UNL     1      33.477 -13.997 -23.043  0.00  0.00    +0.143 C 
ATOM     26  C   UNL     1      32.861 -13.334 -20.803  0.00  0.00    +0.003 C 
ATOM     27  C   UNL     1      32.208 -12.214 -21.314  0.00  0.00    -0.022 C 
ATOM     28  C   UNL     1      32.823 -12.877 -23.555  0.00  0.00    +0.037 C 
ATOM     29  C   UNL     1      32.189 -11.984 -22.691  0.00  0.00    -0.001 C 
ATOM     30  C   UNL     1      31.530 -11.259 -20.392  0.00  0.00    +0.031 C 
BRANCH  25  31
ATOM     31  O   UNL     1      34.093 -14.857 -23.904  0.00  0.00    -0.472 OA
BRANCH  31  32
ATOM     32  C   UNL     1      33.269 -15.506 -24.870  0.00  0.00    +0.243 C 
BRANCH  32  34
ATOM     33  F   UNL     1      32.266 -17.606 -25.062  0.00  0.00    -0.230 F 
ATOM     34  C   UNL     1      33.439 -17.002 -24.728  0.00  0.00    +0.240 C 
ENDBRANCH  32  34
ENDBRANCH  31  32
ENDBRANCH  25  31
ENDBRANCH  22  24
ENDBRANCH  19  21
ENDBRANCH  18  19
ENDBRANCH   1  18
TORSDOF 11
ENDMDL
MODEL 9
REMARK VINA RESULT:     -11.1      2.556     10.678
REMARK  Name = 16737780
REMARK  11 active torsions:
REMARK  status: ('A' for Active; 'I' for Inactive)
REMARK    1  A    between atoms: C_1  and  C_2
REMARK    2  A    between atoms: C_1  and  C_18
REMARK    3  A    between atoms: C_2  and  N_3
REMARK    4  A    between atoms: C_11  and  O_14
REMARK    5  A    between atoms: C_12  and  O_16
REMARK    6  A    between atoms: C_18  and  C_19
REMARK    7  A    between atoms: C_19  and  N_21
REMARK    8  A    between atoms: C_22  and  C_24
REMARK    9  A    between atoms: C_25  and  O_31
REMARK   10  A    between atoms: O_31  and  C_32
REMARK   11  A    between atoms: C_32  and  C_34
REMARK                            x       y       z     vdW  Elec       q    Type
REMARK                         _______ _______ _______ _____ _____    ______ ____
ROOT
ATOM      1  C   UNL     1      36.397 -19.026 -20.577  0.00  0.00    -0.021 C 
ENDROOT
BRANCH   1   2
ATOM      2  C   UNL     1      35.240 -20.021 -20.693  0.00  0.00    -0.077 C 
BRANCH   2   3
ATOM      3  N   UNL     1      34.825 -20.532 -19.387  0.00  0.00    +0.390 N 
ATOM      4  C   UNL     1      33.808 -21.580 -19.536  0.00  0.00    -0.072 C 
ATOM      5  C   UNL     1      35.988 -21.052 -18.646  0.00  0.00    -0.050 C 
ATOM      6  C   UNL     1      33.239 -21.953 -18.163  0.00  0.00    +0.003 C 
ATOM      7  C   UNL     1      35.616 -21.722 -17.344  0.00  0.00    -0.044 C 
ATOM      8  C   UNL     1      34.309 -22.194 -17.131  0.00  0.00    -0.027 C 
ATOM      9  C   UNL     1      36.595 -21.936 -16.363  0.00  0.00    +0.033 C 
ATOM     10  C   UNL     1      33.991 -22.837 -15.928  0.00  0.00    +0.035 C 
ATOM     11  C   UNL     1      36.271 -22.586 -15.173  0.00  0.00    +0.172 C 
ATOM     12  C   UNL     1      34.970 -23.034 -14.954  0.00  0.00    +0.172 C 
ATOM     13  H   UNL     1      34.416 -19.760 -18.859  0.00  0.00    -0.079 HD
BRANCH  11  14
ATOM     14  O   UNL     1      37.236 -22.777 -14.231  0.00  0.00    -0.468 OA
ATOM     15  C   UNL     1      38.007 -23.973 -14.325  0.00  0.00    +0.253 C 
ENDBRANCH  11  14
BRANCH  12  16
ATOM     16  O   UNL     1      34.641 -23.666 -13.793  0.00  0.00    -0.468 OA
ATOM     17  C   UNL     1      33.295 -24.121 -13.663  0.00  0.00    +0.253 C 
ENDBRANCH  12  16
ENDBRANCH   2   3
ENDBRANCH   1   2
BRANCH   1  18
ATOM     18  C   UNL     1      36.444 -18.023 -21.735  0.00  0.00    +0.019 C 
BRANCH  18  19
ATOM     19  C   UNL     1      35.155 -18.016 -22.551  0.00  0.00    +0.090 C 
BRANCH  19  21
ATOM     20  O   UNL     1      33.532 -17.204 -24.776  0.00  0.00    -0.270 OA
ATOM     21  N   UNL     1      34.687 -16.686 -22.832  0.00  0.00    -0.301 N 
ATOM     22  C   UNL     1      33.901 -16.384 -23.938  0.00  0.00    +0.249 C 
ATOM     23  H   UNL     1      34.932 -15.960 -22.215  0.00  0.00    +0.150 HD
BRANCH  22  24
ATOM     24  C   UNL     1      33.521 -14.958 -24.101  0.00  0.00    +0.087 C 
ATOM     25  C   UNL     1      33.516 -14.089 -23.011  0.00  0.00    +0.143 C 
ATOM     26  C   UNL     1      33.167 -14.491 -25.368  0.00  0.00    +0.003 C 
ATOM     27  C   UNL     1      32.809 -13.154 -25.542  0.00  0.00    -0.022 C 
ATOM     28  C   UNL     1      33.158 -12.753 -23.185  0.00  0.00    +0.037 C 
ATOM     29  C   UNL     1      32.803 -12.285 -24.450  0.00  0.00    -0.001 C 
ATOM     30  C   UNL     1      32.430 -12.653 -26.894  0.00  0.00    +0.031 C 
BRANCH  25  31
ATOM     31  O   UNL     1      33.858 -14.528 -21.766  0.00  0.00    -0.472 OA
BRANCH  31  32
ATOM     32  C   UNL     1      33.732 -13.596 -20.694  0.00  0.00    +0.243 C 
BRANCH  32  34
ATOM     33  F   UNL     1      31.965 -14.674 -19.613  0.00  0.00    -0.230 F 
ATOM     34  C   UNL     1      32.280 -13.528 -20.277  0.00  0.00    +0.240 C 
ENDBRANCH  32  34
ENDBRANCH  31  32
ENDBRANCH  25  31
ENDBRANCH  22  24
ENDBRANCH  19  21
ENDBRANCH  18  19
ENDBRANCH   1  18
TORSDOF 11
ENDMDL
