MODEL 1
REMARK VINA RESULT:     -11.9      0.000      0.000
REMARK  Name = 44629554
REMARK  5 active torsions:
REMARK  status: ('A' for Active; 'I' for Inactive)
REMARK    1  A    between atoms: C_5  and  C_30
REMARK    2  A    between atoms: C_6  and  N_18
REMARK    3  A    between atoms: C_7  and  C_12
REMARK    4  A    between atoms: N_18  and  C_20
REMARK    5  A    between atoms: C_20  and  C_24
REMARK                            x       y       z     vdW  Elec       q    Type
REMARK                         _______ _______ _______ _____ _____    ______ ____
ROOT
ATOM      1  N   UNL     1      32.495 -22.756 -16.233  0.00  0.00    -0.152 N 
ATOM      2  N   UNL     1      34.864 -23.168 -16.091  0.00  0.00    -0.389 NA
ATOM      3  N   UNL     1      31.589 -22.191 -17.079  0.00  0.00    -0.174 NA
ATOM      4  C   UNL     1      33.787 -22.671 -16.756  0.00  0.00    +0.189 C 
ATOM      5  C   UNL     1      33.678 -22.030 -17.968  0.00  0.00    +0.112 C 
ATOM      6  C   UNL     1      32.250 -23.355 -14.987  0.00  0.00    +0.126 C 
ATOM      7  C   UNL     1      34.636 -23.738 -14.942  0.00  0.00    +0.140 C 
ATOM      8  C   UNL     1      33.290 -23.859 -14.300  0.00  0.00    +0.064 C 
ATOM      9  C   UNL     1      32.312 -21.762 -18.112  0.00  0.00    +0.100 C 
ENDROOT
BRANCH   7  12
ATOM     10  F   UNL     1      35.733 -26.278 -15.496  0.00  0.00    -0.204 F 
ATOM     11  F   UNL     1      35.891 -22.351 -12.828  0.00  0.00    -0.204 F 
ATOM     12  C   UNL     1      35.783 -24.300 -14.181  0.00  0.00    +0.085 C 
ATOM     13  C   UNL     1      36.281 -25.562 -14.504  0.00  0.00    +0.145 C 
ATOM     14  C   UNL     1      36.362 -23.566 -13.147  0.00  0.00    +0.145 C 
ATOM     15  C   UNL     1      37.358 -26.091 -13.791  0.00  0.00    +0.030 C 
ATOM     16  C   UNL     1      37.438 -24.094 -12.434  0.00  0.00    +0.030 C 
ATOM     17  C   UNL     1      37.936 -25.356 -12.756  0.00  0.00    +0.005 C 
ENDBRANCH   7  12
BRANCH   6  18
ATOM     18  N   UNL     1      30.958 -23.382 -14.543  0.00  0.00    -0.316 N 
ATOM     19  H   UNL     1      30.704 -22.777 -13.810  0.00  0.00    +0.148 HD
BRANCH  18  20
ATOM     20  C   UNL     1      29.951 -24.250 -15.094  0.00  0.00    +0.114 C 
BRANCH  20  24
ATOM     21  N   UNL     1      27.035 -23.184 -17.258  0.00  0.00    -0.181 NA
ATOM     22  N   UNL     1      27.438 -21.468 -15.616  0.00  0.00    -0.204 NA
ATOM     23  N   UNL     1      25.714 -21.246 -17.190  0.00  0.00    -0.303 N 
ATOM     24  C   UNL     1      28.813 -23.444 -15.656  0.00  0.00    +0.020 C 
ATOM     25  C   UNL     1      28.062 -23.882 -16.728  0.00  0.00    +0.106 C 
ATOM     26  C   UNL     1      28.453 -22.217 -15.136  0.00  0.00    +0.163 C 
ATOM     27  C   UNL     1      26.782 -22.004 -16.662  0.00  0.00    +0.084 C 
ATOM     28  H   UNL     1      25.198 -21.589 -17.956  0.00  0.00    +0.154 HD
ATOM     29  H   UNL     1      25.484 -20.375 -16.794  0.00  0.00    +0.154 HD
ENDBRANCH  20  24
ENDBRANCH  18  20
ENDBRANCH   6  18
BRANCH   5  30
ATOM     30  C   UNL     1      34.760 -21.699 -18.910  0.00  0.00    +0.015 C 
ATOM     31  C   UNL     1      34.398 -20.550 -19.860  0.00  0.00    +0.001 C 
ENDBRANCH   5  30
TORSDOF 5
ENDMDL
MODEL 2
REMARK VINA RESULT:     -11.6      2.771      7.547
REMARK  Name = 44629554
REMARK  5 active torsions:
REMARK  status: ('A' for Active; 'I' for Inactive)
REMARK    1  A    between atoms: C_5  and  C_30
REMARK    2  A    between atoms: C_6  and  N_18
REMARK    3  A    between atoms: C_7  and  C_12
REMARK    4  A    between atoms: N_18  and  C_20
REMARK    5  A    between atoms: C_20  and  C_24
REMARK                            x       y       z     vdW  Elec       q    Type
REMARK                         _______ _______ _______ _____ _____    ______ ____
ROOT
ATOM      1  N   UNL     1      34.922 -22.508 -15.160  0.00  0.00    -0.152 N 
ATOM      2  N   UNL     1      32.839 -22.734 -16.347  0.00  0.00    -0.389 NA
ATOM      3  N   UNL     1      36.210 -22.122 -15.386  0.00  0.00    -0.174 NA
ATOM      4  C   UNL     1      34.158 -22.405 -16.324  0.00  0.00    +0.189 C 
ATOM      5  C   UNL     1      35.001 -21.940 -17.306  0.00  0.00    +0.112 C 
ATOM      6  C   UNL     1      34.361 -22.966 -13.957  0.00  0.00    +0.126 C 
ATOM      7  C   UNL     1      32.314 -23.144 -15.228  0.00  0.00    +0.140 C 
ATOM      8  C   UNL     1      33.060 -23.299 -13.940  0.00  0.00    +0.064 C 
ATOM      9  C   UNL     1      36.240 -21.785 -16.674  0.00  0.00    +0.100 C 
ENDROOT
BRANCH   7  12
ATOM     10  F   UNL     1      30.374 -21.795 -16.770  0.00  0.00    -0.204 F 
ATOM     11  F   UNL     1      31.299 -25.243 -13.638  0.00  0.00    -0.204 F 
ATOM     12  C   UNL     1      30.873 -23.510 -15.205  0.00  0.00    +0.085 C 
ATOM     13  C   UNL     1      29.962 -22.805 -15.991  0.00  0.00    +0.145 C 
ATOM     14  C   UNL     1      30.433 -24.559 -14.398  0.00  0.00    +0.145 C 
ATOM     15  C   UNL     1      28.610 -23.148 -15.970  0.00  0.00    +0.030 C 
ATOM     16  C   UNL     1      29.081 -24.902 -14.377  0.00  0.00    +0.030 C 
ATOM     17  C   UNL     1      28.170 -24.197 -15.163  0.00  0.00    +0.005 C 
ENDBRANCH   7  12
BRANCH   6  18
ATOM     18  N   UNL     1      35.184 -23.051 -12.869  0.00  0.00    -0.316 N 
ATOM     19  H   UNL     1      35.488 -22.216 -12.447  0.00  0.00    +0.148 HD
BRANCH  18  20
ATOM     20  C   UNL     1      35.630 -24.301 -12.311  0.00  0.00    +0.114 C 
BRANCH  20  24
ATOM     21  N   UNL     1      39.246 -24.329 -13.426  0.00  0.00    -0.181 NA
ATOM     22  N   UNL     1      38.176 -26.324 -14.248  0.00  0.00    -0.204 NA
ATOM     23  N   UNL     1      40.439 -25.903 -14.694  0.00  0.00    -0.303 N 
ATOM     24  C   UNL     1      36.921 -24.731 -12.950  0.00  0.00    +0.020 C 
ATOM     25  C   UNL     1      38.072 -23.973 -12.865  0.00  0.00    +0.106 C 
ATOM     26  C   UNL     1      37.033 -25.908 -13.662  0.00  0.00    +0.163 C 
ATOM     27  C   UNL     1      39.227 -25.498 -14.093  0.00  0.00    +0.084 C 
ATOM     28  H   UNL     1      41.242 -25.337 -14.612  0.00  0.00    +0.154 HD
ATOM     29  H   UNL     1      40.483 -26.749 -15.194  0.00  0.00    +0.154 HD
ENDBRANCH  20  24
ENDBRANCH  18  20
ENDBRANCH   6  18
BRANCH   5  30
ATOM     30  C   UNL     1      34.674 -21.662 -18.715  0.00  0.00    +0.015 C 
ATOM     31  C   UNL     1      35.758 -20.849 -19.434  0.00  0.00    +0.001 C 
ENDBRANCH   5  30
TORSDOF 5
ENDMDL
MODEL 3
REMARK VINA RESULT:     -11.6      2.772      7.461
REMARK  Name = 44629554
REMARK  5 active torsions:
REMARK  status: ('A' for Active; 'I' for Inactive)
REMARK    1  A    between atoms: C_5  and  C_30
REMARK    2  A    between atoms: C_6  and  N_18
REMARK    3  A    between atoms: C_7  and  C_12
REMARK    4  A    between atoms: N_18  and  C_20
REMARK    5  A    between atoms: C_20  and  C_24
REMARK                            x       y       z     vdW  Elec       q    Type
REMARK                         _______ _______ _______ _____ _____    ______ ____
ROOT
ATOM      1  N   UNL     1      34.922 -22.507 -15.156  0.00  0.00    -0.152 N 
ATOM      2  N   UNL     1      32.841 -22.732 -16.346  0.00  0.00    -0.389 NA
ATOM      3  N   UNL     1      36.210 -22.121 -15.380  0.00  0.00    -0.174 NA
ATOM      4  C   UNL     1      34.160 -22.404 -16.321  0.00  0.00    +0.189 C 
ATOM      5  C   UNL     1      35.005 -21.939 -17.302  0.00  0.00    +0.112 C 
ATOM      6  C   UNL     1      34.358 -22.963 -13.953  0.00  0.00    +0.126 C 
ATOM      7  C   UNL     1      32.313 -23.142 -15.229  0.00  0.00    +0.140 C 
ATOM      8  C   UNL     1      33.057 -23.297 -13.939  0.00  0.00    +0.064 C 
ATOM      9  C   UNL     1      36.243 -21.784 -16.668  0.00  0.00    +0.100 C 
ENDROOT
BRANCH   7  12
ATOM     10  F   UNL     1      31.295 -25.238 -13.636  0.00  0.00    -0.204 F 
ATOM     11  F   UNL     1      30.377 -21.795 -16.778  0.00  0.00    -0.204 F 
ATOM     12  C   UNL     1      30.872 -23.507 -15.208  0.00  0.00    +0.085 C 
ATOM     13  C   UNL     1      30.430 -24.553 -14.398  0.00  0.00    +0.145 C 
ATOM     14  C   UNL     1      29.963 -22.803 -15.996  0.00  0.00    +0.145 C 
ATOM     15  C   UNL     1      29.077 -24.896 -14.378  0.00  0.00    +0.030 C 
ATOM     16  C   UNL     1      28.611 -23.145 -15.976  0.00  0.00    +0.030 C 
ATOM     17  C   UNL     1      28.168 -24.192 -15.167  0.00  0.00    +0.005 C 
ENDBRANCH   7  12
BRANCH   6  18
ATOM     18  N   UNL     1      35.179 -23.048 -12.864  0.00  0.00    -0.316 N 
ATOM     19  H   UNL     1      35.478 -22.213 -12.439  0.00  0.00    +0.148 HD
BRANCH  18  20
ATOM     20  C   UNL     1      35.629 -24.298 -12.309  0.00  0.00    +0.114 C 
BRANCH  20  24
ATOM     21  N   UNL     1      38.169 -26.312 -14.262  0.00  0.00    -0.181 NA
ATOM     22  N   UNL     1      39.245 -24.325 -13.427  0.00  0.00    -0.204 NA
ATOM     23  N   UNL     1      40.434 -25.891 -14.706  0.00  0.00    -0.303 N 
ATOM     24  C   UNL     1      36.919 -24.725 -12.953  0.00  0.00    +0.020 C 
ATOM     25  C   UNL     1      37.028 -25.898 -13.672  0.00  0.00    +0.106 C 
ATOM     26  C   UNL     1      38.071 -23.971 -12.862  0.00  0.00    +0.163 C 
ATOM     27  C   UNL     1      39.222 -25.490 -14.102  0.00  0.00    +0.084 C 
ATOM     28  H   UNL     1      40.476 -26.734 -15.212  0.00  0.00    +0.154 HD
ATOM     29  H   UNL     1      41.237 -25.328 -14.621  0.00  0.00    +0.154 HD
ENDBRANCH  20  24
ENDBRANCH  18  20
ENDBRANCH   6  18
BRANCH   5  30
ATOM     30  C   UNL     1      34.680 -21.663 -18.712  0.00  0.00    +0.015 C 
ATOM     31  C   UNL     1      35.760 -20.841 -19.426  0.00  0.00    +0.001 C 
ENDBRANCH   5  30
TORSDOF 5
ENDMDL
MODEL 4
REMARK VINA RESULT:     -11.5      2.591      7.506
REMARK  Name = 44629554
REMARK  5 active torsions:
REMARK  status: ('A' for Active; 'I' for Inactive)
REMARK    1  A    between atoms: C_5  and  C_30
REMARK    2  A    between atoms: C_6  and  N_18
REMARK    3  A    between atoms: C_7  and  C_12
REMARK    4  A    between atoms: N_18  and  C_20
REMARK    5  A    between atoms: C_20  and  C_24
REMARK                            x       y       z     vdW  Elec       q    Type
REMARK                         _______ _______ _______ _____ _____    ______ ____
ROOT
ATOM      1  N   UNL     1      32.436 -23.912 -13.902  0.00  0.00    -0.152 N 
ATOM      2  N   UNL     1      32.227 -22.637 -15.934  0.00  0.00    -0.389 NA
ATOM      3  N   UNL     1      31.650 -24.428 -12.915  0.00  0.00    -0.174 NA
ATOM      4  C   UNL     1      31.666 -23.237 -14.851  0.00  0.00    +0.189 C 
ATOM      5  C   UNL     1      30.357 -23.336 -14.437  0.00  0.00    +0.112 C 
ATOM      6  C   UNL     1      33.832 -23.996 -14.022  0.00  0.00    +0.126 C 
ATOM      7  C   UNL     1      33.520 -22.726 -16.054  0.00  0.00    +0.140 C 
ATOM      8  C   UNL     1      34.423 -23.416 -15.080  0.00  0.00    +0.064 C 
ATOM      9  C   UNL     1      30.411 -24.075 -13.250  0.00  0.00    +0.100 C 
ENDROOT
BRANCH   7  12
ATOM     10  F   UNL     1      32.145 -22.167 -18.454  0.00  0.00    -0.204 F 
ATOM     11  F   UNL     1      36.243 -21.981 -16.058  0.00  0.00    -0.204 F 
ATOM     12  C   UNL     1      34.177 -22.090 -17.227  0.00  0.00    +0.085 C 
ATOM     13  C   UNL     1      33.443 -21.838 -18.385  0.00  0.00    +0.145 C 
ATOM     14  C   UNL     1      35.527 -21.743 -17.167  0.00  0.00    +0.145 C 
ATOM     15  C   UNL     1      34.059 -21.240 -19.486  0.00  0.00    +0.030 C 
ATOM     16  C   UNL     1      36.143 -21.146 -18.267  0.00  0.00    +0.030 C 
ATOM     17  C   UNL     1      35.409 -20.894 -19.426  0.00  0.00    +0.005 C 
ENDBRANCH   7  12
BRANCH   6  18
ATOM     18  N   UNL     1      34.510 -24.662 -13.040  0.00  0.00    -0.316 N 
ATOM     19  H   UNL     1      34.215 -25.570 -12.803  0.00  0.00    +0.148 HD
BRANCH  18  20
ATOM     20  C   UNL     1      35.634 -24.103 -12.337  0.00  0.00    +0.114 C 
BRANCH  20  24
ATOM     21  N   UNL     1      38.137 -26.375 -14.037  0.00  0.00    -0.181 NA
ATOM     22  N   UNL     1      39.284 -24.391 -13.295  0.00  0.00    -0.204 NA
ATOM     23  N   UNL     1      40.437 -26.101 -14.411  0.00  0.00    -0.303 N 
ATOM     24  C   UNL     1      36.923 -24.639 -12.894  0.00  0.00    +0.020 C 
ATOM     25  C   UNL     1      36.998 -25.864 -13.526  0.00  0.00    +0.106 C 
ATOM     26  C   UNL     1      38.110 -23.940 -12.806  0.00  0.00    +0.163 C 
ATOM     27  C   UNL     1      39.226 -25.598 -13.889  0.00  0.00    +0.084 C 
ATOM     28  H   UNL     1      40.454 -26.979 -14.857  0.00  0.00    +0.154 HD
ATOM     29  H   UNL     1      41.266 -25.575 -14.331  0.00  0.00    +0.154 HD
ENDBRANCH  20  24
ENDBRANCH  18  20
ENDBRANCH   6  18
BRANCH   5  30
ATOM     30  C   UNL     1      29.161 -22.787 -15.098  0.00  0.00    +0.015 C 
ATOM     31  C   UNL     1      28.302 -23.864 -15.771  0.00  0.00    +0.001 C 
ENDBRANCH   5  30
TORSDOF 5
ENDMDL
MODEL 5
REMARK VINA RESULT:     -11.4      2.499      5.708
REMARK  Name = 44629554
REMARK  5 active torsions:
REMARK  status: ('A' for Active; 'I' for Inactive)
REMARK    1  A    between atoms: C_5  and  C_30
REMARK    2  A    between atoms: C_6  and  N_18
REMARK    3  A    between atoms: C_7  and  C_12
REMARK    4  A    between atoms: N_18  and  C_20
REMARK    5  A    between atoms: C_20  and  C_24
REMARK                            x       y       z     vdW  Elec       q    Type
REMARK                         _______ _______ _______ _____ _____    ______ ____
ROOT
ATOM      1  N   UNL     1      32.376 -22.656 -16.405  0.00  0.00    -0.152 N 
ATOM      2  N   UNL     1      33.292 -23.896 -14.556  0.00  0.00    -0.389 NA
ATOM      3  N   UNL     1      31.166 -22.255 -16.889  0.00  0.00    -0.174 NA
ATOM      4  C   UNL     1      32.224 -23.389 -15.227  0.00  0.00    +0.189 C 
ATOM      5  C   UNL     1      30.874 -23.446 -14.972  0.00  0.00    +0.112 C 
ATOM      6  C   UNL     1      33.645 -22.414 -16.956  0.00  0.00    +0.126 C 
ATOM      7  C   UNL     1      34.471 -23.660 -15.057  0.00  0.00    +0.140 C 
ATOM      8  C   UNL     1      34.725 -22.898 -16.320  0.00  0.00    +0.064 C 
ATOM      9  C   UNL     1      30.279 -22.735 -16.020  0.00  0.00    +0.100 C 
ENDROOT
BRANCH   7  12
ATOM     10  F   UNL     1      35.521 -26.230 -15.563  0.00  0.00    -0.204 F 
ATOM     11  F   UNL     1      35.876 -22.178 -13.110  0.00  0.00    -0.204 F 
ATOM     12  C   UNL     1      35.668 -24.191 -14.354  0.00  0.00    +0.085 C 
ATOM     13  C   UNL     1      36.141 -25.469 -14.649  0.00  0.00    +0.145 C 
ATOM     14  C   UNL     1      36.321 -23.409 -13.401  0.00  0.00    +0.145 C 
ATOM     15  C   UNL     1      37.265 -25.967 -13.989  0.00  0.00    +0.030 C 
ATOM     16  C   UNL     1      37.445 -23.906 -12.742  0.00  0.00    +0.030 C 
ATOM     17  C   UNL     1      37.917 -25.186 -13.036  0.00  0.00    +0.005 C 
ENDBRANCH   7  12
BRANCH   6  18
ATOM     18  N   UNL     1      33.701 -21.700 -18.120  0.00  0.00    -0.316 N 
ATOM     19  H   UNL     1      32.966 -21.079 -18.323  0.00  0.00    +0.148 HD
BRANCH  18  20
ATOM     20  C   UNL     1      34.782 -21.813 -19.064  0.00  0.00    +0.114 C 
BRANCH  20  24
ATOM     21  N   UNL     1      36.297 -18.660 -20.508  0.00  0.00    -0.181 NA
ATOM     22  N   UNL     1      34.029 -18.851 -21.296  0.00  0.00    -0.204 NA
ATOM     23  N   UNL     1      35.376 -17.040 -21.934  0.00  0.00    -0.303 N 
ATOM     24  C   UNL     1      34.942 -20.532 -19.835  0.00  0.00    +0.020 C 
ATOM     25  C   UNL     1      36.120 -19.813 -19.829  0.00  0.00    +0.106 C 
ATOM     26  C   UNL     1      33.919 -19.997 -20.593  0.00  0.00    +0.163 C 
ATOM     27  C   UNL     1      35.227 -18.243 -21.210  0.00  0.00    +0.084 C 
ATOM     28  H   UNL     1      36.232 -16.552 -21.908  0.00  0.00    +0.154 HD
ATOM     29  H   UNL     1      34.626 -16.688 -22.465  0.00  0.00    +0.154 HD
ENDBRANCH  20  24
ENDBRANCH  18  20
ENDBRANCH   6  18
BRANCH   5  30
ATOM     30  C   UNL     1      30.199 -24.107 -13.842  0.00  0.00    +0.015 C 
ATOM     31  C   UNL     1      29.005 -24.966 -14.277  0.00  0.00    +0.001 C 
ENDBRANCH   5  30
TORSDOF 5
ENDMDL
MODEL 6
REMARK VINA RESULT:     -11.4      2.496      5.890
REMARK  Name = 44629554
REMARK  5 active torsions:
REMARK  status: ('A' for Active; 'I' for Inactive)
REMARK    1  A    between atoms: C_5  and  C_30
REMARK    2  A    between atoms: C_6  and  N_18
REMARK    3  A    between atoms: C_7  and  C_12
REMARK    4  A    between atoms: N_18  and  C_20
REMARK    5  A    between atoms: C_20  and  C_24
REMARK                            x       y       z     vdW  Elec       q    Type
REMARK                         _______ _______ _______ _____ _____    ______ ____
ROOT
ATOM      1  N   UNL     1      32.416 -22.667 -16.366  0.00  0.00    -0.152 N 
ATOM      2  N   UNL     1      33.316 -23.921 -14.517  0.00  0.00    -0.389 NA
ATOM      3  N   UNL     1      31.210 -22.265 -16.858  0.00  0.00    -0.174 NA
ATOM      4  C   UNL     1      32.254 -23.411 -15.195  0.00  0.00    +0.189 C 
ATOM      5  C   UNL     1      30.901 -23.474 -14.955  0.00  0.00    +0.112 C 
ATOM      6  C   UNL     1      33.690 -22.417 -16.901  0.00  0.00    +0.126 C 
ATOM      7  C   UNL     1      34.499 -23.678 -15.005  0.00  0.00    +0.140 C 
ATOM      8  C   UNL     1      34.765 -22.904 -16.258  0.00  0.00    +0.064 C 
ATOM      9  C   UNL     1      30.315 -22.755 -16.003  0.00  0.00    +0.100 C 
ENDROOT
BRANCH   7  12
ATOM     10  F   UNL     1      35.857 -22.224 -13.002  0.00  0.00    -0.204 F 
ATOM     11  F   UNL     1      35.586 -26.225 -15.549  0.00  0.00    -0.204 F 
ATOM     12  C   UNL     1      35.691 -24.211 -14.293  0.00  0.00    +0.085 C 
ATOM     13  C   UNL     1      36.318 -23.445 -13.312  0.00  0.00    +0.145 C 
ATOM     14  C   UNL     1      36.180 -25.479 -14.606  0.00  0.00    +0.145 C 
ATOM     15  C   UNL     1      37.436 -23.945 -12.643  0.00  0.00    +0.030 C 
ATOM     16  C   UNL     1      37.298 -25.980 -13.939  0.00  0.00    +0.030 C 
ATOM     17  C   UNL     1      37.926 -25.212 -12.957  0.00  0.00    +0.005 C 
ENDBRANCH   7  12
BRANCH   6  18
ATOM     18  N   UNL     1      33.757 -21.693 -18.058  0.00  0.00    -0.316 N 
ATOM     19  H   UNL     1      33.035 -21.053 -18.251  0.00  0.00    +0.148 HD
BRANCH  18  20
ATOM     20  C   UNL     1      34.829 -21.821 -19.009  0.00  0.00    +0.114 C 
BRANCH  20  24
ATOM     21  N   UNL     1      34.062 -18.910 -21.303  0.00  0.00    -0.181 NA
ATOM     22  N   UNL     1      36.324 -18.682 -20.506  0.00  0.00    -0.204 NA
ATOM     23  N   UNL     1      35.398 -17.099 -21.968  0.00  0.00    -0.303 N 
ATOM     24  C   UNL     1      34.981 -20.553 -19.803  0.00  0.00    +0.020 C 
ATOM     25  C   UNL     1      33.960 -20.044 -20.578  0.00  0.00    +0.106 C 
ATOM     26  C   UNL     1      36.153 -19.823 -19.806  0.00  0.00    +0.163 C 
ATOM     27  C   UNL     1      35.254 -18.290 -21.222  0.00  0.00    +0.084 C 
ATOM     28  H   UNL     1      34.647 -16.764 -22.510  0.00  0.00    +0.154 HD
ATOM     29  H   UNL     1      36.248 -16.604 -21.946  0.00  0.00    +0.154 HD
ENDBRANCH  20  24
ENDBRANCH  18  20
ENDBRANCH   6  18
BRANCH   5  30
ATOM     30  C   UNL     1      30.217 -24.147 -13.838  0.00  0.00    +0.015 C 
ATOM     31  C   UNL     1      29.016 -24.987 -14.290  0.00  0.00    +0.001 C 
ENDBRANCH   5  30
TORSDOF 5
ENDMDL
MODEL 7
REMARK VINA RESULT:     -11.2      2.699      7.742
REMARK  Name = 44629554
REMARK  5 active torsions:
REMARK  status: ('A' for Active; 'I' for Inactive)
REMARK    1  A    between atoms: C_5  and  C_30
REMARK    2  A    between atoms: C_6  and  N_18
REMARK    3  A    between atoms: C_7  and  C_12
REMARK    4  A    between atoms: N_18  and  C_20
REMARK    5  A    between atoms: C_20  and  C_24
REMARK                            x       y       z     vdW  Elec       q    Type
REMARK                         _______ _______ _______ _____ _____    ______ ____
ROOT
ATOM      1  N   UNL     1      32.105 -23.437 -15.410  0.00  0.00    -0.152 N 
ATOM      2  N   UNL     1      31.793 -22.027 -17.338  0.00  0.00    -0.389 NA
ATOM      3  N   UNL     1      31.365 -24.070 -14.456  0.00  0.00    -0.174 NA
ATOM      4  C   UNL     1      31.283 -22.738 -16.297  0.00  0.00    +0.189 C 
ATOM      5  C   UNL     1      29.989 -22.943 -15.877  0.00  0.00    +0.112 C 
ATOM      6  C   UNL     1      33.502 -23.432 -15.552  0.00  0.00    +0.126 C 
ATOM      7  C   UNL     1      33.087 -22.034 -17.479  0.00  0.00    +0.140 C 
ATOM      8  C   UNL     1      34.043 -22.741 -16.570  0.00  0.00    +0.064 C 
ATOM      9  C   UNL     1      30.103 -23.764 -14.750  0.00  0.00    +0.100 C 
ENDROOT
BRANCH   7  12
ATOM     10  F   UNL     1      35.871 -21.923 -17.928  0.00  0.00    -0.204 F 
ATOM     11  F   UNL     1      31.537 -20.588 -19.342  0.00  0.00    -0.204 F 
ATOM     12  C   UNL     1      33.689 -21.275 -18.607  0.00  0.00    +0.085 C 
ATOM     13  C   UNL     1      35.073 -21.259 -18.777  0.00  0.00    +0.145 C 
ATOM     14  C   UNL     1      32.869 -20.580 -19.496  0.00  0.00    +0.145 C 
ATOM     15  C   UNL     1      35.638 -20.548 -19.836  0.00  0.00    +0.030 C 
ATOM     16  C   UNL     1      33.434 -19.869 -20.555  0.00  0.00    +0.030 C 
ATOM     17  C   UNL     1      34.818 -19.852 -20.724  0.00  0.00    +0.005 C 
ENDBRANCH   7  12
BRANCH   6  18
ATOM     18  N   UNL     1      34.231 -24.130 -14.631  0.00  0.00    -0.316 N 
ATOM     19  H   UNL     1      34.119 -25.106 -14.590  0.00  0.00    +0.148 HD
BRANCH  18  20
ATOM     20  C   UNL     1      35.155 -23.508 -13.719  0.00  0.00    +0.114 C 
BRANCH  20  24
ATOM     21  N   UNL     1      38.806 -24.304 -13.119  0.00  0.00    -0.181 NA
ATOM     22  N   UNL     1      37.911 -25.926 -14.659  0.00  0.00    -0.204 NA
ATOM     23  N   UNL     1      40.155 -26.018 -13.984  0.00  0.00    -0.303 N 
ATOM     24  C   UNL     1      36.497 -24.182 -13.789  0.00  0.00    +0.020 C 
ATOM     25  C   UNL     1      37.587 -23.725 -13.078  0.00  0.00    +0.106 C 
ATOM     26  C   UNL     1      36.719 -25.297 -14.572  0.00  0.00    +0.163 C 
ATOM     27  C   UNL     1      38.895 -25.384 -13.917  0.00  0.00    +0.084 C 
ATOM     28  H   UNL     1      40.912 -25.664 -13.463  0.00  0.00    +0.154 HD
ATOM     29  H   UNL     1      40.278 -26.812 -14.553  0.00  0.00    +0.154 HD
ENDBRANCH  20  24
ENDBRANCH  18  20
ENDBRANCH   6  18
BRANCH   5  30
ATOM     30  C   UNL     1      28.754 -22.416 -16.481  0.00  0.00    +0.015 C 
ATOM     31  C   UNL     1      27.550 -22.474 -15.532  0.00  0.00    +0.001 C 
ENDBRANCH   5  30
TORSDOF 5
ENDMDL
MODEL 8
REMARK VINA RESULT:     -11.1      3.163      7.080
REMARK  Name = 44629554
REMARK  5 active torsions:
REMARK  status: ('A' for Active; 'I' for Inactive)
REMARK    1  A    between atoms: C_5  and  C_30
REMARK    2  A    between atoms: C_6  and  N_18
REMARK    3  A    between atoms: C_7  and  C_12
REMARK    4  A    between atoms: N_18  and  C_20
REMARK    5  A    between atoms: C_20  and  C_24
REMARK                            x       y       z     vdW  Elec       q    Type
REMARK                         _______ _______ _______ _____ _____    ______ ____
ROOT
ATOM      1  N   UNL     1      34.939 -22.459 -15.801  0.00  0.00    -0.152 N 
ATOM      2  N   UNL     1      33.204 -23.208 -14.308  0.00  0.00    -0.389 NA
ATOM      3  N   UNL     1      36.268 -22.156 -15.779  0.00  0.00    -0.174 NA
ATOM      4  C   UNL     1      34.497 -22.854 -14.537  0.00  0.00    +0.189 C 
ATOM      5  C   UNL     1      35.589 -22.793 -13.702  0.00  0.00    +0.112 C 
ATOM      6  C   UNL     1      34.063 -22.402 -16.896  0.00  0.00    +0.126 C 
ATOM      7  C   UNL     1      32.393 -23.170 -15.326  0.00  0.00    +0.140 C 
ATOM      8  C   UNL     1      32.777 -22.746 -16.709  0.00  0.00    +0.064 C 
ATOM      9  C   UNL     1      36.641 -22.362 -14.517  0.00  0.00    +0.100 C 
ENDROOT
BRANCH   7  12
ATOM     10  F   UNL     1      30.266 -21.912 -16.689  0.00  0.00    -0.204 F 
ATOM     11  F   UNL     1      31.604 -25.216 -13.549  0.00  0.00    -0.204 F 
ATOM     12  C   UNL     1      30.971 -23.554 -15.124  0.00  0.00    +0.085 C 
ATOM     13  C   UNL     1      29.964 -22.895 -15.829  0.00  0.00    +0.145 C 
ATOM     14  C   UNL     1      30.644 -24.574 -14.232  0.00  0.00    +0.145 C 
ATOM     15  C   UNL     1      28.629 -23.255 -15.640  0.00  0.00    +0.030 C 
ATOM     16  C   UNL     1      29.310 -24.935 -14.043  0.00  0.00    +0.030 C 
ATOM     17  C   UNL     1      28.303 -24.275 -14.747  0.00  0.00    +0.005 C 
ENDBRANCH   7  12
BRANCH   6  18
ATOM     18  N   UNL     1      34.575 -21.990 -18.093  0.00  0.00    -0.316 N 
ATOM     19  H   UNL     1      35.553 -21.921 -18.184  0.00  0.00    +0.148 HD
BRANCH  18  20
ATOM     20  C   UNL     1      33.758 -21.652 -19.229  0.00  0.00    +0.114 C 
BRANCH  20  24
ATOM     21  N   UNL     1      34.167 -18.751 -21.625  0.00  0.00    -0.181 NA
ATOM     22  N   UNL     1      36.261 -19.107 -20.487  0.00  0.00    -0.204 NA
ATOM     23  N   UNL     1      36.032 -17.401 -22.081  0.00  0.00    -0.303 N 
ATOM     24  C   UNL     1      34.368 -20.510 -19.994  0.00  0.00    +0.020 C 
ATOM     25  C   UNL     1      33.652 -19.780 -20.920  0.00  0.00    +0.106 C 
ATOM     26  C   UNL     1      35.682 -20.126 -19.818  0.00  0.00    +0.163 C 
ATOM     27  C   UNL     1      35.458 -18.473 -21.362  0.00  0.00    +0.084 C 
ATOM     28  H   UNL     1      35.491 -16.901 -22.734  0.00  0.00    +0.154 HD
ATOM     29  H   UNL     1      36.972 -17.154 -21.929  0.00  0.00    +0.154 HD
ENDBRANCH  20  24
ENDBRANCH  18  20
ENDBRANCH   6  18
BRANCH   5  30
ATOM     30  C   UNL     1      35.641 -23.113 -12.266  0.00  0.00    +0.015 C 
ATOM     31  C   UNL     1      37.008 -22.818 -11.635  0.00  0.00    +0.001 C 
ENDBRANCH   5  30
TORSDOF 5
ENDMDL
MODEL 9
REMARK VINA RESULT:     -11.1      3.158      7.064
REMARK  Name = 44629554
REMARK  5 active torsions:
REMARK  status: ('A' for Active; 'I' for Inactive)
REMARK    1  A    between atoms: C_5  and  C_30
REMARK    2  A    between atoms: C_6  and  N_18
REMARK    3  A    between atoms: C_7  and  C_12
REMARK    4  A    between atoms: N_18  and  C_20
REMARK    5  A    between atoms: C_20  and  C_24
REMARK                            x       y       z     vdW  Elec       q    Type
REMARK                         _______ _______ _______ _____ _____    ______ ____
ROOT
ATOM      1  N   UNL     1      34.960 -22.464 -15.777  0.00  0.00    -0.152 N 
ATOM      2  N   UNL     1      33.230 -23.218 -14.281  0.00  0.00    -0.389 NA
ATOM      3  N   UNL     1      36.288 -22.160 -15.758  0.00  0.00    -0.174 NA
ATOM      4  C   UNL     1      34.521 -22.863 -14.513  0.00  0.00    +0.189 C 
ATOM      5  C   UNL     1      35.616 -22.803 -13.681  0.00  0.00    +0.112 C 
ATOM      6  C   UNL     1      34.080 -22.404 -16.869  0.00  0.00    +0.126 C 
ATOM      7  C   UNL     1      32.415 -23.178 -15.297  0.00  0.00    +0.140 C 
ATOM      8  C   UNL     1      32.795 -22.749 -16.679  0.00  0.00    +0.064 C 
ATOM      9  C   UNL     1      36.665 -22.369 -14.498  0.00  0.00    +0.100 C 
ENDROOT
BRANCH   7  12
ATOM     10  F   UNL     1      31.630 -25.202 -13.494  0.00  0.00    -0.204 F 
ATOM     11  F   UNL     1      30.287 -21.944 -16.679  0.00  0.00    -0.204 F 
ATOM     12  C   UNL     1      30.994 -23.563 -15.092  0.00  0.00    +0.085 C 
ATOM     13  C   UNL     1      30.669 -24.571 -14.185  0.00  0.00    +0.145 C 
ATOM     14  C   UNL     1      29.986 -22.915 -15.805  0.00  0.00    +0.145 C 
ATOM     15  C   UNL     1      29.335 -24.933 -13.992  0.00  0.00    +0.030 C 
ATOM     16  C   UNL     1      28.652 -23.276 -15.612  0.00  0.00    +0.030 C 
ATOM     17  C   UNL     1      28.327 -24.285 -14.706  0.00  0.00    +0.005 C 
ENDBRANCH   7  12
BRANCH   6  18
ATOM     18  N   UNL     1      34.589 -21.988 -18.067  0.00  0.00    -0.316 N 
ATOM     19  H   UNL     1      35.566 -21.914 -18.159  0.00  0.00    +0.148 HD
BRANCH  18  20
ATOM     20  C   UNL     1      33.768 -21.652 -19.200  0.00  0.00    +0.114 C 
BRANCH  20  24
ATOM     21  N   UNL     1      36.268 -19.109 -20.467  0.00  0.00    -0.181 NA
ATOM     22  N   UNL     1      34.180 -18.771 -21.620  0.00  0.00    -0.204 NA
ATOM     23  N   UNL     1      36.041 -17.418 -22.078  0.00  0.00    -0.303 N 
ATOM     24  C   UNL     1      34.379 -20.516 -19.973  0.00  0.00    +0.020 C 
ATOM     25  C   UNL     1      35.689 -20.123 -19.791  0.00  0.00    +0.106 C 
ATOM     26  C   UNL     1      33.664 -19.796 -20.910  0.00  0.00    +0.163 C 
ATOM     27  C   UNL     1      35.468 -18.486 -21.352  0.00  0.00    +0.084 C 
ATOM     28  H   UNL     1      36.980 -17.165 -21.923  0.00  0.00    +0.154 HD
ATOM     29  H   UNL     1      35.502 -16.926 -22.739  0.00  0.00    +0.154 HD
ENDBRANCH  20  24
ENDBRANCH  18  20
ENDBRANCH   6  18
BRANCH   5  30
ATOM     30  C   UNL     1      35.673 -23.128 -12.246  0.00  0.00    +0.015 C 
ATOM     31  C   UNL     1      37.095 -23.071 -11.674  0.00  0.00    +0.001 C 
ENDBRANCH   5  30
TORSDOF 5
ENDMDL
