MODEL 1
REMARK VINA RESULT:     -12.9      0.000      0.000
REMARK  Name = 444581
REMARK  5 active torsions:
REMARK  status: ('A' for Active; 'I' for Inactive)
REMARK    1  A    between atoms: N_2  and  C_7
REMARK    2  A    between atoms: N_3  and  C_20
REMARK    3  A    between atoms: C_8  and  O_13
REMARK    4  A    between atoms: O_13  and  C_14
REMARK    5  A    between atoms: C_21  and  C_28
REMARK                            x       y       z     vdW  Elec       q    Type
REMARK                         _______ _______ _______ _____ _____    ______ ____
ROOT
ATOM      1  O   UNL     1      34.988 -21.915 -18.467  0.00  0.00    -0.252 OA
ATOM      2  N   UNL     1      36.314 -20.019 -18.809  0.00  0.00    -0.268 N 
ATOM      3  N   UNL     1      36.675 -21.340 -16.947  0.00  0.00    -0.268 N 
ATOM      4  C   UNL     1      35.895 -21.167 -18.116  0.00  0.00    +0.308 C 
ATOM      5  H   UNL     1      37.058 -19.519 -18.401  0.00  0.00    +0.156 HD
ATOM      6  H   UNL     1      37.369 -20.660 -16.793  0.00  0.00    +0.156 HD
ENDROOT
BRANCH   2   7
ATOM      7  C   UNL     1      35.800 -19.495 -20.017  0.00  0.00    +0.052 C 
ATOM      8  C   UNL     1      34.791 -18.466 -22.383  0.00  0.00    +0.145 C 
ATOM      9  C   UNL     1      36.600 -18.673 -20.794  0.00  0.00    +0.018 C 
ATOM     10  C   UNL     1      34.507 -19.813 -20.398  0.00  0.00    +0.018 C 
ATOM     11  C   UNL     1      36.092 -18.155 -21.986  0.00  0.00    +0.039 C 
ATOM     12  C   UNL     1      33.999 -19.295 -21.590  0.00  0.00    +0.039 C 
BRANCH   8  13
ATOM     13  O   UNL     1      34.297 -17.961 -23.547  0.00  0.00    -0.453 OA
BRANCH  13  14
ATOM     14  C   UNL     1      34.018 -16.606 -23.593  0.00  0.00    +0.145 C 
ATOM     15  C   UNL     1      33.461 -16.071 -24.740  0.00  0.00    +0.037 C 
ATOM     16  C   UNL     1      34.306 -15.822 -22.491  0.00  0.00    +0.037 C 
ATOM     17  C   UNL     1      33.181 -14.706 -24.787  0.00  0.00    +0.003 C 
ATOM     18  C   UNL     1      34.026 -14.456 -22.538  0.00  0.00    +0.003 C 
ATOM     19  C   UNL     1      33.463 -13.897 -23.687  0.00  0.00    +0.000 C 
ENDBRANCH  13  14
ENDBRANCH   8  13
ENDBRANCH   2   7
BRANCH   3  20
ATOM     20  C   UNL     1      36.589 -22.346 -15.984  0.00  0.00    +0.052 C 
ATOM     21  C   UNL     1      36.420 -24.355 -14.056  0.00  0.00    +0.031 C 
ATOM     22  C   UNL     1      37.751 -22.943 -15.495  0.00  0.00    +0.015 C 
ATOM     23  C   UNL     1      35.343 -22.752 -15.508  0.00  0.00    +0.015 C 
ATOM     24  C   UNL     1      37.667 -23.949 -14.532  0.00  0.00    +0.004 C 
ATOM     25  C   UNL     1      35.258 -23.757 -14.545  0.00  0.00    +0.004 C 
BRANCH  21  28
ATOM     26  N   UNL     1      36.703 -26.715 -13.337  0.00  0.00    -0.343 N 
ATOM     27  N   UNL     1      35.886 -25.117 -11.841  0.00  0.00    -0.285 NA
ATOM     28  C   UNL     1      36.331 -25.402 -13.051  0.00  0.00    +0.117 C 
ATOM     29  H   UNL     1      36.635 -27.408 -12.642  0.00  0.00    +0.144 HD
ATOM     30  H   UNL     1      37.034 -26.948 -14.234  0.00  0.00    +0.144 HD
ATOM     31  H   UNL     1      35.825 -25.824 -11.159  0.00  0.00    +0.188 HD
ENDBRANCH  21  28
ENDBRANCH   3  20
TORSDOF 5
ENDMDL
MODEL 2
REMARK VINA RESULT:     -12.7      7.225     13.584
REMARK  Name = 444581
REMARK  5 active torsions:
REMARK  status: ('A' for Active; 'I' for Inactive)
REMARK    1  A    between atoms: N_2  and  C_7
REMARK    2  A    between atoms: N_3  and  C_20
REMARK    3  A    between atoms: C_8  and  O_13
REMARK    4  A    between atoms: O_13  and  C_14
REMARK    5  A    between atoms: C_21  and  C_28
REMARK                            x       y       z     vdW  Elec       q    Type
REMARK                         _______ _______ _______ _____ _____    ______ ____
ROOT
ATOM      1  O   UNL     1      33.193 -10.498 -23.246  0.00  0.00    -0.252 OA
ATOM      2  N   UNL     1      32.073 -12.164 -22.045  0.00  0.00    -0.268 N 
ATOM      3  N   UNL     1      31.335  -9.978 -21.918  0.00  0.00    -0.268 N 
ATOM      4  C   UNL     1      32.298 -10.848 -22.484  0.00  0.00    +0.308 C 
ATOM      5  H   UNL     1      31.312 -12.289 -21.433  0.00  0.00    +0.156 HD
ATOM      6  H   UNL     1      30.675 -10.400 -21.323  0.00  0.00    +0.156 HD
ENDROOT
BRANCH   2   7
ATOM      7  C   UNL     1      32.805 -13.328 -22.375  0.00  0.00    +0.052 C 
ATOM      8  C   UNL     1      34.237 -15.610 -23.019  0.00  0.00    +0.145 C 
ATOM      9  C   UNL     1      32.815 -13.774 -23.686  0.00  0.00    +0.018 C 
ATOM     10  C   UNL     1      33.496 -13.999 -21.379  0.00  0.00    +0.018 C 
ATOM     11  C   UNL     1      33.535 -14.923 -24.010  0.00  0.00    +0.039 C 
ATOM     12  C   UNL     1      34.217 -15.148 -21.703  0.00  0.00    +0.039 C 
BRANCH   8  13
ATOM     13  O   UNL     1      34.942 -16.731 -23.336  0.00  0.00    -0.453 OA
BRANCH  13  14
ATOM     14  C   UNL     1      35.025 -17.730 -22.381  0.00  0.00    +0.145 C 
ATOM     15  C   UNL     1      33.939 -18.561 -22.178  0.00  0.00    +0.037 C 
ATOM     16  C   UNL     1      36.194 -17.870 -21.655  0.00  0.00    +0.037 C 
ATOM     17  C   UNL     1      34.024 -19.567 -21.216  0.00  0.00    +0.003 C 
ATOM     18  C   UNL     1      36.279 -18.876 -20.693  0.00  0.00    +0.003 C 
ATOM     19  C   UNL     1      35.193 -19.725 -20.473  0.00  0.00    +0.000 C 
ENDBRANCH  13  14
ENDBRANCH   8  13
ENDBRANCH   2   7
BRANCH   3  20
ATOM     20  C   UNL     1      31.198  -8.600 -22.091  0.00  0.00    +0.052 C 
ATOM     21  C   UNL     1      30.921  -5.846 -22.437  0.00  0.00    +0.031 C 
ATOM     22  C   UNL     1      30.632  -8.097 -23.262  0.00  0.00    +0.015 C 
ATOM     23  C   UNL     1      31.626  -7.726 -21.092  0.00  0.00    +0.015 C 
ATOM     24  C   UNL     1      30.494  -6.720 -23.435  0.00  0.00    +0.004 C 
ATOM     25  C   UNL     1      31.488  -6.349 -21.264  0.00  0.00    +0.004 C 
BRANCH  21  28
ATOM     26  N   UNL     1      30.155  -3.879 -23.745  0.00  0.00    -0.343 N 
ATOM     27  N   UNL     1      31.244  -3.581 -21.699  0.00  0.00    -0.285 NA
ATOM     28  C   UNL     1      30.777  -4.409 -22.616  0.00  0.00    +0.117 C 
ATOM     29  H   UNL     1      30.068  -2.904 -23.846  0.00  0.00    +0.144 HD
ATOM     30  H   UNL     1      29.803  -4.480 -24.440  0.00  0.00    +0.144 HD
ATOM     31  H   UNL     1      31.148  -2.609 -21.818  0.00  0.00    +0.188 HD
ENDBRANCH  21  28
ENDBRANCH   3  20
TORSDOF 5
ENDMDL
MODEL 3
REMARK VINA RESULT:     -12.6      5.941     12.139
REMARK  Name = 444581
REMARK  5 active torsions:
REMARK  status: ('A' for Active; 'I' for Inactive)
REMARK    1  A    between atoms: N_2  and  C_7
REMARK    2  A    between atoms: N_3  and  C_20
REMARK    3  A    between atoms: C_8  and  O_13
REMARK    4  A    between atoms: O_13  and  C_14
REMARK    5  A    between atoms: C_21  and  C_28
REMARK                            x       y       z     vdW  Elec       q    Type
REMARK                         _______ _______ _______ _____ _____    ______ ____
ROOT
ATOM      1  O   UNL     1      33.192 -13.184 -21.227  0.00  0.00    -0.252 OA
ATOM      2  N   UNL     1      33.730 -14.279 -23.222  0.00  0.00    -0.268 N 
ATOM      3  N   UNL     1      32.955 -12.103 -23.291  0.00  0.00    -0.268 N 
ATOM      4  C   UNL     1      33.284 -13.193 -22.450  0.00  0.00    +0.308 C 
ATOM      5  H   UNL     1      33.749 -14.135 -24.196  0.00  0.00    +0.156 HD
ATOM      6  H   UNL     1      33.080 -12.255 -24.255  0.00  0.00    +0.156 HD
ENDROOT
BRANCH   2   7
ATOM      7  C   UNL     1      34.153 -15.551 -22.773  0.00  0.00    +0.052 C 
ATOM      8  C   UNL     1      34.980 -18.044 -21.893  0.00  0.00    +0.145 C 
ATOM      9  C   UNL     1      34.240 -16.595 -23.679  0.00  0.00    +0.018 C 
ATOM     10  C   UNL     1      34.471 -15.727 -21.437  0.00  0.00    +0.018 C 
ATOM     11  C   UNL     1      34.656 -17.851 -23.236  0.00  0.00    +0.039 C 
ATOM     12  C   UNL     1      34.888 -16.982 -20.993  0.00  0.00    +0.039 C 
BRANCH   8  13
ATOM     13  O   UNL     1      35.388 -19.269 -21.461  0.00  0.00    -0.453 OA
BRANCH  13  14
ATOM     14  C   UNL     1      34.557 -19.953 -20.590  0.00  0.00    +0.145 C 
ATOM     15  C   UNL     1      35.112 -20.845 -19.691  0.00  0.00    +0.037 C 
ATOM     16  C   UNL     1      33.194 -19.727 -20.643  0.00  0.00    +0.037 C 
ATOM     17  C   UNL     1      34.275 -21.535 -18.814  0.00  0.00    +0.003 C 
ATOM     18  C   UNL     1      32.357 -20.417 -19.766  0.00  0.00    +0.003 C 
ATOM     19  C   UNL     1      32.897 -21.322 -18.851  0.00  0.00    +0.000 C 
ENDBRANCH  13  14
ENDBRANCH   8  13
ENDBRANCH   2   7
BRANCH   3  20
ATOM     20  C   UNL     1      32.477 -10.841 -22.935  0.00  0.00    +0.052 C 
ATOM     21  C   UNL     1      31.521  -8.320 -22.220  0.00  0.00    +0.031 C 
ATOM     22  C   UNL     1      31.317 -10.726 -22.170  0.00  0.00    +0.015 C 
ATOM     23  C   UNL     1      33.160  -9.696 -23.342  0.00  0.00    +0.015 C 
ATOM     24  C   UNL     1      30.838  -9.465 -21.813  0.00  0.00    +0.004 C 
ATOM     25  C   UNL     1      32.683  -8.435 -22.985  0.00  0.00    +0.004 C 
BRANCH  21  28
ATOM     26  N   UNL     1      30.232  -6.256 -22.717  0.00  0.00    -0.343 N 
ATOM     27  N   UNL     1      31.327  -6.497 -20.667  0.00  0.00    -0.285 NA
ATOM     28  C   UNL     1      31.024  -7.005 -21.847  0.00  0.00    +0.117 C 
ATOM     29  H   UNL     1      29.906  -5.369 -22.444  0.00  0.00    +0.144 HD
ATOM     30  H   UNL     1      29.999  -6.617 -23.602  0.00  0.00    +0.144 HD
ATOM     31  H   UNL     1      30.992  -5.607 -20.412  0.00  0.00    +0.188 HD
ENDBRANCH  21  28
ENDBRANCH   3  20
TORSDOF 5
ENDMDL
MODEL 4
REMARK VINA RESULT:     -12.4      1.212      2.024
REMARK  Name = 444581
REMARK  5 active torsions:
REMARK  status: ('A' for Active; 'I' for Inactive)
REMARK    1  A    between atoms: N_2  and  C_7
REMARK    2  A    between atoms: N_3  and  C_20
REMARK    3  A    between atoms: C_8  and  O_13
REMARK    4  A    between atoms: O_13  and  C_14
REMARK    5  A    between atoms: C_21  and  C_28
REMARK                            x       y       z     vdW  Elec       q    Type
REMARK                         _______ _______ _______ _____ _____    ______ ____
ROOT
ATOM      1  O   UNL     1      36.209 -20.563 -17.216  0.00  0.00    -0.252 OA
ATOM      2  N   UNL     1      34.732 -21.297 -18.874  0.00  0.00    -0.268 N 
ATOM      3  N   UNL     1      34.977 -22.535 -16.939  0.00  0.00    -0.268 N 
ATOM      4  C   UNL     1      35.393 -21.376 -17.637  0.00  0.00    +0.308 C 
ATOM      5  H   UNL     1      34.103 -22.027 -19.073  0.00  0.00    +0.156 HD
ATOM      6  H   UNL     1      34.314 -23.097 -17.401  0.00  0.00    +0.156 HD
ENDROOT
BRANCH   2   7
ATOM      7  C   UNL     1      34.862 -20.299 -19.868  0.00  0.00    +0.052 C 
ATOM      8  C   UNL     1      35.115 -18.343 -21.813  0.00  0.00    +0.145 C 
ATOM      9  C   UNL     1      36.092 -19.694 -20.065  0.00  0.00    +0.018 C 
ATOM     10  C   UNL     1      33.756 -19.947 -20.623  0.00  0.00    +0.018 C 
ATOM     11  C   UNL     1      36.220 -18.709 -21.044  0.00  0.00    +0.039 C 
ATOM     12  C   UNL     1      33.883 -18.962 -21.603  0.00  0.00    +0.039 C 
BRANCH   8  13
ATOM     13  O   UNL     1      35.241 -17.383 -22.770  0.00  0.00    -0.453 OA
BRANCH  13  14
ATOM     14  C   UNL     1      34.647 -16.155 -22.531  0.00  0.00    +0.145 C 
ATOM     15  C   UNL     1      34.426 -15.756 -21.226  0.00  0.00    +0.037 C 
ATOM     16  C   UNL     1      34.290 -15.360 -23.606  0.00  0.00    +0.037 C 
ATOM     17  C   UNL     1      33.828 -14.519 -20.986  0.00  0.00    +0.003 C 
ATOM     18  C   UNL     1      33.692 -14.123 -23.365  0.00  0.00    +0.003 C 
ATOM     19  C   UNL     1      33.461 -13.702 -22.055  0.00  0.00    +0.000 C 
ENDBRANCH  13  14
ENDBRANCH   8  13
ENDBRANCH   2   7
BRANCH   3  20
ATOM     20  C   UNL     1      35.383 -22.989 -15.683  0.00  0.00    +0.052 C 
ATOM     21  C   UNL     1      36.193 -23.898 -13.174  0.00  0.00    +0.031 C 
ATOM     22  C   UNL     1      34.433 -23.418 -14.757  0.00  0.00    +0.015 C 
ATOM     23  C   UNL     1      36.738 -23.015 -15.356  0.00  0.00    +0.015 C 
ATOM     24  C   UNL     1      34.838 -23.873 -13.502  0.00  0.00    +0.004 C 
ATOM     25  C   UNL     1      37.144 -23.469 -14.101  0.00  0.00    +0.004 C 
BRANCH  21  28
ATOM     26  N   UNL     1      36.980 -23.484 -10.855  0.00  0.00    -0.343 N 
ATOM     27  N   UNL     1      36.665 -25.669 -11.620  0.00  0.00    -0.285 NA
ATOM     28  C   UNL     1      36.616 -24.373 -11.866  0.00  0.00    +0.117 C 
ATOM     29  H   UNL     1      37.263 -23.826  -9.977  0.00  0.00    +0.144 HD
ATOM     30  H   UNL     1      36.953 -22.514 -11.020  0.00  0.00    +0.144 HD
ATOM     31  H   UNL     1      36.952 -25.993 -10.735  0.00  0.00    +0.188 HD
ENDBRANCH  21  28
ENDBRANCH   3  20
TORSDOF 5
ENDMDL
MODEL 5
REMARK VINA RESULT:     -12.3      3.080      3.670
REMARK  Name = 444581
REMARK  5 active torsions:
REMARK  status: ('A' for Active; 'I' for Inactive)
REMARK    1  A    between atoms: N_2  and  C_7
REMARK    2  A    between atoms: N_3  and  C_20
REMARK    3  A    between atoms: C_8  and  O_13
REMARK    4  A    between atoms: O_13  and  C_14
REMARK    5  A    between atoms: C_21  and  C_28
REMARK                            x       y       z     vdW  Elec       q    Type
REMARK                         _______ _______ _______ _____ _____    ______ ____
ROOT
ATOM      1  O   UNL     1      32.125 -20.952 -18.603  0.00  0.00    -0.252 OA
ATOM      2  N   UNL     1      34.428 -21.081 -18.987  0.00  0.00    -0.268 N 
ATOM      3  N   UNL     1      33.490 -22.312 -17.271  0.00  0.00    -0.268 N 
ATOM      4  C   UNL     1      33.232 -21.397 -18.321  0.00  0.00    +0.308 C 
ATOM      5  H   UNL     1      35.240 -21.520 -18.644  0.00  0.00    +0.156 HD
ATOM      6  H   UNL     1      34.430 -22.583 -17.162  0.00  0.00    +0.156 HD
ENDROOT
BRANCH   2   7
ATOM      7  C   UNL     1      34.608 -20.211 -20.087  0.00  0.00    +0.052 C 
ATOM      8  C   UNL     1      34.962 -18.508 -22.243  0.00  0.00    +0.145 C 
ATOM      9  C   UNL     1      33.544 -19.966 -20.939  0.00  0.00    +0.018 C 
ATOM     10  C   UNL     1      35.845 -19.622 -20.290  0.00  0.00    +0.018 C 
ATOM     11  C   UNL     1      33.722 -19.109 -22.025  0.00  0.00    +0.039 C 
ATOM     12  C   UNL     1      36.023 -18.764 -21.375  0.00  0.00    +0.039 C 
BRANCH   8  13
ATOM     13  O   UNL     1      35.135 -17.670 -23.302  0.00  0.00    -0.453 OA
BRANCH  13  14
ATOM     14  C   UNL     1      34.495 -16.443 -23.262  0.00  0.00    +0.145 C 
ATOM     15  C   UNL     1      33.855 -15.979 -24.397  0.00  0.00    +0.037 C 
ATOM     16  C   UNL     1      34.513 -15.712 -22.088  0.00  0.00    +0.037 C 
ATOM     17  C   UNL     1      33.210 -14.743 -24.357  0.00  0.00    +0.003 C 
ATOM     18  C   UNL     1      33.868 -14.476 -22.048  0.00  0.00    +0.003 C 
ATOM     19  C   UNL     1      33.217 -13.990 -23.183  0.00  0.00    +0.000 C 
ENDBRANCH  13  14
ENDBRANCH   8  13
ENDBRANCH   2   7
BRANCH   3  20
ATOM     20  C   UNL     1      32.589 -22.879 -16.369  0.00  0.00    +0.052 C 
ATOM     21  C   UNL     1      30.788 -24.011 -14.565  0.00  0.00    +0.031 C 
ATOM     22  C   UNL     1      33.053 -23.446 -15.183  0.00  0.00    +0.015 C 
ATOM     23  C   UNL     1      31.223 -22.878 -16.654  0.00  0.00    +0.015 C 
ATOM     24  C   UNL     1      32.153 -24.013 -14.281  0.00  0.00    +0.004 C 
ATOM     25  C   UNL     1      30.322 -23.444 -15.752  0.00  0.00    +0.004 C 
BRANCH  21  28
ATOM     26  N   UNL     1      28.720 -25.293 -14.065  0.00  0.00    -0.343 N 
ATOM     27  N   UNL     1      30.053 -24.481 -12.326  0.00  0.00    -0.285 NA
ATOM     28  C   UNL     1      29.848 -24.601 -13.625  0.00  0.00    +0.117 C 
ATOM     29  H   UNL     1      28.098 -25.685 -13.411  0.00  0.00    +0.144 HD
ATOM     30  H   UNL     1      28.548 -25.390 -15.029  0.00  0.00    +0.144 HD
ATOM     31  H   UNL     1      29.419 -24.879 -11.687  0.00  0.00    +0.188 HD
ENDBRANCH  21  28
ENDBRANCH   3  20
TORSDOF 5
ENDMDL
MODEL 6
REMARK VINA RESULT:     -12.3      3.054      3.757
REMARK  Name = 444581
REMARK  5 active torsions:
REMARK  status: ('A' for Active; 'I' for Inactive)
REMARK    1  A    between atoms: N_2  and  C_7
REMARK    2  A    between atoms: N_3  and  C_20
REMARK    3  A    between atoms: C_8  and  O_13
REMARK    4  A    between atoms: O_13  and  C_14
REMARK    5  A    between atoms: C_21  and  C_28
REMARK                            x       y       z     vdW  Elec       q    Type
REMARK                         _______ _______ _______ _____ _____    ______ ____
ROOT
ATOM      1  O   UNL     1      32.129 -20.934 -18.611  0.00  0.00    -0.252 OA
ATOM      2  N   UNL     1      34.431 -21.052 -19.009  0.00  0.00    -0.268 N 
ATOM      3  N   UNL     1      33.510 -22.286 -17.287  0.00  0.00    -0.268 N 
ATOM      4  C   UNL     1      33.241 -21.374 -18.336  0.00  0.00    +0.308 C 
ATOM      5  H   UNL     1      35.247 -21.486 -18.671  0.00  0.00    +0.156 HD
ATOM      6  H   UNL     1      34.451 -22.553 -17.183  0.00  0.00    +0.156 HD
ENDROOT
BRANCH   2   7
ATOM      7  C   UNL     1      34.600 -20.181 -20.110  0.00  0.00    +0.052 C 
ATOM      8  C   UNL     1      34.929 -18.474 -22.267  0.00  0.00    +0.145 C 
ATOM      9  C   UNL     1      35.823 -19.562 -20.304  0.00  0.00    +0.018 C 
ATOM     10  C   UNL     1      33.538 -19.965 -20.973  0.00  0.00    +0.018 C 
ATOM     11  C   UNL     1      35.990 -18.702 -21.390  0.00  0.00    +0.039 C 
ATOM     12  C   UNL     1      33.703 -19.106 -22.059  0.00  0.00    +0.039 C 
BRANCH   8  13
ATOM     13  O   UNL     1      35.092 -17.636 -23.328  0.00  0.00    -0.453 OA
BRANCH  13  14
ATOM     14  C   UNL     1      34.473 -16.399 -23.271  0.00  0.00    +0.145 C 
ATOM     15  C   UNL     1      34.487 -15.692 -22.083  0.00  0.00    +0.037 C 
ATOM     16  C   UNL     1      33.857 -15.903 -24.406  0.00  0.00    +0.037 C 
ATOM     17  C   UNL     1      33.863 -14.446 -22.026  0.00  0.00    +0.003 C 
ATOM     18  C   UNL     1      33.233 -14.657 -24.349  0.00  0.00    +0.003 C 
ATOM     19  C   UNL     1      33.236 -13.927 -23.159  0.00  0.00    +0.000 C 
ENDBRANCH  13  14
ENDBRANCH   8  13
ENDBRANCH   2   7
BRANCH   3  20
ATOM     20  C   UNL     1      32.617 -22.858 -16.380  0.00  0.00    +0.052 C 
ATOM     21  C   UNL     1      30.831 -24.002 -14.568  0.00  0.00    +0.031 C 
ATOM     22  C   UNL     1      31.244 -22.778 -16.609  0.00  0.00    +0.015 C 
ATOM     23  C   UNL     1      33.097 -23.511 -15.245  0.00  0.00    +0.015 C 
ATOM     24  C   UNL     1      30.350 -23.350 -15.703  0.00  0.00    +0.004 C 
ATOM     25  C   UNL     1      32.205 -24.083 -14.339  0.00  0.00    +0.004 C 
BRANCH  21  28
ATOM     26  N   UNL     1      28.791 -25.324 -14.058  0.00  0.00    -0.343 N 
ATOM     27  N   UNL     1      30.097 -24.456 -12.325  0.00  0.00    -0.285 NA
ATOM     28  C   UNL     1      29.900 -24.600 -13.623  0.00  0.00    +0.117 C 
ATOM     29  H   UNL     1      28.175 -25.721 -13.401  0.00  0.00    +0.144 HD
ATOM     30  H   UNL     1      28.626 -25.440 -15.021  0.00  0.00    +0.144 HD
ATOM     31  H   UNL     1      29.469 -24.859 -11.684  0.00  0.00    +0.188 HD
ENDBRANCH  21  28
ENDBRANCH   3  20
TORSDOF 5
ENDMDL
MODEL 7
REMARK VINA RESULT:     -12.0      1.929      3.143
REMARK  Name = 444581
REMARK  5 active torsions:
REMARK  status: ('A' for Active; 'I' for Inactive)
REMARK    1  A    between atoms: N_2  and  C_7
REMARK    2  A    between atoms: N_3  and  C_20
REMARK    3  A    between atoms: C_8  and  O_13
REMARK    4  A    between atoms: O_13  and  C_14
REMARK    5  A    between atoms: C_21  and  C_28
REMARK                            x       y       z     vdW  Elec       q    Type
REMARK                         _______ _______ _______ _____ _____    ______ ____
ROOT
ATOM      1  O   UNL     1      33.431 -19.517 -19.886  0.00  0.00    -0.252 OA
ATOM      2  N   UNL     1      35.171 -19.472 -21.447  0.00  0.00    -0.268 N 
ATOM      3  N   UNL     1      35.349 -20.826 -19.584  0.00  0.00    -0.268 N 
ATOM      4  C   UNL     1      34.533 -19.894 -20.269  0.00  0.00    +0.308 C 
ATOM      5  H   UNL     1      36.057 -19.865 -21.622  0.00  0.00    +0.156 HD
ATOM      6  H   UNL     1      36.210 -21.035 -20.011  0.00  0.00    +0.156 HD
ENDROOT
BRANCH   2   7
ATOM      7  C   UNL     1      34.699 -18.552 -22.412  0.00  0.00    +0.052 C 
ATOM      8  C   UNL     1      33.771 -16.750 -24.301  0.00  0.00    +0.145 C 
ATOM      9  C   UNL     1      35.069 -17.221 -22.318  0.00  0.00    +0.018 C 
ATOM     10  C   UNL     1      33.875 -19.001 -23.431  0.00  0.00    +0.018 C 
ATOM     11  C   UNL     1      34.602 -16.313 -23.268  0.00  0.00    +0.039 C 
ATOM     12  C   UNL     1      33.408 -18.095 -24.382  0.00  0.00    +0.039 C 
BRANCH   8  13
ATOM     13  O   UNL     1      33.317 -15.865 -25.229  0.00  0.00    -0.453 OA
BRANCH  13  14
ATOM     14  C   UNL     1      33.146 -14.549 -24.834  0.00  0.00    +0.145 C 
ATOM     15  C   UNL     1      33.182 -14.239 -23.487  0.00  0.00    +0.037 C 
ATOM     16  C   UNL     1      32.945 -13.578 -25.799  0.00  0.00    +0.037 C 
ATOM     17  C   UNL     1      33.010 -12.914 -23.089  0.00  0.00    +0.003 C 
ATOM     18  C   UNL     1      32.772 -12.252 -25.401  0.00  0.00    +0.003 C 
ATOM     19  C   UNL     1      32.805 -11.919 -24.046  0.00  0.00    +0.000 C 
ENDBRANCH  13  14
ENDBRANCH   8  13
ENDBRANCH   2   7
BRANCH   3  20
ATOM     20  C   UNL     1      35.095 -21.486 -18.381  0.00  0.00    +0.052 C 
ATOM     21  C   UNL     1      34.587 -22.810 -15.978  0.00  0.00    +0.031 C 
ATOM     22  C   UNL     1      33.868 -22.117 -18.178  0.00  0.00    +0.015 C 
ATOM     23  C   UNL     1      36.069 -21.518 -17.383  0.00  0.00    +0.015 C 
ATOM     24  C   UNL     1      33.614 -22.778 -16.976  0.00  0.00    +0.004 C 
ATOM     25  C   UNL     1      35.816 -22.179 -16.181  0.00  0.00    +0.004 C 
BRANCH  21  28
ATOM     26  N   UNL     1      34.652 -24.844 -14.555  0.00  0.00    -0.343 N 
ATOM     27  N   UNL     1      33.758 -22.852 -13.723  0.00  0.00    -0.285 NA
ATOM     28  C   UNL     1      34.324 -23.500 -14.725  0.00  0.00    +0.117 C 
ATOM     29  H   UNL     1      34.465 -25.291 -13.699  0.00  0.00    +0.144 HD
ATOM     30  H   UNL     1      35.071 -25.344 -15.292  0.00  0.00    +0.144 HD
ATOM     31  H   UNL     1      33.579 -23.316 -12.874  0.00  0.00    +0.188 HD
ENDBRANCH  21  28
ENDBRANCH   3  20
TORSDOF 5
ENDMDL
MODEL 8
REMARK VINA RESULT:     -11.8      2.946     10.880
REMARK  Name = 444581
REMARK  5 active torsions:
REMARK  status: ('A' for Active; 'I' for Inactive)
REMARK    1  A    between atoms: N_2  and  C_7
REMARK    2  A    between atoms: N_3  and  C_20
REMARK    3  A    between atoms: C_8  and  O_13
REMARK    4  A    between atoms: O_13  and  C_14
REMARK    5  A    between atoms: C_21  and  C_28
REMARK                            x       y       z     vdW  Elec       q    Type
REMARK                         _______ _______ _______ _____ _____    ______ ____
ROOT
ATOM      1  O   UNL     1      33.333 -19.401 -19.627  0.00  0.00    -0.252 OA
ATOM      2  N   UNL     1      35.266 -20.694 -19.385  0.00  0.00    -0.268 N 
ATOM      3  N   UNL     1      35.171 -19.090 -21.045  0.00  0.00    -0.268 N 
ATOM      4  C   UNL     1      34.469 -19.701 -19.978  0.00  0.00    +0.308 C 
ATOM      5  H   UNL     1      36.160 -20.821 -19.779  0.00  0.00    +0.156 HD
ATOM      6  H   UNL     1      36.078 -19.434 -21.213  0.00  0.00    +0.156 HD
ENDROOT
BRANCH   2   7
ATOM      7  C   UNL     1      34.942 -21.535 -18.295  0.00  0.00    +0.052 C 
ATOM      8  C   UNL     1      34.308 -23.183 -16.161  0.00  0.00    +0.145 C 
ATOM      9  C   UNL     1      35.810 -21.614 -17.219  0.00  0.00    +0.018 C 
ATOM     10  C   UNL     1      33.765 -22.263 -18.327  0.00  0.00    +0.018 C 
ATOM     11  C   UNL     1      35.491 -22.444 -16.144  0.00  0.00    +0.039 C 
ATOM     12  C   UNL     1      33.445 -23.093 -17.252  0.00  0.00    +0.039 C 
BRANCH   8  13
ATOM     13  O   UNL     1      33.997 -23.992 -15.111  0.00  0.00    -0.453 OA
BRANCH  13  14
ATOM     14  C   UNL     1      35.039 -24.615 -14.447  0.00  0.00    +0.145 C 
ATOM     15  C   UNL     1      35.688 -25.675 -15.053  0.00  0.00    +0.037 C 
ATOM     16  C   UNL     1      35.405 -24.161 -13.192  0.00  0.00    +0.037 C 
ATOM     17  C   UNL     1      36.738 -26.302 -14.384  0.00  0.00    +0.003 C 
ATOM     18  C   UNL     1      36.455 -24.788 -12.523  0.00  0.00    +0.003 C 
ATOM     19  C   UNL     1      37.122 -25.860 -13.118  0.00  0.00    +0.000 C 
ENDBRANCH  13  14
ENDBRANCH   8  13
ENDBRANCH   2   7
BRANCH   3  20
ATOM     20  C   UNL     1      34.748 -18.064 -21.892  0.00  0.00    +0.052 C 
ATOM     21  C   UNL     1      33.899 -16.016 -23.584  0.00  0.00    +0.031 C 
ATOM     22  C   UNL     1      34.220 -18.369 -23.146  0.00  0.00    +0.015 C 
ATOM     23  C   UNL     1      34.851 -16.735 -21.483  0.00  0.00    +0.015 C 
ATOM     24  C   UNL     1      33.796 -17.345 -23.993  0.00  0.00    +0.004 C 
ATOM     25  C   UNL     1      34.427 -15.710 -22.329  0.00  0.00    +0.004 C 
BRANCH  21  28
ATOM     26  N   UNL     1      33.357 -13.631 -24.016  0.00  0.00    -0.343 N 
ATOM     27  N   UNL     1      33.135 -15.217 -25.718  0.00  0.00    -0.285 NA
ATOM     28  C   UNL     1      33.457 -14.947 -24.466  0.00  0.00    +0.117 C 
ATOM     29  H   UNL     1      33.056 -12.923 -24.630  0.00  0.00    +0.144 HD
ATOM     30  H   UNL     1      33.589 -13.411 -23.085  0.00  0.00    +0.144 HD
ATOM     31  H   UNL     1      32.835 -14.495 -26.316  0.00  0.00    +0.188 HD
ENDBRANCH  21  28
ENDBRANCH   3  20
TORSDOF 5
ENDMDL
MODEL 9
REMARK VINA RESULT:     -11.6      3.559     10.658
REMARK  Name = 444581
REMARK  5 active torsions:
REMARK  status: ('A' for Active; 'I' for Inactive)
REMARK    1  A    between atoms: N_2  and  C_7
REMARK    2  A    between atoms: N_3  and  C_20
REMARK    3  A    between atoms: C_8  and  O_13
REMARK    4  A    between atoms: O_13  and  C_14
REMARK    5  A    between atoms: C_21  and  C_28
REMARK                            x       y       z     vdW  Elec       q    Type
REMARK                         _______ _______ _______ _____ _____    ______ ____
ROOT
ATOM      1  O   UNL     1      33.218 -18.864 -20.441  0.00  0.00    -0.252 OA
ATOM      2  N   UNL     1      35.257 -19.975 -20.165  0.00  0.00    -0.268 N 
ATOM      3  N   UNL     1      35.093 -18.268 -21.713  0.00  0.00    -0.268 N 
ATOM      4  C   UNL     1      34.398 -19.023 -20.738  0.00  0.00    +0.308 C 
ATOM      5  H   UNL     1      36.180 -19.983 -20.507  0.00  0.00    +0.156 HD
ATOM      6  H   UNL     1      36.038 -18.508 -21.845  0.00  0.00    +0.156 HD
ENDROOT
BRANCH   2   7
ATOM      7  C   UNL     1      34.960 -20.923 -19.158  0.00  0.00    +0.052 C 
ATOM      8  C   UNL     1      34.376 -22.778 -17.185  0.00  0.00    +0.145 C 
ATOM      9  C   UNL     1      33.805 -21.681 -19.260  0.00  0.00    +0.018 C 
ATOM     10  C   UNL     1      35.828 -21.073 -18.090  0.00  0.00    +0.018 C 
ATOM     11  C   UNL     1      33.510 -22.615 -18.267  0.00  0.00    +0.039 C 
ATOM     12  C   UNL     1      35.535 -22.007 -17.097  0.00  0.00    +0.039 C 
BRANCH   8  13
ATOM     13  O   UNL     1      34.090 -23.690 -16.216  0.00  0.00    -0.453 OA
BRANCH  13  14
ATOM     14  C   UNL     1      33.095 -23.373 -15.307  0.00  0.00    +0.145 C 
ATOM     15  C   UNL     1      33.311 -23.611 -13.962  0.00  0.00    +0.037 C 
ATOM     16  C   UNL     1      31.912 -22.825 -15.768  0.00  0.00    +0.037 C 
ATOM     17  C   UNL     1      32.309 -23.292 -13.046  0.00  0.00    +0.003 C 
ATOM     18  C   UNL     1      30.910 -22.505 -14.851  0.00  0.00    +0.003 C 
ATOM     19  C   UNL     1      31.108 -22.739 -13.490  0.00  0.00    +0.000 C 
ENDBRANCH  13  14
ENDBRANCH   8  13
ENDBRANCH   2   7
BRANCH   3  20
ATOM     20  C   UNL     1      34.616 -17.229 -22.512  0.00  0.00    +0.052 C 
ATOM     21  C   UNL     1      33.664 -15.150 -24.111  0.00  0.00    +0.031 C 
ATOM     22  C   UNL     1      34.634 -15.918 -22.036  0.00  0.00    +0.015 C 
ATOM     23  C   UNL     1      34.122 -17.500 -23.788  0.00  0.00    +0.015 C 
ATOM     24  C   UNL     1      34.158 -14.878 -22.835  0.00  0.00    +0.004 C 
ATOM     25  C   UNL     1      33.646 -16.462 -24.588  0.00  0.00    +0.004 C 
BRANCH  21  28
ATOM     26  N   UNL     1      32.800 -12.839 -24.396  0.00  0.00    -0.343 N 
ATOM     27  N   UNL     1      33.056 -14.239 -26.250  0.00  0.00    -0.285 NA
ATOM     28  C   UNL     1      33.169 -14.066 -24.945  0.00  0.00    +0.117 C 
ATOM     29  H   UNL     1      32.468 -12.120 -24.979  0.00  0.00    +0.144 HD
ATOM     30  H   UNL     1      32.874 -12.693 -23.426  0.00  0.00    +0.144 HD
ATOM     31  H   UNL     1      32.721 -13.507 -26.817  0.00  0.00    +0.188 HD
ENDBRANCH  21  28
ENDBRANCH   3  20
TORSDOF 5
ENDMDL
