MODEL 1
REMARK VINA RESULT:     -13.1      0.000      0.000
REMARK  Name = 115368
REMARK  5 active torsions:
REMARK  status: ('A' for Active; 'I' for Inactive)
REMARK    1  A    between atoms: N_2  and  C_17
REMARK    2  A    between atoms: C_17  and  C_18
REMARK    3  A    between atoms: C_18  and  C_19
REMARK    4  A    between atoms: C_19  and  C_20
REMARK    5  A    between atoms: C_20  and  N_23
REMARK                            x       y       z     vdW  Elec       q    Type
REMARK                         _______ _______ _______ _____ _____    ______ ____
ROOT
ATOM      1  S   UNL     1      33.285 -15.241 -25.109  0.00  0.00    +0.014 S 
ATOM      2  N   UNL     1      35.555 -19.763 -20.842  0.00  0.00    +0.389 N 
ATOM      3  N   UNL     1      34.696 -17.663 -22.579  0.00  0.00    -0.297 N 
ATOM      4  N   UNL     1      33.867 -16.705 -24.601  0.00  0.00    -0.194 NA
ATOM      5  C   UNL     1      35.999 -18.382 -20.622  0.00  0.00    -0.055 C 
ATOM      6  C   UNL     1      34.204 -19.775 -21.421  0.00  0.00    -0.055 C 
ATOM      7  C   UNL     1      36.008 -17.586 -21.930  0.00  0.00    +0.069 C 
ATOM      8  C   UNL     1      34.184 -19.027 -22.755  0.00  0.00    +0.069 C 
ATOM      9  C   UNL     1      34.182 -16.613 -23.308  0.00  0.00    +0.140 A 
ATOM     10  C   UNL     1      33.964 -15.342 -22.672  0.00  0.00    +0.040 A 
ATOM     11  C   UNL     1      33.441 -14.436 -23.597  0.00  0.00    +0.050 A 
ATOM     12  C   UNL     1      34.181 -14.901 -21.347  0.00  0.00    +0.003 C 
ATOM     13  C   UNL     1      33.128 -13.112 -23.252  0.00  0.00    +0.008 C 
ATOM     14  C   UNL     1      33.872 -13.585 -20.994  0.00  0.00    +0.000 C 
ATOM     15  C   UNL     1      33.354 -12.703 -21.936  0.00  0.00    +0.001 C 
ATOM     16  H   UNL     1      36.194 -20.211 -21.498  0.00  0.00    -0.080 HD
ENDROOT
BRANCH   2  17
ATOM     17  C   UNL     1      35.583 -20.519 -19.589  0.00  0.00    -0.077 C 
BRANCH  17  18
ATOM     18  C   UNL     1      34.282 -21.299 -19.410  0.00  0.00    -0.021 C 
BRANCH  18  19
ATOM     19  C   UNL     1      34.181 -21.888 -17.999  0.00  0.00    +0.020 C 
BRANCH  19  20
ATOM     20  C   UNL     1      33.046 -22.899 -17.866  0.00  0.00    +0.101 C 
BRANCH  20  23
ATOM     21  O   UNL     1      33.985 -23.766 -15.198  0.00  0.00    -0.274 OA
ATOM     22  O   UNL     1      30.371 -21.825 -17.330  0.00  0.00    -0.274 OA
ATOM     23  N   UNL     1      32.366 -22.801 -16.590  0.00  0.00    -0.230 N 
ATOM     24  C   UNL     1      31.977 -22.721 -14.305  0.00  0.00    +0.086 C 
ATOM     25  C   UNL     1      30.640 -22.578 -15.040  0.00  0.00    +0.086 C 
ATOM     26  C   UNL     1      31.964 -23.578 -13.045  0.00  0.00    +0.010 C 
ATOM     27  C   UNL     1      29.765 -23.836 -15.027  0.00  0.00    +0.010 C 
ATOM     28  C   UNL     1      31.126 -24.841 -13.182  0.00  0.00    +0.001 C 
ATOM     29  C   UNL     1      29.720 -24.510 -13.664  0.00  0.00    +0.001 C 
ATOM     30  C   UNL     1      32.920 -23.200 -15.388  0.00  0.00    +0.231 C 
ATOM     31  C   UNL     1      31.080 -22.314 -16.463  0.00  0.00    +0.231 C 
ENDBRANCH  20  23
ENDBRANCH  19  20
ENDBRANCH  18  19
ENDBRANCH  17  18
ENDBRANCH   2  17
TORSDOF 5
ENDMDL
MODEL 2
REMARK VINA RESULT:     -12.9      2.090      2.792
REMARK  Name = 115368
REMARK  5 active torsions:
REMARK  status: ('A' for Active; 'I' for Inactive)
REMARK    1  A    between atoms: N_2  and  C_17
REMARK    2  A    between atoms: C_17  and  C_18
REMARK    3  A    between atoms: C_18  and  C_19
REMARK    4  A    between atoms: C_19  and  C_20
REMARK    5  A    between atoms: C_20  and  N_23
REMARK                            x       y       z     vdW  Elec       q    Type
REMARK                         _______ _______ _______ _____ _____    ______ ____
ROOT
ATOM      1  S   UNL     1      33.256 -13.939 -25.483  0.00  0.00    +0.014 S 
ATOM      2  N   UNL     1      34.765 -19.111 -21.637  0.00  0.00    +0.389 N 
ATOM      3  N   UNL     1      34.202 -16.749 -23.145  0.00  0.00    -0.297 N 
ATOM      4  N   UNL     1      33.784 -15.464 -25.111  0.00  0.00    -0.194 NA
ATOM      5  C   UNL     1      35.087 -17.785 -21.097  0.00  0.00    -0.055 C 
ATOM      6  C   UNL     1      33.572 -19.034 -22.493  0.00  0.00    -0.055 C 
ATOM      7  C   UNL     1      35.340 -16.774 -22.220  0.00  0.00    +0.069 C 
ATOM      8  C   UNL     1      33.804 -18.067 -23.654  0.00  0.00    +0.069 C 
ATOM      9  C   UNL     1      33.809 -15.594 -23.783  0.00  0.00    +0.140 A 
ATOM     10  C   UNL     1      33.400 -14.454 -23.007  0.00  0.00    +0.040 A 
ATOM     11  C   UNL     1      33.046 -13.406 -23.860  0.00  0.00    +0.050 A 
ATOM     12  C   UNL     1      33.307 -14.247 -21.613  0.00  0.00    +0.003 C 
ATOM     13  C   UNL     1      32.605 -12.165 -23.376  0.00  0.00    +0.008 C 
ATOM     14  C   UNL     1      32.869 -13.014 -21.121  0.00  0.00    +0.000 C 
ATOM     15  C   UNL     1      32.524 -11.987 -21.993  0.00  0.00    +0.001 C 
ATOM     16  H   UNL     1      35.550 -19.433 -22.203  0.00  0.00    -0.080 HD
ENDROOT
BRANCH   2  17
ATOM     17  C   UNL     1      34.558 -20.071 -20.553  0.00  0.00    -0.077 C 
BRANCH  17  18
ATOM     18  C   UNL     1      33.070 -20.200 -20.233  0.00  0.00    -0.021 C 
BRANCH  18  19
ATOM     19  C   UNL     1      32.847 -21.034 -18.967  0.00  0.00    +0.020 C 
BRANCH  19  20
ATOM     20  C   UNL     1      33.929 -22.089 -18.763  0.00  0.00    +0.101 C 
BRANCH  20  23
ATOM     21  O   UNL     1      36.509 -21.455 -17.460  0.00  0.00    -0.274 OA
ATOM     22  O   UNL     1      32.296 -23.138 -16.564  0.00  0.00    -0.274 OA
ATOM     23  N   UNL     1      34.301 -22.236 -17.369  0.00  0.00    -0.230 N 
ATOM     24  C   UNL     1      35.413 -21.977 -15.350  0.00  0.00    +0.086 C 
ATOM     25  C   UNL     1      34.268 -22.979 -15.160  0.00  0.00    +0.086 C 
ATOM     26  C   UNL     1      36.717 -22.303 -14.633  0.00  0.00    +0.010 C 
ATOM     27  C   UNL     1      34.707 -24.445 -15.081  0.00  0.00    +0.010 C 
ATOM     28  C   UNL     1      37.089 -23.778 -14.692  0.00  0.00    +0.001 C 
ATOM     29  C   UNL     1      35.936 -24.648 -14.208  0.00  0.00    +0.001 C 
ATOM     30  C   UNL     1      35.529 -21.863 -16.856  0.00  0.00    +0.231 C 
ATOM     31  C   UNL     1      33.459 -22.787 -16.423  0.00  0.00    +0.231 C 
ENDBRANCH  20  23
ENDBRANCH  19  20
ENDBRANCH  18  19
ENDBRANCH  17  18
ENDBRANCH   2  17
TORSDOF 5
ENDMDL
MODEL 3
REMARK VINA RESULT:     -12.6      2.538      3.563
REMARK  Name = 115368
REMARK  5 active torsions:
REMARK  status: ('A' for Active; 'I' for Inactive)
REMARK    1  A    between atoms: N_2  and  C_17
REMARK    2  A    between atoms: C_17  and  C_18
REMARK    3  A    between atoms: C_18  and  C_19
REMARK    4  A    between atoms: C_19  and  C_20
REMARK    5  A    between atoms: C_20  and  N_23
REMARK                            x       y       z     vdW  Elec       q    Type
REMARK                         _______ _______ _______ _____ _____    ______ ____
ROOT
ATOM      1  S   UNL     1      33.567 -14.943 -25.001  0.00  0.00    +0.014 S 
ATOM      2  N   UNL     1      35.064 -19.890 -20.865  0.00  0.00    +0.389 N 
ATOM      3  N   UNL     1      34.539 -17.623 -22.525  0.00  0.00    -0.297 N 
ATOM      4  N   UNL     1      33.985 -16.479 -24.544  0.00  0.00    -0.194 NA
ATOM      5  C   UNL     1      35.589 -18.566 -20.511  0.00  0.00    -0.055 C 
ATOM      6  C   UNL     1      33.779 -19.755 -21.565  0.00  0.00    -0.055 C 
ATOM      7  C   UNL     1      35.785 -17.695 -21.755  0.00  0.00    +0.069 C 
ATOM      8  C   UNL     1      33.944 -18.928 -22.841  0.00  0.00    +0.069 C 
ATOM      9  C   UNL     1      34.180 -16.492 -23.224  0.00  0.00    +0.140 A 
ATOM     10  C   UNL     1      33.998 -15.249 -22.525  0.00  0.00    +0.040 A 
ATOM     11  C   UNL     1      33.637 -14.248 -23.429  0.00  0.00    +0.050 A 
ATOM     12  C   UNL     1      34.120 -14.909 -21.159  0.00  0.00    +0.003 C 
ATOM     13  C   UNL     1      33.395 -12.926 -23.024  0.00  0.00    +0.008 C 
ATOM     14  C   UNL     1      33.880 -13.596 -20.745  0.00  0.00    +0.000 C 
ATOM     15  C   UNL     1      33.523 -12.618 -21.668  0.00  0.00    +0.001 C 
ATOM     16  H   UNL     1      35.728 -20.348 -21.490  0.00  0.00    -0.080 HD
ENDROOT
BRANCH   2  17
ATOM     17  C   UNL     1      34.914 -20.721 -19.671  0.00  0.00    -0.077 C 
BRANCH  17  18
ATOM     18  C   UNL     1      36.049 -20.446 -18.687  0.00  0.00    -0.021 C 
BRANCH  18  19
ATOM     19  C   UNL     1      36.293 -21.652 -17.773  0.00  0.00    +0.020 C 
BRANCH  19  20
ATOM     20  C   UNL     1      36.726 -21.245 -16.368  0.00  0.00    +0.101 C 
BRANCH  20  23
ATOM     21  O   UNL     1      34.238 -22.003 -14.956  0.00  0.00    -0.274 OA
ATOM     22  O   UNL     1      38.711 -23.124 -15.305  0.00  0.00    -0.274 OA
ATOM     23  N   UNL     1      36.520 -22.303 -15.399  0.00  0.00    -0.230 N 
ATOM     24  C   UNL     1      35.486 -23.892 -14.063  0.00  0.00    +0.086 C 
ATOM     25  C   UNL     1      36.994 -23.920 -13.788  0.00  0.00    +0.086 C 
ATOM     26  C   UNL     1      34.579 -24.053 -12.849  0.00  0.00    +0.010 C 
ATOM     27  C   UNL     1      37.417 -23.259 -12.473  0.00  0.00    +0.010 C 
ATOM     28  C   UNL     1      35.061 -23.284 -11.627  0.00  0.00    +0.001 C 
ATOM     29  C   UNL     1      36.510 -23.625 -11.308  0.00  0.00    +0.001 C 
ATOM     30  C   UNL     1      35.296 -22.601 -14.830  0.00  0.00    +0.231 C 
ATOM     31  C   UNL     1      37.546 -23.104 -14.936  0.00  0.00    +0.231 C 
ENDBRANCH  20  23
ENDBRANCH  19  20
ENDBRANCH  18  19
ENDBRANCH  17  18
ENDBRANCH   2  17
TORSDOF 5
ENDMDL
MODEL 4
REMARK VINA RESULT:     -12.3      4.256     10.499
REMARK  Name = 115368
REMARK  5 active torsions:
REMARK  status: ('A' for Active; 'I' for Inactive)
REMARK    1  A    between atoms: N_2  and  C_17
REMARK    2  A    between atoms: C_17  and  C_18
REMARK    3  A    between atoms: C_18  and  C_19
REMARK    4  A    between atoms: C_19  and  C_20
REMARK    5  A    between atoms: C_20  and  N_23
REMARK                            x       y       z     vdW  Elec       q    Type
REMARK                         _______ _______ _______ _____ _____    ______ ____
ROOT
ATOM      1  S   UNL     1      36.187 -20.936 -18.591  0.00  0.00    +0.014 S 
ATOM      2  N   UNL     1      34.388 -17.078 -23.660  0.00  0.00    +0.389 N 
ATOM      3  N   UNL     1      35.011 -18.885 -21.535  0.00  0.00    -0.297 N 
ATOM      4  N   UNL     1      36.386 -19.914 -19.879  0.00  0.00    -0.194 NA
ATOM      5  C   UNL     1      33.613 -18.310 -23.475  0.00  0.00    -0.055 C 
ATOM      6  C   UNL     1      34.858 -16.575 -22.362  0.00  0.00    -0.055 C 
ATOM      7  C   UNL     1      34.448 -19.395 -22.790  0.00  0.00    +0.069 C 
ATOM      8  C   UNL     1      35.737 -17.616 -21.667  0.00  0.00    +0.069 C 
ATOM      9  C   UNL     1      35.193 -19.696 -20.437  0.00  0.00    +0.140 A 
ATOM     10  C   UNL     1      34.063 -20.354 -19.840  0.00  0.00    +0.040 A 
ATOM     11  C   UNL     1      34.483 -21.116 -18.748  0.00  0.00    +0.050 A 
ATOM     12  C   UNL     1      32.688 -20.347 -20.166  0.00  0.00    +0.003 C 
ATOM     13  C   UNL     1      33.588 -21.869 -17.973  0.00  0.00    +0.008 C 
ATOM     14  C   UNL     1      31.789 -21.093 -19.400  0.00  0.00    +0.000 C 
ATOM     15  C   UNL     1      32.235 -21.844 -18.318  0.00  0.00    +0.001 C 
ATOM     16  H   UNL     1      35.200 -17.287 -24.241  0.00  0.00    -0.080 HD
ENDROOT
BRANCH   2  17
ATOM     17  C   UNL     1      33.587 -16.063 -24.344  0.00  0.00    -0.077 C 
BRANCH  17  18
ATOM     18  C   UNL     1      34.165 -14.672 -24.094  0.00  0.00    -0.021 C 
BRANCH  18  19
ATOM     19  C   UNL     1      33.076 -13.694 -23.641  0.00  0.00    +0.020 C 
BRANCH  19  20
ATOM     20  C   UNL     1      33.543 -12.777 -22.515  0.00  0.00    +0.101 C 
BRANCH  20  23
ATOM     21  O   UNL     1      33.069 -10.015 -23.465  0.00  0.00    -0.274 OA
ATOM     22  O   UNL     1      31.458 -13.168 -20.490  0.00  0.00    -0.274 OA
ATOM     23  N   UNL     1      32.516 -11.840 -22.103  0.00  0.00    -0.230 N 
ATOM     24  C   UNL     1      31.054 -10.040 -22.100  0.00  0.00    +0.086 C 
ATOM     25  C   UNL     1      30.859 -10.838 -20.806  0.00  0.00    +0.086 C 
ATOM     26  C   UNL     1      30.997  -8.523 -21.970  0.00  0.00    +0.010 C 
ATOM     27  C   UNL     1      31.472 -10.193 -19.558  0.00  0.00    +0.010 C 
ATOM     28  C   UNL     1      31.710  -7.995 -20.732  0.00  0.00    +0.001 C 
ATOM     29  C   UNL     1      31.210  -8.697 -19.477  0.00  0.00    +0.001 C 
ATOM     30  C   UNL     1      32.357 -10.581 -22.650  0.00  0.00    +0.231 C 
ATOM     31  C   UNL     1      31.607 -12.119 -21.101  0.00  0.00    +0.231 C 
ENDBRANCH  20  23
ENDBRANCH  19  20
ENDBRANCH  18  19
ENDBRANCH  17  18
ENDBRANCH   2  17
TORSDOF 5
ENDMDL
MODEL 5
REMARK VINA RESULT:     -11.8      3.695     10.116
REMARK  Name = 115368
REMARK  5 active torsions:
REMARK  status: ('A' for Active; 'I' for Inactive)
REMARK    1  A    between atoms: N_2  and  C_17
REMARK    2  A    between atoms: C_17  and  C_18
REMARK    3  A    between atoms: C_18  and  C_19
REMARK    4  A    between atoms: C_19  and  C_20
REMARK    5  A    between atoms: C_20  and  N_23
REMARK                            x       y       z     vdW  Elec       q    Type
REMARK                         _______ _______ _______ _____ _____    ______ ____
ROOT
ATOM      1  S   UNL     1      34.350 -24.133 -14.367  0.00  0.00    +0.014 S 
ATOM      2  N   UNL     1      34.767 -20.786 -20.063  0.00  0.00    +0.389 N 
ATOM      3  N   UNL     1      34.386 -22.292 -17.664  0.00  0.00    -0.297 N 
ATOM      4  N   UNL     1      35.051 -23.553 -15.751  0.00  0.00    -0.194 NA
ATOM      5  C   UNL     1      33.490 -21.461 -19.798  0.00  0.00    -0.055 C 
ATOM      6  C   UNL     1      35.383 -20.354 -18.800  0.00  0.00    -0.055 C 
ATOM      7  C   UNL     1      33.684 -22.680 -18.892  0.00  0.00    +0.069 C 
ATOM      8  C   UNL     1      35.635 -21.553 -17.885  0.00  0.00    +0.069 C 
ATOM      9  C   UNL     1      34.126 -22.898 -16.455  0.00  0.00    +0.140 A 
ATOM     10  C   UNL     1      32.801 -22.841 -15.898  0.00  0.00    +0.040 A 
ATOM     11  C   UNL     1      32.773 -23.517 -14.677  0.00  0.00    +0.050 A 
ATOM     12  C   UNL     1      31.608 -22.245 -16.364  0.00  0.00    +0.003 C 
ATOM     13  C   UNL     1      31.605 -23.623 -13.907  0.00  0.00    +0.008 C 
ATOM     14  C   UNL     1      30.439 -22.344 -15.604  0.00  0.00    +0.000 C 
ATOM     15  C   UNL     1      30.440 -23.025 -14.392  0.00  0.00    +0.001 C 
ATOM     16  H   UNL     1      35.395 -21.445 -20.523  0.00  0.00    -0.080 HD
ENDROOT
BRANCH   2  17
ATOM     17  C   UNL     1      34.569 -19.644 -20.956  0.00  0.00    -0.077 C 
BRANCH  17  18
ATOM     18  C   UNL     1      35.797 -18.736 -20.936  0.00  0.00    -0.021 C 
BRANCH  18  19
ATOM     19  C   UNL     1      35.868 -17.875 -22.201  0.00  0.00    +0.020 C 
BRANCH  19  20
ATOM     20  C   UNL     1      34.495 -17.397 -22.663  0.00  0.00    +0.101 C 
BRANCH  20  23
ATOM     21  O   UNL     1      34.134 -15.816 -20.189  0.00  0.00    -0.274 OA
ATOM     22  O   UNL     1      34.396 -15.375 -24.784  0.00  0.00    -0.274 OA
ATOM     23  N   UNL     1      34.331 -15.965 -22.519  0.00  0.00    -0.230 N 
ATOM     24  C   UNL     1      34.288 -13.837 -21.597  0.00  0.00    +0.086 C 
ATOM     25  C   UNL     1      33.860 -13.748 -23.066  0.00  0.00    +0.086 C 
ATOM     26  C   UNL     1      33.523 -12.953 -20.619  0.00  0.00    +0.010 C 
ATOM     27  C   UNL     1      32.356 -13.558 -23.284  0.00  0.00    +0.010 C 
ATOM     28  C   UNL     1      32.025 -12.907 -20.889  0.00  0.00    +0.001 C 
ATOM     29  C   UNL     1      31.746 -12.533 -22.339  0.00  0.00    +0.001 C 
ATOM     30  C   UNL     1      34.214 -15.320 -21.302  0.00  0.00    +0.231 C 
ATOM     31  C   UNL     1      34.254 -15.107 -23.600  0.00  0.00    +0.231 C 
ENDBRANCH  20  23
ENDBRANCH  19  20
ENDBRANCH  18  19
ENDBRANCH  17  18
ENDBRANCH   2  17
TORSDOF 5
ENDMDL
MODEL 6
REMARK VINA RESULT:     -11.6      4.760     10.753
REMARK  Name = 115368
REMARK  5 active torsions:
REMARK  status: ('A' for Active; 'I' for Inactive)
REMARK    1  A    between atoms: N_2  and  C_17
REMARK    2  A    between atoms: C_17  and  C_18
REMARK    3  A    between atoms: C_18  and  C_19
REMARK    4  A    between atoms: C_19  and  C_20
REMARK    5  A    between atoms: C_20  and  N_23
REMARK                            x       y       z     vdW  Elec       q    Type
REMARK                         _______ _______ _______ _____ _____    ______ ____
ROOT
ATOM      1  S   UNL     1      36.165 -24.194 -11.882  0.00  0.00    +0.014 S 
ATOM      2  N   UNL     1      34.424 -21.595 -17.715  0.00  0.00    +0.389 N 
ATOM      3  N   UNL     1      35.380 -22.653 -15.238  0.00  0.00    -0.297 N 
ATOM      4  N   UNL     1      35.229 -23.363 -12.965  0.00  0.00    -0.194 NA
ATOM      5  C   UNL     1      35.851 -21.535 -17.378  0.00  0.00    -0.055 C 
ATOM      6  C   UNL     1      33.814 -22.796 -17.127  0.00  0.00    -0.055 C 
ATOM      7  C   UNL     1      36.063 -21.515 -15.861  0.00  0.00    +0.069 C 
ATOM      8  C   UNL     1      33.965 -22.788 -15.606  0.00  0.00    +0.069 C 
ATOM      9  C   UNL     1      35.886 -23.284 -14.124  0.00  0.00    +0.140 A 
ATOM     10  C   UNL     1      37.186 -23.898 -14.180  0.00  0.00    +0.040 A 
ATOM     11  C   UNL     1      37.489 -24.473 -12.944  0.00  0.00    +0.050 A 
ATOM     12  C   UNL     1      38.135 -24.002 -15.221  0.00  0.00    +0.003 C 
ATOM     13  C   UNL     1      38.698 -25.145 -12.709  0.00  0.00    +0.008 C 
ATOM     14  C   UNL     1      39.342 -24.669 -14.997  0.00  0.00    +0.000 C 
ATOM     15  C   UNL     1      39.619 -25.232 -13.756  0.00  0.00    +0.001 C 
ATOM     16  H   UNL     1      33.962 -20.772 -17.327  0.00  0.00    -0.080 HD
ENDROOT
BRANCH   2  17
ATOM     17  C   UNL     1      34.237 -21.581 -19.166  0.00  0.00    -0.077 C 
BRANCH  17  18
ATOM     18  C   UNL     1      32.898 -20.938 -19.523  0.00  0.00    -0.021 C 
BRANCH  18  19
ATOM     19  C   UNL     1      33.066 -19.885 -20.623  0.00  0.00    +0.020 C 
BRANCH  19  20
ATOM     20  C   UNL     1      34.449 -19.243 -20.613  0.00  0.00    +0.101 C 
BRANCH  20  23
ATOM     21  O   UNL     1      34.571 -16.293 -20.421  0.00  0.00    -0.274 OA
ATOM     22  O   UNL     1      34.699 -19.748 -23.491  0.00  0.00    -0.274 OA
ATOM     23  N   UNL     1      34.615 -18.271 -21.676  0.00  0.00    -0.230 N 
ATOM     24  C   UNL     1      35.091 -16.298 -22.799  0.00  0.00    +0.086 C 
ATOM     25  C   UNL     1      34.622 -17.346 -23.815  0.00  0.00    +0.086 C 
ATOM     26  C   UNL     1      34.590 -14.876 -23.019  0.00  0.00    +0.010 C 
ATOM     27  C   UNL     1      33.188 -17.151 -24.320  0.00  0.00    +0.010 C 
ATOM     28  C   UNL     1      33.129 -14.807 -23.440  0.00  0.00    +0.001 C 
ATOM     29  C   UNL     1      32.869 -15.700 -24.646  0.00  0.00    +0.001 C 
ATOM     30  C   UNL     1      34.704 -16.908 -21.467  0.00  0.00    +0.231 C 
ATOM     31  C   UNL     1      34.678 -18.625 -23.010  0.00  0.00    +0.231 C 
ENDBRANCH  20  23
ENDBRANCH  19  20
ENDBRANCH  18  19
ENDBRANCH  17  18
ENDBRANCH   2  17
TORSDOF 5
ENDMDL
MODEL 7
REMARK VINA RESULT:     -11.2      7.324     13.254
REMARK  Name = 115368
REMARK  5 active torsions:
REMARK  status: ('A' for Active; 'I' for Inactive)
REMARK    1  A    between atoms: N_2  and  C_17
REMARK    2  A    between atoms: C_17  and  C_18
REMARK    3  A    between atoms: C_18  and  C_19
REMARK    4  A    between atoms: C_19  and  C_20
REMARK    5  A    between atoms: C_20  and  N_23
REMARK                            x       y       z     vdW  Elec       q    Type
REMARK                         _______ _______ _______ _____ _____    ______ ____
ROOT
ATOM      1  S   UNL     1      35.661 -18.369 -21.018  0.00  0.00    +0.014 S 
ATOM      2  N   UNL     1      32.698 -12.523 -21.949  0.00  0.00    +0.389 N 
ATOM      3  N   UNL     1      34.001 -15.060 -21.764  0.00  0.00    -0.297 N 
ATOM      4  N   UNL     1      35.285 -16.782 -20.726  0.00  0.00    -0.194 NA
ATOM      5  C   UNL     1      33.105 -13.245 -23.161  0.00  0.00    -0.055 C 
ATOM      6  C   UNL     1      32.339 -13.475 -20.889  0.00  0.00    -0.055 C 
ATOM      7  C   UNL     1      34.299 -14.163 -22.886  0.00  0.00    +0.069 C 
ATOM      8  C   UNL     1      33.524 -14.380 -20.553  0.00  0.00    +0.069 C 
ATOM      9  C   UNL     1      34.495 -16.344 -21.708  0.00  0.00    +0.140 A 
ATOM     10  C   UNL     1      34.162 -17.282 -22.746  0.00  0.00    +0.040 A 
ATOM     11  C   UNL     1      34.769 -18.512 -22.482  0.00  0.00    +0.050 A 
ATOM     12  C   UNL     1      33.369 -17.159 -23.909  0.00  0.00    +0.003 C 
ATOM     13  C   UNL     1      34.616 -19.619 -23.331  0.00  0.00    +0.008 C 
ATOM     14  C   UNL     1      33.211 -18.256 -24.761  0.00  0.00    +0.000 C 
ATOM     15  C   UNL     1      33.828 -19.469 -24.474  0.00  0.00    +0.001 C 
ATOM     16  H   UNL     1      33.483 -11.958 -21.627  0.00  0.00    -0.080 HD
ENDROOT
BRANCH   2  17
ATOM     17  C   UNL     1      31.578 -11.627 -22.237  0.00  0.00    -0.077 C 
BRANCH  17  18
ATOM     18  C   UNL     1      31.208 -10.823 -20.991  0.00  0.00    -0.021 C 
BRANCH  18  19
ATOM     19  C   UNL     1      31.161  -9.322 -21.295  0.00  0.00    +0.020 C 
BRANCH  19  20
ATOM     20  C   UNL     1      31.623  -8.997 -22.712  0.00  0.00    +0.101 C 
BRANCH  20  23
ATOM     21  O   UNL     1      30.403  -6.320 -22.395  0.00  0.00    -0.274 OA
ATOM     22  O   UNL     1      34.433  -8.398 -23.299  0.00  0.00    -0.274 OA
ATOM     23  N   UNL     1      32.256  -7.696 -22.801  0.00  0.00    -0.230 N 
ATOM     24  C   UNL     1      32.660  -5.424 -22.559  0.00  0.00    +0.086 C 
ATOM     25  C   UNL     1      33.818  -6.052 -23.344  0.00  0.00    +0.086 C 
ATOM     26  C   UNL     1      32.194  -4.052 -23.029  0.00  0.00    +0.010 C 
ATOM     27  C   UNL     1      33.797  -5.770 -24.849  0.00  0.00    +0.010 C 
ATOM     28  C   UNL     1      32.138  -3.919 -24.545  0.00  0.00    +0.001 C 
ATOM     29  C   UNL     1      33.465  -4.321 -25.175  0.00  0.00    +0.001 C 
ATOM     30  C   UNL     1      31.595  -6.500 -22.589  0.00  0.00    +0.231 C 
ATOM     31  C   UNL     1      33.588  -7.532 -23.129  0.00  0.00    +0.231 C 
ENDBRANCH  20  23
ENDBRANCH  19  20
ENDBRANCH  18  19
ENDBRANCH  17  18
ENDBRANCH   2  17
TORSDOF 5
ENDMDL
MODEL 8
REMARK VINA RESULT:     -11.2      4.620     10.719
REMARK  Name = 115368
REMARK  5 active torsions:
REMARK  status: ('A' for Active; 'I' for Inactive)
REMARK    1  A    between atoms: N_2  and  C_17
REMARK    2  A    between atoms: C_17  and  C_18
REMARK    3  A    between atoms: C_18  and  C_19
REMARK    4  A    between atoms: C_19  and  C_20
REMARK    5  A    between atoms: C_20  and  N_23
REMARK                            x       y       z     vdW  Elec       q    Type
REMARK                         _______ _______ _______ _____ _____    ______ ____
ROOT
ATOM      1  S   UNL     1      35.404 -23.916 -12.625  0.00  0.00    +0.014 S 
ATOM      2  N   UNL     1      35.114 -20.909 -18.515  0.00  0.00    +0.389 N 
ATOM      3  N   UNL     1      35.448 -22.145 -15.960  0.00  0.00    -0.297 N 
ATOM      4  N   UNL     1      34.757 -22.995 -13.840  0.00  0.00    -0.194 NA
ATOM      5  C   UNL     1      36.421 -20.904 -17.847  0.00  0.00    -0.055 C 
ATOM      6  C   UNL     1      34.374 -22.130 -18.171  0.00  0.00    -0.055 C 
ATOM      7  C   UNL     1      36.268 -20.985 -16.325  0.00  0.00    +0.069 C 
ATOM      8  C   UNL     1      34.160 -22.224 -16.659  0.00  0.00    +0.069 C 
ATOM      9  C   UNL     1      35.672 -22.858 -14.803  0.00  0.00    +0.140 A 
ATOM     10  C   UNL     1      36.943 -23.496 -14.592  0.00  0.00    +0.040 A 
ATOM     11  C   UNL     1      36.940 -24.157 -13.361  0.00  0.00    +0.050 A 
ATOM     12  C   UNL     1      38.111 -23.555 -15.384  0.00  0.00    +0.003 C 
ATOM     13  C   UNL     1      38.054 -24.869 -12.893  0.00  0.00    +0.008 C 
ATOM     14  C   UNL     1      39.226 -24.262 -14.926  0.00  0.00    +0.000 C 
ATOM     15  C   UNL     1      39.196 -24.910 -13.696  0.00  0.00    +0.001 C 
ATOM     16  H   UNL     1      34.579 -20.102 -18.192  0.00  0.00    -0.080 HD
ENDROOT
BRANCH   2  17
ATOM     17  C   UNL     1      35.277 -20.797 -19.964  0.00  0.00    -0.077 C 
BRANCH  17  18
ATOM     18  C   UNL     1      34.348 -19.720 -20.522  0.00  0.00    -0.021 C 
BRANCH  18  19
ATOM     19  C   UNL     1      35.131 -18.675 -21.322  0.00  0.00    +0.020 C 
BRANCH  19  20
ATOM     20  C   UNL     1      34.336 -18.121 -22.499  0.00  0.00    +0.101 C 
BRANCH  20  23
ATOM     21  O   UNL     1      34.232 -16.230 -20.225  0.00  0.00    -0.274 OA
ATOM     22  O   UNL     1      34.364 -16.362 -24.846  0.00  0.00    -0.274 OA
ATOM     23  N   UNL     1      34.324 -16.672 -22.525  0.00  0.00    -0.230 N 
ATOM     24  C   UNL     1      34.534 -14.458 -21.866  0.00  0.00    +0.086 C 
ATOM     25  C   UNL     1      34.062 -14.497 -23.324  0.00  0.00    +0.086 C 
ATOM     26  C   UNL     1      33.900 -13.389 -20.983  0.00  0.00    +0.010 C 
ATOM     27  C   UNL     1      32.577 -14.175 -23.525  0.00  0.00    +0.010 C 
ATOM     28  C   UNL     1      32.406 -13.217 -21.218  0.00  0.00    +0.001 C 
ATOM     29  C   UNL     1      32.112 -12.989 -22.695  0.00  0.00    +0.001 C 
ATOM     30  C   UNL     1      34.320 -15.880 -21.392  0.00  0.00    +0.231 C 
ATOM     31  C   UNL     1      34.295 -15.944 -23.699  0.00  0.00    +0.231 C 
ENDBRANCH  20  23
ENDBRANCH  19  20
ENDBRANCH  18  19
ENDBRANCH  17  18
ENDBRANCH   2  17
TORSDOF 5
ENDMDL
MODEL 9
REMARK VINA RESULT:     -11.1      3.788     10.695
REMARK  Name = 115368
REMARK  5 active torsions:
REMARK  status: ('A' for Active; 'I' for Inactive)
REMARK    1  A    between atoms: N_2  and  C_17
REMARK    2  A    between atoms: C_17  and  C_18
REMARK    3  A    between atoms: C_18  and  C_19
REMARK    4  A    between atoms: C_19  and  C_20
REMARK    5  A    between atoms: C_20  and  N_23
REMARK                            x       y       z     vdW  Elec       q    Type
REMARK                         _______ _______ _______ _____ _____    ______ ____
ROOT
ATOM      1  S   UNL     1      34.811 -24.241 -14.253  0.00  0.00    +0.014 S 
ATOM      2  N   UNL     1      34.158 -20.852 -19.902  0.00  0.00    +0.389 N 
ATOM      3  N   UNL     1      34.232 -22.377 -17.485  0.00  0.00    -0.297 N 
ATOM      4  N   UNL     1      35.242 -23.650 -15.739  0.00  0.00    -0.194 NA
ATOM      5  C   UNL     1      32.954 -21.531 -19.409  0.00  0.00    -0.055 C 
ATOM      6  C   UNL     1      34.999 -20.429 -18.774  0.00  0.00    -0.055 C 
ATOM      7  C   UNL     1      33.313 -22.757 -18.564  0.00  0.00    +0.069 C 
ATOM      8  C   UNL     1      35.417 -21.634 -17.931  0.00  0.00    +0.069 C 
ATOM      9  C   UNL     1      34.201 -22.992 -16.254  0.00  0.00    +0.140 A 
ATOM     10  C   UNL     1      33.004 -22.940 -15.459  0.00  0.00    +0.040 A 
ATOM     11  C   UNL     1      33.204 -23.625 -14.259  0.00  0.00    +0.050 A 
ATOM     12  C   UNL     1      31.745 -22.343 -15.690  0.00  0.00    +0.003 C 
ATOM     13  C   UNL     1      32.200 -23.738 -13.286  0.00  0.00    +0.008 C 
ATOM     14  C   UNL     1      30.738 -22.448 -14.726  0.00  0.00    +0.000 C 
ATOM     15  C   UNL     1      30.965 -23.138 -13.540  0.00  0.00    +0.001 C 
ATOM     16  H   UNL     1      34.690 -21.507 -20.476  0.00  0.00    -0.080 HD
ENDROOT
BRANCH   2  17
ATOM     17  C   UNL     1      33.797 -19.705 -20.734  0.00  0.00    -0.077 C 
BRANCH  17  18
ATOM     18  C   UNL     1      35.052 -18.947 -21.167  0.00  0.00    -0.021 C 
BRANCH  18  19
ATOM     19  C   UNL     1      34.807 -18.168 -22.463  0.00  0.00    +0.020 C 
BRANCH  19  20
ATOM     20  C   UNL     1      35.418 -16.771 -22.432  0.00  0.00    +0.101 C 
BRANCH  20  23
ATOM     21  O   UNL     1      34.360 -15.732 -24.993  0.00  0.00    -0.274 OA
ATOM     22  O   UNL     1      34.025 -15.160 -20.416  0.00  0.00    -0.274 OA
ATOM     23  N   UNL     1      34.432 -15.732 -22.650  0.00  0.00    -0.230 N 
ATOM     24  C   UNL     1      32.810 -14.414 -23.657  0.00  0.00    +0.086 C 
ATOM     25  C   UNL     1      33.075 -13.880 -22.245  0.00  0.00    +0.086 C 
ATOM     26  C   UNL     1      32.600 -13.367 -24.744  0.00  0.00    +0.010 C 
ATOM     27  C   UNL     1      33.916 -12.601 -22.192  0.00  0.00    +0.010 C 
ATOM     28  C   UNL     1      33.549 -12.181 -24.633  0.00  0.00    +0.001 C 
ATOM     29  C   UNL     1      33.500 -11.576 -23.237  0.00  0.00    +0.001 C 
ATOM     30  C   UNL     1      33.973 -15.353 -23.898  0.00  0.00    +0.231 C 
ATOM     31  C   UNL     1      33.870 -15.004 -21.619  0.00  0.00    +0.231 C 
ENDBRANCH  20  23
ENDBRANCH  19  20
ENDBRANCH  18  19
ENDBRANCH  17  18
ENDBRANCH   2  17
TORSDOF 5
ENDMDL
