MODEL 1
REMARK VINA RESULT:     -13.5      0.000      0.000
REMARK  Name = 44123754
REMARK  11 active torsions:
REMARK  status: ('A' for Active; 'I' for Inactive)
REMARK    1  A    between atoms: C_3  and  C_22
REMARK    2  A    between atoms: C_4  and  C_7
REMARK    3  A    between atoms: N_6  and  C_15
REMARK    4  A    between atoms: C_8  and  N_12
REMARK    5  A    between atoms: C_15  and  O_16
REMARK    6  A    between atoms: O_16  and  P_17
REMARK    7  A    between atoms: P_17  and  O_20
REMARK    8  A    between atoms: C_22  and  C_23
REMARK    9  A    between atoms: C_26  and  C_29
REMARK   10  A    between atoms: C_29  and  O_30
REMARK   11  A    between atoms: O_30  and  C_32
REMARK                            x       y       z     vdW  Elec       q    Type
REMARK                         _______ _______ _______ _____ _____    ______ ____
ROOT
ATOM      1  O   UNL     1      34.365 -15.651 -21.180  0.00  0.00    -0.354 OA
ATOM      2  N   UNL     1      34.932 -16.749 -20.542  0.00  0.00    -0.081 NA
ATOM      3  C   UNL     1      35.299 -17.570 -21.530  0.00  0.00    +0.105 C 
ATOM      4  C   UNL     1      34.406 -15.843 -22.523  0.00  0.00    +0.175 C 
ATOM      5  C   UNL     1      34.991 -17.050 -22.799  0.00  0.00    +0.058 C 
ENDROOT
BRANCH   4   7
ATOM      6  N   UNL     1      33.177 -12.530 -23.610  0.00  0.00    -0.266 N 
ATOM      7  C   UNL     1      33.848 -14.778 -23.324  0.00  0.00    +0.048 C 
ATOM      8  C   UNL     1      33.699 -13.489 -22.833  0.00  0.00    +0.156 C 
ATOM      9  C   UNL     1      33.446 -15.048 -24.628  0.00  0.00    +0.003 C 
ATOM     10  C   UNL     1      32.782 -12.763 -24.869  0.00  0.00    +0.064 C 
ATOM     11  C   UNL     1      32.907 -14.033 -25.413  0.00  0.00    +0.016 C 
BRANCH   8  12
ATOM     12  N   UNL     1      34.095 -13.172 -21.515  0.00  0.00    -0.303 NA
ATOM     13  H   UNL     1      33.451 -13.258 -20.774  0.00  0.00    +0.121 HD
ATOM     14  H   UNL     1      35.013 -12.867 -21.337  0.00  0.00    +0.121 HD
ENDBRANCH   8  12
BRANCH   6  15
ATOM     15  C   UNL     1      33.021 -11.169 -23.091  0.00  0.00    +0.251 C 
BRANCH  15  16
ATOM     16  O   UNL     1      31.648 -10.948 -22.801  0.00  0.00    -0.250 OA
BRANCH  16  17
ATOM     17  P   UNL     1      31.204 -10.568 -21.275  0.00  0.00    +0.504 P 
ATOM     18  O   UNL     1      31.491  -9.107 -21.008  0.00  0.00    -0.225 OA
ATOM     19  O   UNL     1      31.730 -11.637 -20.342  0.00  0.00    -0.116 OA
BRANCH  17  20
ATOM     20  O   UNL     1      29.588 -10.764 -21.410  0.00  0.00    -0.301 OA
ATOM     21  H   UNL     1      29.379 -11.147 -22.277  0.00  0.00    +0.222 HD
ENDBRANCH  17  20
ENDBRANCH  16  17
ENDBRANCH  15  16
ENDBRANCH   6  15
ENDBRANCH   4   7
BRANCH   3  22
ATOM     22  C   UNL     1      35.946 -18.854 -21.215  0.00  0.00    +0.075 C 
BRANCH  22  23
ATOM     23  C   UNL     1      35.109 -19.792 -20.354  0.00  0.00    -0.016 C 
ATOM     24  C   UNL     1      33.719 -19.794 -20.474  0.00  0.00    -0.004 C 
ATOM     25  C   UNL     1      35.732 -20.650 -19.447  0.00  0.00    -0.004 C 
ATOM     26  C   UNL     1      33.576 -21.510 -18.779  0.00  0.00    +0.021 C 
ATOM     27  C   UNL     1      32.953 -20.652 -19.686  0.00  0.00    -0.001 C 
ATOM     28  C   UNL     1      34.966 -21.508 -18.660  0.00  0.00    -0.001 C 
BRANCH  26  29
ATOM     29  C   UNL     1      32.756 -22.429 -17.939  0.00  0.00    +0.234 C 
BRANCH  29  30
ATOM     30  O   UNL     1      31.446 -21.895 -17.795  0.00  0.00    -0.455 OA
BRANCH  30  32
ATOM     31  N   UNL     1      29.400 -22.127 -16.725  0.00  0.00    -0.210 NA
ATOM     32  C   UNL     1      30.743 -22.276 -16.682  0.00  0.00    +0.225 C 
ATOM     33  C   UNL     1      31.433 -22.787 -15.594  0.00  0.00    +0.058 C 
ATOM     34  C   UNL     1      30.697 -23.168 -14.478  0.00  0.00    +0.006 C 
ATOM     35  C   UNL     1      28.718 -22.509 -15.621  0.00  0.00    +0.102 C 
ATOM     36  C   UNL     1      29.313 -23.030 -14.484  0.00  0.00    +0.021 C 
ENDBRANCH  30  32
ENDBRANCH  29  30
ENDBRANCH  26  29
ENDBRANCH  22  23
ENDBRANCH   3  22
TORSDOF 11
ENDMDL
MODEL 2
REMARK VINA RESULT:     -13.5      5.902     12.261
REMARK  Name = 44123754
REMARK  11 active torsions:
REMARK  status: ('A' for Active; 'I' for Inactive)
REMARK    1  A    between atoms: C_3  and  C_22
REMARK    2  A    between atoms: C_4  and  C_7
REMARK    3  A    between atoms: N_6  and  C_15
REMARK    4  A    between atoms: C_8  and  N_12
REMARK    5  A    between atoms: C_15  and  O_16
REMARK    6  A    between atoms: O_16  and  P_17
REMARK    7  A    between atoms: P_17  and  O_20
REMARK    8  A    between atoms: C_22  and  C_23
REMARK    9  A    between atoms: C_26  and  C_29
REMARK   10  A    between atoms: C_29  and  O_30
REMARK   11  A    between atoms: O_30  and  C_32
REMARK                            x       y       z     vdW  Elec       q    Type
REMARK                         _______ _______ _______ _____ _____    ______ ____
ROOT
ATOM      1  O   UNL     1      34.489 -24.323 -15.862  0.00  0.00    -0.354 OA
ATOM      2  N   UNL     1      33.757 -23.997 -16.998  0.00  0.00    -0.081 NA
ATOM      3  C   UNL     1      33.109 -22.873 -16.681  0.00  0.00    +0.105 C 
ATOM      4  C   UNL     1      34.261 -23.393 -14.899  0.00  0.00    +0.175 C 
ATOM      5  C   UNL     1      33.389 -22.447 -15.370  0.00  0.00    +0.058 C 
ENDROOT
BRANCH   4   7
ATOM      6  N   UNL     1      36.947 -23.904 -12.412  0.00  0.00    -0.266 N 
ATOM      7  C   UNL     1      34.958 -23.600 -13.652  0.00  0.00    +0.048 C 
ATOM      8  C   UNL     1      36.340 -23.713 -13.591  0.00  0.00    +0.156 C 
ATOM      9  C   UNL     1      34.226 -23.689 -12.472  0.00  0.00    +0.003 C 
ATOM     10  C   UNL     1      36.266 -23.994 -11.261  0.00  0.00    +0.064 C 
ATOM     11  C   UNL     1      34.883 -23.888 -11.261  0.00  0.00    +0.016 C 
BRANCH   8  12
ATOM     12  N   UNL     1      37.119 -23.628 -14.765  0.00  0.00    -0.303 NA
ATOM     13  H   UNL     1      38.101 -23.581 -14.702  0.00  0.00    +0.121 HD
ATOM     14  H   UNL     1      36.681 -23.615 -15.646  0.00  0.00    +0.121 HD
ENDBRANCH   8  12
BRANCH   6  15
ATOM     15  C   UNL     1      38.405 -24.023 -12.349  0.00  0.00    +0.251 C 
BRANCH  15  16
ATOM     16  O   UNL     1      38.782 -25.281 -12.892  0.00  0.00    -0.250 OA
BRANCH  16  17
ATOM     17  P   UNL     1      39.941 -25.339 -14.042  0.00  0.00    +0.504 P 
ATOM     18  O   UNL     1      40.869 -26.504 -13.775  0.00  0.00    -0.225 OA
ATOM     19  O   UNL     1      40.496 -23.945 -14.235  0.00  0.00    -0.116 OA
BRANCH  17  20
ATOM     20  O   UNL     1      39.014 -25.700 -15.338  0.00  0.00    -0.301 OA
ATOM     21  H   UNL     1      38.078 -25.588 -15.108  0.00  0.00    +0.222 HD
ENDBRANCH  17  20
ENDBRANCH  16  17
ENDBRANCH  15  16
ENDBRANCH   6  15
ENDBRANCH   4   7
BRANCH   3  22
ATOM     22  C   UNL     1      32.223 -22.233 -17.667  0.00  0.00    +0.075 C 
BRANCH  22  23
ATOM     23  C   UNL     1      32.941 -21.370 -18.697  0.00  0.00    -0.016 C 
ATOM     24  C   UNL     1      32.206 -20.539 -19.542  0.00  0.00    -0.004 C 
ATOM     25  C   UNL     1      34.332 -21.411 -18.795  0.00  0.00    -0.004 C 
ATOM     26  C   UNL     1      34.254 -19.790 -20.584  0.00  0.00    +0.021 C 
ATOM     27  C   UNL     1      32.862 -19.749 -20.486  0.00  0.00    -0.001 C 
ATOM     28  C   UNL     1      34.988 -20.621 -19.738  0.00  0.00    -0.001 C 
BRANCH  26  29
ATOM     29  C   UNL     1      34.955 -18.943 -21.591  0.00  0.00    +0.234 C 
BRANCH  29  30
ATOM     30  O   UNL     1      35.400 -17.742 -20.971  0.00  0.00    -0.455 OA
BRANCH  30  32
ATOM     31  N   UNL     1      34.367 -15.738 -20.423  0.00  0.00    -0.210 NA
ATOM     32  C   UNL     1      34.809 -16.578 -21.386  0.00  0.00    +0.225 C 
ATOM     33  C   UNL     1      34.700 -16.327 -22.744  0.00  0.00    +0.058 C 
ATOM     34  C   UNL     1      34.098 -15.137 -23.141  0.00  0.00    +0.006 C 
ATOM     35  C   UNL     1      33.789 -14.591 -20.846  0.00  0.00    +0.102 C 
ATOM     36  C   UNL     1      33.632 -14.247 -22.179  0.00  0.00    +0.021 C 
ENDBRANCH  30  32
ENDBRANCH  29  30
ENDBRANCH  26  29
ENDBRANCH  22  23
ENDBRANCH   3  22
TORSDOF 11
ENDMDL
MODEL 3
REMARK VINA RESULT:     -13.1      3.676     10.543
REMARK  Name = 44123754
REMARK  11 active torsions:
REMARK  status: ('A' for Active; 'I' for Inactive)
REMARK    1  A    between atoms: C_3  and  C_22
REMARK    2  A    between atoms: C_4  and  C_7
REMARK    3  A    between atoms: N_6  and  C_15
REMARK    4  A    between atoms: C_8  and  N_12
REMARK    5  A    between atoms: C_15  and  O_16
REMARK    6  A    between atoms: O_16  and  P_17
REMARK    7  A    between atoms: P_17  and  O_20
REMARK    8  A    between atoms: C_22  and  C_23
REMARK    9  A    between atoms: C_26  and  C_29
REMARK   10  A    between atoms: C_29  and  O_30
REMARK   11  A    between atoms: O_30  and  C_32
REMARK                            x       y       z     vdW  Elec       q    Type
REMARK                         _______ _______ _______ _____ _____    ______ ____
ROOT
ATOM      1  O   UNL     1      33.328 -22.865 -18.183  0.00  0.00    -0.354 OA
ATOM      2  N   UNL     1      34.149 -22.351 -19.180  0.00  0.00    -0.081 NA
ATOM      3  C   UNL     1      35.092 -21.664 -18.530  0.00  0.00    +0.105 C 
ATOM      4  C   UNL     1      33.797 -22.475 -16.970  0.00  0.00    +0.175 C 
ATOM      5  C   UNL     1      34.919 -21.707 -17.135  0.00  0.00    +0.058 C 
ENDROOT
BRANCH   4   7
ATOM      6  N   UNL     1      31.009 -23.182 -14.648  0.00  0.00    -0.266 N 
ATOM      7  C   UNL     1      33.041 -22.937 -15.829  0.00  0.00    +0.048 C 
ATOM      8  C   UNL     1      31.672 -22.736 -15.724  0.00  0.00    +0.156 C 
ATOM      9  C   UNL     1      33.702 -23.603 -14.802  0.00  0.00    +0.003 C 
ATOM     10  C   UNL     1      31.621 -23.826 -13.645  0.00  0.00    +0.064 C 
ATOM     11  C   UNL     1      32.988 -24.055 -13.696  0.00  0.00    +0.016 C 
BRANCH   8  12
ATOM     12  N   UNL     1      30.964 -22.064 -16.744  0.00  0.00    -0.303 NA
ATOM     13  H   UNL     1      30.971 -22.418 -17.663  0.00  0.00    +0.121 HD
ATOM     14  H   UNL     1      30.463 -21.243 -16.535  0.00  0.00    +0.121 HD
ENDBRANCH   8  12
BRANCH   6  15
ATOM     15  C   UNL     1      29.564 -22.970 -14.537  0.00  0.00    +0.251 C 
BRANCH  15  16
ATOM     16  O   UNL     1      28.923 -23.642 -15.613  0.00  0.00    -0.250 OA
BRANCH  16  17
ATOM     17  P   UNL     1      27.559 -23.009 -16.251  0.00  0.00    +0.504 P 
ATOM     18  O   UNL     1      26.612 -22.608 -15.141  0.00  0.00    -0.225 OA
ATOM     19  O   UNL     1      27.090 -23.912 -17.371  0.00  0.00    -0.116 OA
BRANCH  17  20
ATOM     20  O   UNL     1      28.180 -21.654 -16.919  0.00  0.00    -0.301 OA
ATOM     21  H   UNL     1      28.495 -21.062 -16.218  0.00  0.00    +0.222 HD
ENDBRANCH  17  20
ENDBRANCH  16  17
ENDBRANCH  15  16
ENDBRANCH   6  15
ENDBRANCH   4   7
BRANCH   3  22
ATOM     22  C   UNL     1      36.149 -20.973 -19.286  0.00  0.00    +0.075 C 
BRANCH  22  23
ATOM     23  C   UNL     1      35.644 -19.929 -20.274  0.00  0.00    -0.016 C 
ATOM     24  C   UNL     1      34.341 -20.008 -20.767  0.00  0.00    -0.004 C 
ATOM     25  C   UNL     1      36.483 -18.893 -20.686  0.00  0.00    -0.004 C 
ATOM     26  C   UNL     1      34.718 -18.018 -22.083  0.00  0.00    +0.021 C 
ATOM     27  C   UNL     1      33.878 -19.053 -21.671  0.00  0.00    -0.001 C 
ATOM     28  C   UNL     1      36.020 -17.938 -21.590  0.00  0.00    -0.001 C 
BRANCH  26  29
ATOM     29  C   UNL     1      34.222 -16.995 -23.048  0.00  0.00    +0.234 C 
BRANCH  29  30
ATOM     30  O   UNL     1      34.824 -15.739 -22.757  0.00  0.00    -0.455 OA
BRANCH  30  32
ATOM     31  N   UNL     1      33.424 -13.972 -23.304  0.00  0.00    -0.210 NA
ATOM     32  C   UNL     1      33.989 -14.736 -22.342  0.00  0.00    +0.225 C 
ATOM     33  C   UNL     1      33.770 -14.562 -20.985  0.00  0.00    +0.058 C 
ATOM     34  C   UNL     1      32.917 -13.537 -20.589  0.00  0.00    +0.006 C 
ATOM     35  C   UNL     1      32.600 -12.986 -22.882  0.00  0.00    +0.102 C 
ATOM     36  C   UNL     1      32.316 -12.730 -21.550  0.00  0.00    +0.021 C 
ENDBRANCH  30  32
ENDBRANCH  29  30
ENDBRANCH  26  29
ENDBRANCH  22  23
ENDBRANCH   3  22
TORSDOF 11
ENDMDL
MODEL 4
REMARK VINA RESULT:     -12.9      4.467     11.257
REMARK  Name = 44123754
REMARK  11 active torsions:
REMARK  status: ('A' for Active; 'I' for Inactive)
REMARK    1  A    between atoms: C_3  and  C_22
REMARK    2  A    between atoms: C_4  and  C_7
REMARK    3  A    between atoms: N_6  and  C_15
REMARK    4  A    between atoms: C_8  and  N_12
REMARK    5  A    between atoms: C_15  and  O_16
REMARK    6  A    between atoms: O_16  and  P_17
REMARK    7  A    between atoms: P_17  and  O_20
REMARK    8  A    between atoms: C_22  and  C_23
REMARK    9  A    between atoms: C_26  and  C_29
REMARK   10  A    between atoms: C_29  and  O_30
REMARK   11  A    between atoms: O_30  and  C_32
REMARK                            x       y       z     vdW  Elec       q    Type
REMARK                         _______ _______ _______ _____ _____    ______ ____
ROOT
ATOM      1  O   UNL     1      35.956 -20.143 -19.367  0.00  0.00    -0.354 OA
ATOM      2  N   UNL     1      36.180 -19.368 -20.499  0.00  0.00    -0.081 NA
ATOM      3  C   UNL     1      35.039 -19.431 -21.191  0.00  0.00    +0.105 C 
ATOM      4  C   UNL     1      34.696 -20.647 -19.410  0.00  0.00    +0.175 C 
ATOM      5  C   UNL     1      34.070 -20.223 -20.552  0.00  0.00    +0.058 C 
ENDROOT
BRANCH   4   7
ATOM      6  N   UNL     1      34.771 -22.473 -16.197  0.00  0.00    -0.266 N 
ATOM      7  C   UNL     1      34.316 -21.478 -18.292  0.00  0.00    +0.048 C 
ATOM      8  C   UNL     1      35.164 -21.694 -17.214  0.00  0.00    +0.156 C 
ATOM      9  C   UNL     1      33.063 -22.083 -18.290  0.00  0.00    +0.003 C 
ATOM     10  C   UNL     1      33.571 -23.067 -16.170  0.00  0.00    +0.064 C 
ATOM     11  C   UNL     1      32.682 -22.887 -17.220  0.00  0.00    +0.016 C 
BRANCH   8  12
ATOM     12  N   UNL     1      36.444 -21.099 -17.177  0.00  0.00    -0.303 NA
ATOM     13  H   UNL     1      37.250 -21.664 -17.206  0.00  0.00    +0.121 HD
ATOM     14  H   UNL     1      36.529 -20.120 -17.122  0.00  0.00    +0.121 HD
ENDBRANCH   8  12
BRANCH   6  15
ATOM     15  C   UNL     1      35.666 -22.700 -15.060  0.00  0.00    +0.251 C 
BRANCH  15  16
ATOM     16  O   UNL     1      36.587 -23.726 -15.405  0.00  0.00    -0.250 OA
BRANCH  16  17
ATOM     17  P   UNL     1      36.464 -25.186 -14.681  0.00  0.00    +0.504 P 
ATOM     18  O   UNL     1      35.425 -26.025 -15.394  0.00  0.00    -0.225 OA
ATOM     19  O   UNL     1      36.384 -24.974 -13.185  0.00  0.00    -0.116 OA
BRANCH  17  20
ATOM     20  O   UNL     1      37.943 -25.783 -15.031  0.00  0.00    -0.301 OA
ATOM     21  H   UNL     1      37.856 -26.519 -15.657  0.00  0.00    +0.222 HD
ENDBRANCH  17  20
ENDBRANCH  16  17
ENDBRANCH  15  16
ENDBRANCH   6  15
ENDBRANCH   4   7
BRANCH   3  22
ATOM     22  C   UNL     1      34.916 -18.714 -22.471  0.00  0.00    +0.075 C 
BRANCH  22  23
ATOM     23  C   UNL     1      34.609 -17.228 -22.338  0.00  0.00    -0.016 C 
ATOM     24  C   UNL     1      34.463 -16.656 -21.074  0.00  0.00    -0.004 C 
ATOM     25  C   UNL     1      34.476 -16.438 -23.480  0.00  0.00    -0.004 C 
ATOM     26  C   UNL     1      34.048 -14.506 -22.094  0.00  0.00    +0.021 C 
ATOM     27  C   UNL     1      34.182 -15.296 -20.951  0.00  0.00    -0.001 C 
ATOM     28  C   UNL     1      34.195 -15.077 -23.358  0.00  0.00    -0.001 C 
BRANCH  26  29
ATOM     29  C   UNL     1      33.750 -13.051 -21.963  0.00  0.00    +0.234 C 
BRANCH  29  30
ATOM     30  O   UNL     1      32.407 -12.805 -22.362  0.00  0.00    -0.455 OA
BRANCH  30  32
ATOM     31  N   UNL     1      32.177 -10.610 -23.075  0.00  0.00    -0.210 NA
ATOM     32  C   UNL     1      31.916 -11.546 -22.136  0.00  0.00    +0.225 C 
ATOM     33  C   UNL     1      31.191 -11.306 -20.980  0.00  0.00    +0.058 C 
ATOM     34  C   UNL     1      30.702 -10.020 -20.774  0.00  0.00    +0.006 C 
ATOM     35  C   UNL     1      31.684  -9.372 -22.841  0.00  0.00    +0.102 C 
ATOM     36  C   UNL     1      30.949  -9.029 -21.718  0.00  0.00    +0.021 C 
ENDBRANCH  30  32
ENDBRANCH  29  30
ENDBRANCH  26  29
ENDBRANCH  22  23
ENDBRANCH   3  22
TORSDOF 11
ENDMDL
MODEL 5
REMARK VINA RESULT:     -12.8      1.543      2.147
REMARK  Name = 44123754
REMARK  11 active torsions:
REMARK  status: ('A' for Active; 'I' for Inactive)
REMARK    1  A    between atoms: C_3  and  C_22
REMARK    2  A    between atoms: C_4  and  C_7
REMARK    3  A    between atoms: N_6  and  C_15
REMARK    4  A    between atoms: C_8  and  N_12
REMARK    5  A    between atoms: C_15  and  O_16
REMARK    6  A    between atoms: O_16  and  P_17
REMARK    7  A    between atoms: P_17  and  O_20
REMARK    8  A    between atoms: C_22  and  C_23
REMARK    9  A    between atoms: C_26  and  C_29
REMARK   10  A    between atoms: C_29  and  O_30
REMARK   11  A    between atoms: O_30  and  C_32
REMARK                            x       y       z     vdW  Elec       q    Type
REMARK                         _______ _______ _______ _____ _____    ______ ____
ROOT
ATOM      1  O   UNL     1      33.923 -15.855 -23.079  0.00  0.00    -0.354 OA
ATOM      2  N   UNL     1      34.615 -17.060 -23.133  0.00  0.00    -0.081 NA
ATOM      3  C   UNL     1      35.017 -17.284 -21.879  0.00  0.00    +0.105 C 
ATOM      4  C   UNL     1      33.929 -15.392 -21.802  0.00  0.00    +0.175 C 
ATOM      5  C   UNL     1      34.612 -16.265 -20.998  0.00  0.00    +0.058 C 
ENDROOT
BRANCH   4   7
ATOM      6  N   UNL     1      32.593 -11.982 -22.300  0.00  0.00    -0.266 N 
ATOM      7  C   UNL     1      33.242 -14.139 -21.589  0.00  0.00    +0.048 C 
ATOM      8  C   UNL     1      33.244 -13.128 -22.539  0.00  0.00    +0.156 C 
ATOM      9  C   UNL     1      32.557 -13.936 -20.395  0.00  0.00    +0.003 C 
ATOM     10  C   UNL     1      31.927 -11.759 -21.160  0.00  0.00    +0.064 C 
ATOM     11  C   UNL     1      31.891 -12.734 -20.174  0.00  0.00    +0.016 C 
BRANCH   8  12
ATOM     12  N   UNL     1      33.927 -13.295 -23.764  0.00  0.00    -0.303 NA
ATOM     13  H   UNL     1      34.855 -13.625 -23.769  0.00  0.00    +0.121 HD
ATOM     14  H   UNL     1      33.475 -13.081 -24.611  0.00  0.00    +0.121 HD
ENDBRANCH   8  12
BRANCH   6  15
ATOM     15  C   UNL     1      32.595 -10.915 -23.304  0.00  0.00    +0.251 C 
BRANCH  15  16
ATOM     16  O   UNL     1      31.674  -9.911 -22.902  0.00  0.00    -0.250 OA
BRANCH  16  17
ATOM     17  P   UNL     1      32.133  -8.343 -22.941  0.00  0.00    +0.504 P 
ATOM     18  O   UNL     1      31.166  -7.547 -23.791  0.00  0.00    -0.225 OA
ATOM     19  O   UNL     1      33.620  -8.286 -23.215  0.00  0.00    -0.116 OA
BRANCH  17  20
ATOM     20  O   UNL     1      31.890  -7.954 -21.374  0.00  0.00    -0.301 OA
ATOM     21  H   UNL     1      32.614  -7.386 -21.065  0.00  0.00    +0.222 HD
ENDBRANCH  17  20
ENDBRANCH  16  17
ENDBRANCH  15  16
ENDBRANCH   6  15
ENDBRANCH   4   7
BRANCH   3  22
ATOM     22  C   UNL     1      35.792 -18.494 -21.561  0.00  0.00    +0.075 C 
BRANCH  22  23
ATOM     23  C   UNL     1      35.076 -19.487 -20.655  0.00  0.00    -0.016 C 
ATOM     24  C   UNL     1      33.685 -19.583 -20.688  0.00  0.00    -0.004 C 
ATOM     25  C   UNL     1      35.811 -20.302 -19.793  0.00  0.00    -0.004 C 
ATOM     26  C   UNL     1      33.763 -21.306 -18.997  0.00  0.00    +0.021 C 
ATOM     27  C   UNL     1      33.028 -20.492 -19.859  0.00  0.00    -0.001 C 
ATOM     28  C   UNL     1      35.154 -21.211 -18.964  0.00  0.00    -0.001 C 
BRANCH  26  29
ATOM     29  C   UNL     1      33.061 -22.280 -18.113  0.00  0.00    +0.234 C 
BRANCH  29  30
ATOM     30  O   UNL     1      31.692 -21.912 -17.997  0.00  0.00    -0.455 OA
BRANCH  30  32
ATOM     31  N   UNL     1      29.709 -22.122 -16.812  0.00  0.00    -0.210 NA
ATOM     32  C   UNL     1      31.052 -22.271 -16.840  0.00  0.00    +0.225 C 
ATOM     33  C   UNL     1      31.801 -22.760 -15.782  0.00  0.00    +0.058 C 
ATOM     34  C   UNL     1      31.128 -23.119 -14.619  0.00  0.00    +0.006 C 
ATOM     35  C   UNL     1      29.089 -22.482 -15.665  0.00  0.00    +0.102 C 
ATOM     36  C   UNL     1      29.746 -22.981 -14.552  0.00  0.00    +0.021 C 
ENDBRANCH  30  32
ENDBRANCH  29  30
ENDBRANCH  26  29
ENDBRANCH  22  23
ENDBRANCH   3  22
TORSDOF 11
ENDMDL
MODEL 6
REMARK VINA RESULT:     -12.6      4.505     11.300
REMARK  Name = 44123754
REMARK  11 active torsions:
REMARK  status: ('A' for Active; 'I' for Inactive)
REMARK    1  A    between atoms: C_3  and  C_22
REMARK    2  A    between atoms: C_4  and  C_7
REMARK    3  A    between atoms: N_6  and  C_15
REMARK    4  A    between atoms: C_8  and  N_12
REMARK    5  A    between atoms: C_15  and  O_16
REMARK    6  A    between atoms: O_16  and  P_17
REMARK    7  A    between atoms: P_17  and  O_20
REMARK    8  A    between atoms: C_22  and  C_23
REMARK    9  A    between atoms: C_26  and  C_29
REMARK   10  A    between atoms: C_29  and  O_30
REMARK   11  A    between atoms: O_30  and  C_32
REMARK                            x       y       z     vdW  Elec       q    Type
REMARK                         _______ _______ _______ _____ _____    ______ ____
ROOT
ATOM      1  O   UNL     1      33.254 -22.896 -18.447  0.00  0.00    -0.354 OA
ATOM      2  N   UNL     1      34.123 -22.402 -19.413  0.00  0.00    -0.081 NA
ATOM      3  C   UNL     1      34.989 -21.638 -18.741  0.00  0.00    +0.105 C 
ATOM      4  C   UNL     1      33.619 -22.419 -17.229  0.00  0.00    +0.175 C 
ATOM      5  C   UNL     1      34.718 -21.613 -17.361  0.00  0.00    +0.058 C 
ENDROOT
BRANCH   4   7
ATOM      6  N   UNL     1      32.560 -23.790 -13.964  0.00  0.00    -0.266 N 
ATOM      7  C   UNL     1      32.803 -22.850 -16.119  0.00  0.00    +0.048 C 
ATOM      8  C   UNL     1      33.354 -23.403 -14.972  0.00  0.00    +0.156 C 
ATOM      9  C   UNL     1      31.421 -22.709 -16.197  0.00  0.00    +0.003 C 
ATOM     10  C   UNL     1      31.227 -23.665 -14.013  0.00  0.00    +0.064 C 
ATOM     11  C   UNL     1      30.620 -23.120 -15.135  0.00  0.00    +0.016 C 
BRANCH   8  12
ATOM     12  N   UNL     1      34.752 -23.564 -14.852  0.00  0.00    -0.303 NA
ATOM     13  H   UNL     1      35.129 -24.447 -14.633  0.00  0.00    +0.121 HD
ATOM     14  H   UNL     1      35.348 -22.793 -14.988  0.00  0.00    +0.121 HD
ENDBRANCH   8  12
BRANCH   6  15
ATOM     15  C   UNL     1      33.143 -24.373 -12.753  0.00  0.00    +0.251 C 
BRANCH  15  16
ATOM     16  O   UNL     1      33.778 -23.340 -12.012  0.00  0.00    -0.250 OA
BRANCH  16  17
ATOM     17  P   UNL     1      35.194 -23.652 -11.259  0.00  0.00    +0.504 P 
ATOM     18  O   UNL     1      34.940 -23.965  -9.800  0.00  0.00    -0.225 OA
ATOM     19  O   UNL     1      36.191 -22.584 -11.651  0.00  0.00    -0.116 OA
BRANCH  17  20
ATOM     20  O   UNL     1      35.605 -25.036 -12.023  0.00  0.00    -0.301 OA
ATOM     21  H   UNL     1      36.268 -24.844 -12.705  0.00  0.00    +0.222 HD
ENDBRANCH  17  20
ENDBRANCH  16  17
ENDBRANCH  15  16
ENDBRANCH   6  15
ENDBRANCH   4   7
BRANCH   3  22
ATOM     22  C   UNL     1      36.069 -20.944 -19.460  0.00  0.00    +0.075 C 
BRANCH  22  23
ATOM     23  C   UNL     1      35.596 -19.857 -20.418  0.00  0.00    -0.016 C 
ATOM     24  C   UNL     1      36.471 -18.844 -20.809  0.00  0.00    -0.004 C 
ATOM     25  C   UNL     1      34.289 -19.877 -20.905  0.00  0.00    -0.004 C 
ATOM     26  C   UNL     1      34.731 -17.868 -22.172  0.00  0.00    +0.021 C 
ATOM     27  C   UNL     1      36.039 -17.849 -21.685  0.00  0.00    -0.001 C 
ATOM     28  C   UNL     1      33.857 -18.882 -21.781  0.00  0.00    -0.001 C 
BRANCH  26  29
ATOM     29  C   UNL     1      34.270 -16.806 -23.112  0.00  0.00    +0.234 C 
BRANCH  29  30
ATOM     30  O   UNL     1      34.820 -15.555 -22.717  0.00  0.00    -0.455 OA
BRANCH  30  32
ATOM     31  N   UNL     1      33.317 -13.868 -23.246  0.00  0.00    -0.210 NA
ATOM     32  C   UNL     1      33.936 -14.599 -22.291  0.00  0.00    +0.225 C 
ATOM     33  C   UNL     1      33.726 -14.437 -20.931  0.00  0.00    +0.058 C 
ATOM     34  C   UNL     1      32.823 -13.461 -20.524  0.00  0.00    +0.006 C 
ATOM     35  C   UNL     1      32.445 -12.930 -22.812  0.00  0.00    +0.102 C 
ATOM     36  C   UNL     1      32.166 -12.689 -21.477  0.00  0.00    +0.021 C 
ENDBRANCH  30  32
ENDBRANCH  29  30
ENDBRANCH  26  29
ENDBRANCH  22  23
ENDBRANCH   3  22
TORSDOF 11
ENDMDL
MODEL 7
REMARK VINA RESULT:     -12.6      1.485      2.159
REMARK  Name = 44123754
REMARK  11 active torsions:
REMARK  status: ('A' for Active; 'I' for Inactive)
REMARK    1  A    between atoms: C_3  and  C_22
REMARK    2  A    between atoms: C_4  and  C_7
REMARK    3  A    between atoms: N_6  and  C_15
REMARK    4  A    between atoms: C_8  and  N_12
REMARK    5  A    between atoms: C_15  and  O_16
REMARK    6  A    between atoms: O_16  and  P_17
REMARK    7  A    between atoms: P_17  and  O_20
REMARK    8  A    between atoms: C_22  and  C_23
REMARK    9  A    between atoms: C_26  and  C_29
REMARK   10  A    between atoms: C_29  and  O_30
REMARK   11  A    between atoms: O_30  and  C_32
REMARK                            x       y       z     vdW  Elec       q    Type
REMARK                         _______ _______ _______ _____ _____    ______ ____
ROOT
ATOM      1  O   UNL     1      34.216 -15.289 -20.560  0.00  0.00    -0.354 OA
ATOM      2  N   UNL     1      34.782 -16.536 -20.323  0.00  0.00    -0.081 NA
ATOM      3  C   UNL     1      34.957 -17.072 -21.533  0.00  0.00    +0.105 C 
ATOM      4  C   UNL     1      34.067 -15.112 -21.899  0.00  0.00    +0.175 C 
ATOM      5  C   UNL     1      34.524 -16.219 -22.563  0.00  0.00    +0.058 C 
ENDROOT
BRANCH   4   7
ATOM      6  N   UNL     1      32.008 -12.042 -21.952  0.00  0.00    -0.266 N 
ATOM      7  C   UNL     1      33.486 -13.852 -22.302  0.00  0.00    +0.048 C 
ATOM      8  C   UNL     1      32.520 -13.210 -21.541  0.00  0.00    +0.156 C 
ATOM      9  C   UNL     1      33.906 -13.261 -23.489  0.00  0.00    +0.003 C 
ATOM     10  C   UNL     1      32.394 -11.451 -23.091  0.00  0.00    +0.064 C 
ATOM     11  C   UNL     1      33.356 -12.048 -23.892  0.00  0.00    +0.016 C 
BRANCH   8  12
ATOM     12  N   UNL     1      32.067 -13.776 -20.329  0.00  0.00    -0.303 NA
ATOM     13  H   UNL     1      32.545 -14.542 -19.935  0.00  0.00    +0.121 HD
ATOM     14  H   UNL     1      31.274 -13.405 -19.880  0.00  0.00    +0.121 HD
ENDBRANCH   8  12
BRANCH   6  15
ATOM     15  C   UNL     1      30.989 -11.365 -21.147  0.00  0.00    +0.251 C 
BRANCH  15  16
ATOM     16  O   UNL     1      31.621 -10.761 -20.027  0.00  0.00    -0.250 OA
BRANCH  16  17
ATOM     17  P   UNL     1      31.235  -9.226 -19.622  0.00  0.00    +0.504 P 
ATOM     18  O   UNL     1      29.965  -9.217 -18.799  0.00  0.00    -0.225 OA
ATOM     19  O   UNL     1      31.354  -8.360 -20.858  0.00  0.00    -0.116 OA
BRANCH  17  20
ATOM     20  O   UNL     1      32.494  -8.883 -18.640  0.00  0.00    -0.301 OA
ATOM     21  H   UNL     1      32.232  -8.198 -18.005  0.00  0.00    +0.222 HD
ENDBRANCH  17  20
ENDBRANCH  16  17
ENDBRANCH  15  16
ENDBRANCH   6  15
ENDBRANCH   4   7
BRANCH   3  22
ATOM     22  C   UNL     1      35.547 -18.415 -21.664  0.00  0.00    +0.075 C 
BRANCH  22  23
ATOM     23  C   UNL     1      34.919 -19.473 -20.766  0.00  0.00    -0.016 C 
ATOM     24  C   UNL     1      35.731 -20.327 -20.021  0.00  0.00    -0.004 C 
ATOM     25  C   UNL     1      33.530 -19.588 -20.689  0.00  0.00    -0.004 C 
ATOM     26  C   UNL     1      33.768 -21.411 -19.122  0.00  0.00    +0.021 C 
ATOM     27  C   UNL     1      35.157 -21.296 -19.199  0.00  0.00    -0.001 C 
ATOM     28  C   UNL     1      32.955 -20.557 -19.868  0.00  0.00    -0.001 C 
BRANCH  26  29
ATOM     29  C   UNL     1      33.154 -22.445 -18.242  0.00  0.00    +0.234 C 
BRANCH  29  30
ATOM     30  O   UNL     1      33.563 -22.225 -16.897  0.00  0.00    -0.455 OA
BRANCH  30  32
ATOM     31  N   UNL     1      31.465 -22.754 -16.059  0.00  0.00    -0.210 NA
ATOM     32  C   UNL     1      32.808 -22.815 -15.918  0.00  0.00    +0.225 C 
ATOM     33  C   UNL     1      33.449 -23.434 -14.857  0.00  0.00    +0.058 C 
ATOM     34  C   UNL     1      32.661 -24.027 -13.877  0.00  0.00    +0.006 C 
ATOM     35  C   UNL     1      30.731 -23.343 -15.087  0.00  0.00    +0.102 C 
ATOM     36  C   UNL     1      31.276 -23.986 -13.987  0.00  0.00    +0.021 C 
ENDBRANCH  30  32
ENDBRANCH  29  30
ENDBRANCH  26  29
ENDBRANCH  22  23
ENDBRANCH   3  22
TORSDOF 11
ENDMDL
MODEL 8
REMARK VINA RESULT:     -12.5      2.925      4.048
REMARK  Name = 44123754
REMARK  11 active torsions:
REMARK  status: ('A' for Active; 'I' for Inactive)
REMARK    1  A    between atoms: C_3  and  C_22
REMARK    2  A    between atoms: C_4  and  C_7
REMARK    3  A    between atoms: N_6  and  C_15
REMARK    4  A    between atoms: C_8  and  N_12
REMARK    5  A    between atoms: C_15  and  O_16
REMARK    6  A    between atoms: O_16  and  P_17
REMARK    7  A    between atoms: P_17  and  O_20
REMARK    8  A    between atoms: C_22  and  C_23
REMARK    9  A    between atoms: C_26  and  C_29
REMARK   10  A    between atoms: C_29  and  O_30
REMARK   11  A    between atoms: O_30  and  C_32
REMARK                            x       y       z     vdW  Elec       q    Type
REMARK                         _______ _______ _______ _____ _____    ______ ____
ROOT
ATOM      1  O   UNL     1      33.564 -14.075 -20.658  0.00  0.00    -0.354 OA
ATOM      2  N   UNL     1      34.257 -15.260 -20.876  0.00  0.00    -0.081 NA
ATOM      3  C   UNL     1      34.291 -15.401 -22.204  0.00  0.00    +0.105 C 
ATOM      4  C   UNL     1      33.202 -13.541 -21.853  0.00  0.00    +0.175 C 
ATOM      5  C   UNL     1      33.641 -14.347 -22.869  0.00  0.00    +0.058 C 
ENDROOT
BRANCH   4   7
ATOM      6  N   UNL     1      31.991 -10.126 -22.583  0.00  0.00    -0.266 N 
ATOM      7  C   UNL     1      32.469 -12.298 -21.786  0.00  0.00    +0.048 C 
ATOM      8  C   UNL     1      32.694 -11.262 -22.681  0.00  0.00    +0.156 C 
ATOM      9  C   UNL     1      31.508 -12.130 -20.795  0.00  0.00    +0.003 C 
ATOM     10  C   UNL     1      31.060  -9.938 -21.639  0.00  0.00    +0.064 C 
ATOM     11  C   UNL     1      30.793 -10.938 -20.717  0.00  0.00    +0.016 C 
BRANCH   8  12
ATOM     12  N   UNL     1      33.661 -11.392 -23.702  0.00  0.00    -0.303 NA
ATOM     13  H   UNL     1      33.555 -10.898 -24.546  0.00  0.00    +0.121 HD
ATOM     14  H   UNL     1      34.441 -11.978 -23.568  0.00  0.00    +0.121 HD
ENDBRANCH   8  12
BRANCH   6  15
ATOM     15  C   UNL     1      32.229  -9.033 -23.530  0.00  0.00    +0.251 C 
BRANCH  15  16
ATOM     16  O   UNL     1      33.305  -8.241 -23.047  0.00  0.00    -0.250 OA
BRANCH  16  17
ATOM     17  P   UNL     1      33.002  -6.736 -22.487  0.00  0.00    +0.504 P 
ATOM     18  O   UNL     1      33.963  -5.752 -23.116  0.00  0.00    -0.225 OA
ATOM     19  O   UNL     1      32.851  -6.806 -20.983  0.00  0.00    -0.116 OA
BRANCH  17  20
ATOM     20  O   UNL     1      31.520  -6.503 -23.135  0.00  0.00    -0.301 OA
ATOM     21  H   UNL     1      31.528  -5.699 -23.678  0.00  0.00    +0.222 HD
ENDBRANCH  17  20
ENDBRANCH  16  17
ENDBRANCH  15  16
ENDBRANCH   6  15
ENDBRANCH   4   7
BRANCH   3  22
ATOM     22  C   UNL     1      34.959 -16.568 -22.802  0.00  0.00    +0.075 C 
BRANCH  22  23
ATOM     23  C   UNL     1      35.036 -17.789 -21.894  0.00  0.00    -0.016 C 
ATOM     24  C   UNL     1      33.910 -18.590 -21.705  0.00  0.00    -0.004 C 
ATOM     25  C   UNL     1      36.234 -18.107 -21.252  0.00  0.00    -0.004 C 
ATOM     26  C   UNL     1      35.178 -20.025 -20.231  0.00  0.00    +0.021 C 
ATOM     27  C   UNL     1      33.980 -19.707 -20.873  0.00  0.00    -0.001 C 
ATOM     28  C   UNL     1      36.304 -19.224 -20.420  0.00  0.00    -0.001 C 
BRANCH  26  29
ATOM     29  C   UNL     1      35.253 -21.221 -19.345  0.00  0.00    +0.234 C 
BRANCH  29  30
ATOM     30  O   UNL     1      36.225 -20.997 -18.330  0.00  0.00    -0.455 OA
BRANCH  30  32
ATOM     31  N   UNL     1      34.830 -22.224 -16.941  0.00  0.00    -0.210 NA
ATOM     32  C   UNL     1      36.038 -21.651 -17.141  0.00  0.00    +0.225 C 
ATOM     33  C   UNL     1      37.078 -21.692 -16.226  0.00  0.00    +0.058 C 
ATOM     34  C   UNL     1      36.864 -22.363 -15.027  0.00  0.00    +0.006 C 
ATOM     35  C   UNL     1      34.659 -22.868 -15.764  0.00  0.00    +0.102 C 
ATOM     36  C   UNL     1      35.634 -22.966 -14.784  0.00  0.00    +0.021 C 
ENDBRANCH  30  32
ENDBRANCH  29  30
ENDBRANCH  26  29
ENDBRANCH  22  23
ENDBRANCH   3  22
TORSDOF 11
ENDMDL
MODEL 9
REMARK VINA RESULT:     -12.3      2.064      2.966
REMARK  Name = 44123754
REMARK  11 active torsions:
REMARK  status: ('A' for Active; 'I' for Inactive)
REMARK    1  A    between atoms: C_3  and  C_22
REMARK    2  A    between atoms: C_4  and  C_7
REMARK    3  A    between atoms: N_6  and  C_15
REMARK    4  A    between atoms: C_8  and  N_12
REMARK    5  A    between atoms: C_15  and  O_16
REMARK    6  A    between atoms: O_16  and  P_17
REMARK    7  A    between atoms: P_17  and  O_20
REMARK    8  A    between atoms: C_22  and  C_23
REMARK    9  A    between atoms: C_26  and  C_29
REMARK   10  A    between atoms: C_29  and  O_30
REMARK   11  A    between atoms: O_30  and  C_32
REMARK                            x       y       z     vdW  Elec       q    Type
REMARK                         _______ _______ _______ _____ _____    ______ ____
ROOT
ATOM      1  O   UNL     1      33.758 -15.398 -23.253  0.00  0.00    -0.354 OA
ATOM      2  N   UNL     1      34.516 -16.558 -23.368  0.00  0.00    -0.081 NA
ATOM      3  C   UNL     1      34.979 -16.792 -22.137  0.00  0.00    +0.105 C 
ATOM      4  C   UNL     1      33.787 -14.970 -21.964  0.00  0.00    +0.175 C 
ATOM      5  C   UNL     1      34.551 -15.823 -21.212  0.00  0.00    +0.058 C 
ENDROOT
BRANCH   4   7
ATOM      6  N   UNL     1      32.350 -11.576 -22.251  0.00  0.00    -0.266 N 
ATOM      7  C   UNL     1      33.039 -13.765 -21.689  0.00  0.00    +0.048 C 
ATOM      8  C   UNL     1      33.060 -12.674 -22.545  0.00  0.00    +0.156 C 
ATOM      9  C   UNL     1      32.271 -13.694 -20.530  0.00  0.00    +0.003 C 
ATOM     10  C   UNL     1      31.604 -11.480 -21.143  0.00  0.00    +0.064 C 
ATOM     11  C   UNL     1      31.544 -12.540 -20.250  0.00  0.00    +0.016 C 
BRANCH   8  12
ATOM     12  N   UNL     1      33.826 -12.706 -23.730  0.00  0.00    -0.303 NA
ATOM     13  H   UNL     1      34.150 -13.566 -24.084  0.00  0.00    +0.121 HD
ATOM     14  H   UNL     1      34.036 -11.869 -24.203  0.00  0.00    +0.121 HD
ENDBRANCH   8  12
BRANCH   6  15
ATOM     15  C   UNL     1      32.373 -10.424 -23.155  0.00  0.00    +0.251 C 
BRANCH  15  16
ATOM     16  O   UNL     1      31.348  -9.521 -22.767  0.00  0.00    -0.250 OA
BRANCH  16  17
ATOM     17  P   UNL     1      31.732  -7.965 -22.448  0.00  0.00    +0.504 P 
ATOM     18  O   UNL     1      31.830  -7.759 -20.952  0.00  0.00    -0.225 OA
ATOM     19  O   UNL     1      30.847  -7.071 -23.289  0.00  0.00    -0.116 OA
BRANCH  17  20
ATOM     20  O   UNL     1      33.238  -7.926 -23.078  0.00  0.00    -0.301 OA
ATOM     21  H   UNL     1      33.865  -8.304 -22.441  0.00  0.00    +0.222 HD
ENDBRANCH  17  20
ENDBRANCH  16  17
ENDBRANCH  15  16
ENDBRANCH   6  15
ENDBRANCH   4   7
BRANCH   3  22
ATOM     22  C   UNL     1      35.834 -17.962 -21.884  0.00  0.00    +0.075 C 
BRANCH  22  23
ATOM     23  C   UNL     1      35.193 -19.043 -21.024  0.00  0.00    -0.016 C 
ATOM     24  C   UNL     1      35.994 -19.906 -20.276  0.00  0.00    -0.004 C 
ATOM     25  C   UNL     1      33.804 -19.170 -20.984  0.00  0.00    -0.004 C 
ATOM     26  C   UNL     1      34.018 -21.023 -19.448  0.00  0.00    +0.021 C 
ATOM     27  C   UNL     1      35.407 -20.896 -19.488  0.00  0.00    -0.001 C 
ATOM     28  C   UNL     1      33.217 -20.160 -20.196  0.00  0.00    -0.001 C 
BRANCH  26  29
ATOM     29  C   UNL     1      33.390 -22.079 -18.604  0.00  0.00    +0.234 C 
BRANCH  29  30
ATOM     30  O   UNL     1      34.252 -22.388 -17.515  0.00  0.00    -0.455 OA
BRANCH  30  32
ATOM     31  N   UNL     1      34.455 -23.535 -15.508  0.00  0.00    -0.210 NA
ATOM     32  C   UNL     1      33.661 -22.870 -16.377  0.00  0.00    +0.225 C 
ATOM     33  C   UNL     1      32.307 -22.653 -16.180  0.00  0.00    +0.058 C 
ATOM     34  C   UNL     1      31.730 -23.150 -15.016  0.00  0.00    +0.006 C 
ATOM     35  C   UNL     1      33.860 -24.003 -14.388  0.00  0.00    +0.102 C 
ATOM     36  C   UNL     1      32.515 -23.839 -14.098  0.00  0.00    +0.021 C 
ENDBRANCH  30  32
ENDBRANCH  29  30
ENDBRANCH  26  29
ENDBRANCH  22  23
ENDBRANCH   3  22
TORSDOF 11
ENDMDL
