MODEL 1
REMARK VINA RESULT:     -12.9      0.000      0.000
REMARK  Name = 16040261
REMARK  6 active torsions:
REMARK  status: ('A' for Active; 'I' for Inactive)
REMARK    1  A    between atoms: N_1  and  C_5
REMARK    2  A    between atoms: N_1  and  S_19
REMARK    3  A    between atoms: N_4  and  C_9
REMARK    4  A    between atoms: C_9  and  C_14
REMARK    5  A    between atoms: S_19  and  C_25
REMARK    6  A    between atoms: C_26  and  C_30
REMARK                            x       y       z     vdW  Elec       q    Type
REMARK                         _______ _______ _______ _____ _____    ______ ____
ROOT
ATOM      1  N   UNL     1      34.354 -22.704 -17.246  0.00  0.00    -0.168 NA
ATOM      2  H   UNL     1      35.201 -22.138 -17.272  0.00  0.00    +0.149 HD
ENDROOT
BRANCH   1   5
ATOM      3  O   UNL     1      35.809 -21.547 -15.059  0.00  0.00    -0.273 OA
ATOM      4  N   UNL     1      34.549 -23.068 -13.782  0.00  0.00    -0.272 N 
ATOM      5  C   UNL     1      33.763 -22.545 -15.912  0.00  0.00    +0.153 C 
ATOM      6  C   UNL     1      33.122 -23.843 -15.436  0.00  0.00    +0.048 C 
ATOM      7  C   UNL     1      33.318 -23.807 -13.933  0.00  0.00    +0.096 C 
ATOM      8  C   UNL     1      34.860 -22.302 -14.905  0.00  0.00    +0.242 C 
BRANCH   4   9
ATOM      9  C   UNL     1      35.277 -23.057 -12.531  0.00  0.00    +0.152 C 
ATOM     10  C   UNL     1      34.941 -24.244 -11.660  0.00  0.00    +0.031 C 
BRANCH   9  14
ATOM     11  O   UNL     1      38.222 -26.708 -14.402  0.00  0.00    -0.350 OA
ATOM     12  O   UNL     1      37.466 -22.149 -12.637  0.00  0.00    -0.273 OA
ATOM     13  N   UNL     1      37.147 -24.212 -13.653  0.00  0.00    -0.273 N 
ATOM     14  C   UNL     1      36.728 -23.090 -12.942  0.00  0.00    +0.244 C 
ATOM     15  C   UNL     1      38.540 -24.328 -14.086  0.00  0.00    +0.126 C 
ATOM     16  C   UNL     1      36.274 -25.285 -14.142  0.00  0.00    +0.126 C 
ATOM     17  C   UNL     1      39.070 -25.726 -13.801  0.00  0.00    +0.164 C 
ATOM     18  C   UNL     1      36.900 -26.645 -13.860  0.00  0.00    +0.164 C 
ENDBRANCH   9  14
ENDBRANCH   4   9
ENDBRANCH   1   5
BRANCH   1  19
ATOM     19  S   UNL     1      33.405 -22.266 -18.606  0.00  0.00    +0.104 S 
ATOM     20  O   UNL     1      32.154 -21.690 -18.151  0.00  0.00    -0.149 OA
ATOM     21  O   UNL     1      33.430 -23.347 -19.570  0.00  0.00    -0.149 OA
BRANCH  19  25
ATOM     22  N   UNL     1      35.577 -20.724 -19.328  0.00  0.00    -0.184 N 
ATOM     23  N   UNL     1      33.680 -20.090 -20.211  0.00  0.00    -0.312 NA
ATOM     24  N   UNL     1      35.922 -19.660 -20.068  0.00  0.00    -0.112 NA
ATOM     25  C   UNL     1      34.267 -20.935 -19.443  0.00  0.00    +0.334 C 
ATOM     26  C   UNL     1      34.740 -19.313 -20.581  0.00  0.00    +0.112 C 
ATOM     27  H   UNL     1      36.195 -21.265 -18.786  0.00  0.00    +0.179 HD
BRANCH  26  30
ATOM     28 CL   UNL     1      33.887 -15.935 -24.905  0.00  0.00    -0.075 Cl
ATOM     29  S   UNL     1      34.171 -18.310 -23.145  0.00  0.00    -0.064 S 
ATOM     30  C   UNL     1      34.590 -18.162 -21.490  0.00  0.00    +0.105 C 
ATOM     31  C   UNL     1      34.765 -16.847 -21.119  0.00  0.00    +0.019 C 
ATOM     32  C   UNL     1      34.553 -15.950 -22.205  0.00  0.00    +0.019 C 
ATOM     33  C   UNL     1      34.224 -16.613 -23.367  0.00  0.00    +0.088 C 
ENDBRANCH  26  30
ENDBRANCH  19  25
ENDBRANCH   1  19
TORSDOF 6
ENDMDL
MODEL 2
REMARK VINA RESULT:     -12.7      3.208      5.280
REMARK  Name = 16040261
REMARK  6 active torsions:
REMARK  status: ('A' for Active; 'I' for Inactive)
REMARK    1  A    between atoms: N_1  and  C_5
REMARK    2  A    between atoms: N_1  and  S_19
REMARK    3  A    between atoms: N_4  and  C_9
REMARK    4  A    between atoms: C_9  and  C_14
REMARK    5  A    between atoms: S_19  and  C_25
REMARK    6  A    between atoms: C_26  and  C_30
REMARK                            x       y       z     vdW  Elec       q    Type
REMARK                         _______ _______ _______ _____ _____    ______ ____
ROOT
ATOM      1  N   UNL     1      33.870 -21.530 -17.740  0.00  0.00    -0.168 NA
ATOM      2  H   UNL     1      33.118 -20.936 -17.392  0.00  0.00    +0.149 HD
ENDROOT
BRANCH   1   5
ATOM      3  O   UNL     1      31.403 -22.916 -17.260  0.00  0.00    -0.273 OA
ATOM      4  N   UNL     1      32.453 -23.508 -15.240  0.00  0.00    -0.272 N 
ATOM      5  C   UNL     1      33.815 -22.789 -16.989  0.00  0.00    +0.153 C 
ATOM      6  C   UNL     1      34.574 -22.677 -15.671  0.00  0.00    +0.048 C 
ATOM      7  C   UNL     1      33.805 -23.591 -14.738  0.00  0.00    +0.096 C 
ATOM      8  C   UNL     1      32.394 -23.053 -16.557  0.00  0.00    +0.242 C 
BRANCH   4   9
ATOM      9  C   UNL     1      31.327 -23.981 -14.465  0.00  0.00    +0.152 C 
ATOM     10  C   UNL     1      31.734 -24.453 -13.088  0.00  0.00    +0.031 C 
BRANCH   9  14
ATOM     11  O   UNL     1      26.802 -22.972 -16.466  0.00  0.00    -0.350 OA
ATOM     12  O   UNL     1      30.833 -21.736 -13.879  0.00  0.00    -0.273 OA
ATOM     13  N   UNL     1      29.117 -22.956 -14.859  0.00  0.00    -0.273 N 
ATOM     14  C   UNL     1      30.410 -22.787 -14.370  0.00  0.00    +0.244 C 
ATOM     15  C   UNL     1      28.164 -21.847 -14.810  0.00  0.00    +0.126 C 
ATOM     16  C   UNL     1      28.543 -24.221 -15.329  0.00  0.00    +0.126 C 
ATOM     17  C   UNL     1      27.421 -21.727 -16.132  0.00  0.00    +0.164 C 
ATOM     18  C   UNL     1      27.779 -24.004 -16.629  0.00  0.00    +0.164 C 
ENDBRANCH   9  14
ENDBRANCH   4   9
ENDBRANCH   1   5
BRANCH   1  19
ATOM     19  S   UNL     1      33.715 -21.601 -19.447  0.00  0.00    +0.104 S 
ATOM     20  O   UNL     1      32.311 -21.518 -19.803  0.00  0.00    -0.149 OA
ATOM     21  O   UNL     1      34.560 -22.663 -19.956  0.00  0.00    -0.149 OA
BRANCH  19  25
ATOM     22  N   UNL     1      35.736 -19.777 -19.897  0.00  0.00    -0.184 N 
ATOM     23  N   UNL     1      33.826 -19.263 -20.828  0.00  0.00    -0.312 NA
ATOM     24  N   UNL     1      35.997 -18.616 -20.516  0.00  0.00    -0.112 NA
ATOM     25  C   UNL     1      34.464 -20.112 -20.107  0.00  0.00    +0.334 C 
ATOM     26  C   UNL     1      34.810 -18.347 -21.063  0.00  0.00    +0.112 C 
ATOM     27  H   UNL     1      36.382 -20.300 -19.371  0.00  0.00    +0.179 HD
BRANCH  26  30
ATOM     28 CL   UNL     1      33.820 -13.202 -22.901  0.00  0.00    -0.075 Cl
ATOM     29  S   UNL     1      34.275 -15.590 -21.197  0.00  0.00    -0.064 S 
ATOM     30  C   UNL     1      34.578 -17.136 -21.871  0.00  0.00    +0.105 C 
ATOM     31  C   UNL     1      34.579 -17.105 -23.248  0.00  0.00    +0.019 C 
ATOM     32  C   UNL     1      34.328 -15.798 -23.757  0.00  0.00    +0.019 C 
ATOM     33  C   UNL     1      34.144 -14.878 -22.748  0.00  0.00    +0.088 C 
ENDBRANCH  26  30
ENDBRANCH  19  25
ENDBRANCH   1  19
TORSDOF 6
ENDMDL
MODEL 3
REMARK VINA RESULT:     -12.5      4.102     10.249
REMARK  Name = 16040261
REMARK  6 active torsions:
REMARK  status: ('A' for Active; 'I' for Inactive)
REMARK    1  A    between atoms: N_1  and  C_5
REMARK    2  A    between atoms: N_1  and  S_19
REMARK    3  A    between atoms: N_4  and  C_9
REMARK    4  A    between atoms: C_9  and  C_14
REMARK    5  A    between atoms: S_19  and  C_25
REMARK    6  A    between atoms: C_26  and  C_30
REMARK                            x       y       z     vdW  Elec       q    Type
REMARK                         _______ _______ _______ _____ _____    ______ ____
ROOT
ATOM      1  N   UNL     1      33.936 -21.448 -18.101  0.00  0.00    -0.168 NA
ATOM      2  H   UNL     1      34.902 -21.684 -17.878  0.00  0.00    +0.149 HD
ENDROOT
BRANCH   1   5
ATOM      3  O   UNL     1      36.138 -20.201 -19.455  0.00  0.00    -0.273 OA
ATOM      4  N   UNL     1      34.427 -19.177 -20.704  0.00  0.00    -0.272 N 
ATOM      5  C   UNL     1      33.888 -21.117 -19.530  0.00  0.00    +0.153 C 
ATOM      6  C   UNL     1      32.612 -20.357 -19.875  0.00  0.00    +0.048 C 
ATOM      7  C   UNL     1      33.039 -19.437 -21.002  0.00  0.00    +0.096 C 
ATOM      8  C   UNL     1      34.984 -20.132 -19.852  0.00  0.00    +0.242 C 
BRANCH   4   9
ATOM      9  C   UNL     1      35.152 -18.102 -21.346  0.00  0.00    +0.152 C 
ATOM     10  C   UNL     1      36.645 -18.333 -21.342  0.00  0.00    +0.031 C 
BRANCH   9  14
ATOM     11  O   UNL     1      33.256 -14.420 -24.234  0.00  0.00    -0.350 OA
ATOM     12  O   UNL     1      34.397 -19.148 -23.336  0.00  0.00    -0.273 OA
ATOM     13  N   UNL     1      34.404 -16.826 -23.321  0.00  0.00    -0.273 N 
ATOM     14  C   UNL     1      34.619 -18.081 -22.757  0.00  0.00    +0.244 C 
ATOM     15  C   UNL     1      33.884 -16.715 -24.684  0.00  0.00    +0.126 C 
ATOM     16  C   UNL     1      34.774 -15.544 -22.713  0.00  0.00    +0.126 C 
ATOM     17  C   UNL     1      32.782 -15.667 -24.747  0.00  0.00    +0.164 C 
ATOM     18  C   UNL     1      33.638 -14.541 -22.861  0.00  0.00    +0.164 C 
ENDBRANCH   9  14
ENDBRANCH   4   9
ENDBRANCH   1   5
BRANCH   1  19
ATOM     19  S   UNL     1      32.954 -22.737 -17.539  0.00  0.00    +0.104 S 
ATOM     20  O   UNL     1      33.063 -23.857 -18.454  0.00  0.00    -0.149 OA
ATOM     21  O   UNL     1      31.663 -22.211 -17.142  0.00  0.00    -0.149 OA
BRANCH  19  25
ATOM     22  N   UNL     1      32.983 -23.390 -14.857  0.00  0.00    -0.184 N 
ATOM     23  N   UNL     1      34.892 -23.680 -15.883  0.00  0.00    -0.312 NA
ATOM     24  N   UNL     1      33.787 -23.849 -13.887  0.00  0.00    -0.112 NA
ATOM     25  C   UNL     1      33.668 -23.309 -15.996  0.00  0.00    +0.334 C 
ATOM     26  C   UNL     1      34.930 -24.009 -14.558  0.00  0.00    +0.112 C 
ATOM     27  H   UNL     1      32.035 -23.150 -14.745  0.00  0.00    +0.179 HD
BRANCH  26  30
ATOM     28 CL   UNL     1      40.088 -25.646 -13.315  0.00  0.00    -0.075 Cl
ATOM     29  S   UNL     1      37.668 -24.630 -14.703  0.00  0.00    -0.064 S 
ATOM     30  C   UNL     1      36.155 -24.508 -13.908  0.00  0.00    +0.105 C 
ATOM     31  C   UNL     1      36.227 -24.929 -12.598  0.00  0.00    +0.019 C 
ATOM     32  C   UNL     1      37.539 -25.357 -12.243  0.00  0.00    +0.019 C 
ATOM     33  C   UNL     1      38.421 -25.247 -13.295  0.00  0.00    +0.088 C 
ENDBRANCH  26  30
ENDBRANCH  19  25
ENDBRANCH   1  19
TORSDOF 6
ENDMDL
MODEL 4
REMARK VINA RESULT:     -12.5      1.965      2.739
REMARK  Name = 16040261
REMARK  6 active torsions:
REMARK  status: ('A' for Active; 'I' for Inactive)
REMARK    1  A    between atoms: N_1  and  C_5
REMARK    2  A    between atoms: N_1  and  S_19
REMARK    3  A    between atoms: N_4  and  C_9
REMARK    4  A    between atoms: C_9  and  C_14
REMARK    5  A    between atoms: S_19  and  C_25
REMARK    6  A    between atoms: C_26  and  C_30
REMARK                            x       y       z     vdW  Elec       q    Type
REMARK                         _______ _______ _______ _____ _____    ______ ____
ROOT
ATOM      1  N   UNL     1      35.274 -20.474 -18.136  0.00  0.00    -0.168 NA
ATOM      2  H   UNL     1      34.453 -20.227 -17.585  0.00  0.00    +0.149 HD
ENDROOT
BRANCH   1   5
ATOM      3  O   UNL     1      33.884 -22.707 -16.989  0.00  0.00    -0.273 OA
ATOM      4  N   UNL     1      35.579 -22.570 -15.364  0.00  0.00    -0.272 N 
ATOM      5  C   UNL     1      35.975 -21.546 -17.419  0.00  0.00    +0.153 C 
ATOM      6  C   UNL     1      36.927 -20.977 -16.373  0.00  0.00    +0.048 C 
ATOM      7  C   UNL     1      36.910 -22.018 -15.272  0.00  0.00    +0.096 C 
ATOM      8  C   UNL     1      34.981 -22.334 -16.602  0.00  0.00    +0.242 C 
BRANCH   4   9
ATOM      9  C   UNL     1      35.021 -23.383 -14.305  0.00  0.00    +0.152 C 
ATOM     10  C   UNL     1      33.511 -23.345 -14.287  0.00  0.00    +0.031 C 
BRANCH   9  14
ATOM     11  O   UNL     1      39.313 -25.798 -13.191  0.00  0.00    -0.350 OA
ATOM     12  O   UNL     1      34.906 -25.476 -15.414  0.00  0.00    -0.273 OA
ATOM     13  N   UNL     1      36.661 -25.186 -13.921  0.00  0.00    -0.273 N 
ATOM     14  C   UNL     1      35.516 -24.776 -14.601  0.00  0.00    +0.244 C 
ATOM     15  C   UNL     1      37.212 -26.522 -14.153  0.00  0.00    +0.126 C 
ATOM     16  C   UNL     1      37.335 -24.433 -12.858  0.00  0.00    +0.126 C 
ATOM     17  C   UNL     1      38.723 -26.451 -14.318  0.00  0.00    +0.164 C 
ATOM     18  C   UNL     1      38.843 -24.452 -13.073  0.00  0.00    +0.164 C 
ENDBRANCH   9  14
ENDBRANCH   4   9
ENDBRANCH   1   5
BRANCH   1  19
ATOM     19  S   UNL     1      34.737 -20.790 -19.735  0.00  0.00    +0.104 S 
ATOM     20  O   UNL     1      33.290 -20.877 -19.745  0.00  0.00    -0.149 OA
ATOM     21  O   UNL     1      35.560 -21.833 -20.314  0.00  0.00    -0.149 OA
BRANCH  19  25
ATOM     22  N   UNL     1      36.379 -18.910 -20.913  0.00  0.00    -0.184 N 
ATOM     23  N   UNL     1      34.247 -18.627 -21.305  0.00  0.00    -0.312 NA
ATOM     24  N   UNL     1      36.351 -17.815 -21.687  0.00  0.00    -0.112 NA
ATOM     25  C   UNL     1      35.135 -19.345 -20.719  0.00  0.00    +0.334 C 
ATOM     26  C   UNL     1      35.039 -17.686 -21.897  0.00  0.00    +0.112 C 
ATOM     27  H   UNL     1      37.191 -19.327 -20.546  0.00  0.00    +0.179 HD
BRANCH  26  30
ATOM     28 CL   UNL     1      33.043 -12.880 -23.834  0.00  0.00    -0.075 Cl
ATOM     29  S   UNL     1      34.164 -15.023 -22.111  0.00  0.00    -0.064 S 
ATOM     30  C   UNL     1      34.483 -16.593 -22.716  0.00  0.00    +0.105 C 
ATOM     31  C   UNL     1      34.159 -16.707 -24.050  0.00  0.00    +0.019 C 
ATOM     32  C   UNL     1      33.642 -15.490 -24.583  0.00  0.00    +0.019 C 
ATOM     33  C   UNL     1      33.591 -14.492 -23.634  0.00  0.00    +0.088 C 
ENDBRANCH  26  30
ENDBRANCH  19  25
ENDBRANCH   1  19
TORSDOF 6
ENDMDL
MODEL 5
REMARK VINA RESULT:     -12.0      1.565      2.266
REMARK  Name = 16040261
REMARK  6 active torsions:
REMARK  status: ('A' for Active; 'I' for Inactive)
REMARK    1  A    between atoms: N_1  and  C_5
REMARK    2  A    between atoms: N_1  and  S_19
REMARK    3  A    between atoms: N_4  and  C_9
REMARK    4  A    between atoms: C_9  and  C_14
REMARK    5  A    between atoms: S_19  and  C_25
REMARK    6  A    between atoms: C_26  and  C_30
REMARK                            x       y       z     vdW  Elec       q    Type
REMARK                         _______ _______ _______ _____ _____    ______ ____
ROOT
ATOM      1  N   UNL     1      34.610 -22.002 -17.985  0.00  0.00    -0.168 NA
ATOM      2  H   UNL     1      35.308 -21.279 -17.810  0.00  0.00    +0.149 HD
ENDROOT
BRANCH   1   5
ATOM      3  O   UNL     1      35.421 -21.955 -15.232  0.00  0.00    -0.273 OA
ATOM      4  N   UNL     1      33.436 -23.178 -14.917  0.00  0.00    -0.272 N 
ATOM      5  C   UNL     1      33.640 -21.948 -16.886  0.00  0.00    +0.153 C 
ATOM      6  C   UNL     1      32.557 -23.008 -17.055  0.00  0.00    +0.048 C 
ATOM      7  C   UNL     1      32.198 -23.381 -15.631  0.00  0.00    +0.096 C 
ATOM      8  C   UNL     1      34.320 -22.340 -15.597  0.00  0.00    +0.242 C 
BRANCH   4   9
ATOM      9  C   UNL     1      33.639 -23.705 -13.585  0.00  0.00    +0.152 C 
ATOM     10  C   UNL     1      32.443 -24.482 -13.087  0.00  0.00    +0.031 C 
BRANCH   9  14
ATOM     11  O   UNL     1      38.355 -23.391 -11.809  0.00  0.00    -0.350 OA
ATOM     12  O   UNL     1      34.824 -25.524 -14.539  0.00  0.00    -0.273 OA
ATOM     13  N   UNL     1      35.921 -24.324 -12.882  0.00  0.00    -0.273 N 
ATOM     14  C   UNL     1      34.843 -24.605 -13.716  0.00  0.00    +0.244 C 
ATOM     15  C   UNL     1      37.131 -25.144 -12.947  0.00  0.00    +0.126 C 
ATOM     16  C   UNL     1      35.931 -23.324 -11.808  0.00  0.00    +0.126 C 
ATOM     17  C   UNL     1      38.371 -24.262 -12.944  0.00  0.00    +0.164 C 
ATOM     18  C   UNL     1      37.223 -22.519 -11.847  0.00  0.00    +0.164 C 
ENDBRANCH   9  14
ENDBRANCH   4   9
ENDBRANCH   1   5
BRANCH   1  19
ATOM     19  S   UNL     1      34.032 -21.776 -19.584  0.00  0.00    +0.104 S 
ATOM     20  O   UNL     1      32.593 -21.601 -19.552  0.00  0.00    -0.149 OA
ATOM     21  O   UNL     1      34.654 -22.753 -20.456  0.00  0.00    -0.149 OA
BRANCH  19  25
ATOM     22  N   UNL     1      35.921 -19.786 -19.887  0.00  0.00    -0.184 N 
ATOM     23  N   UNL     1      34.019 -19.393 -20.891  0.00  0.00    -0.312 NA
ATOM     24  N   UNL     1      36.117 -18.589 -20.459  0.00  0.00    -0.112 NA
ATOM     25  C   UNL     1      34.690 -20.212 -20.166  0.00  0.00    +0.334 C 
ATOM     26  C   UNL     1      34.938 -18.396 -21.054  0.00  0.00    +0.112 C 
ATOM     27  H   UNL     1      36.583 -20.274 -19.346  0.00  0.00    +0.179 HD
BRANCH  26  30
ATOM     28 CL   UNL     1      33.719 -13.264 -22.788  0.00  0.00    -0.075 Cl
ATOM     29  S   UNL     1      34.291 -15.661 -21.132  0.00  0.00    -0.064 S 
ATOM     30  C   UNL     1      34.647 -17.181 -21.837  0.00  0.00    +0.105 C 
ATOM     31  C   UNL     1      34.629 -17.127 -23.214  0.00  0.00    +0.019 C 
ATOM     32  C   UNL     1      34.319 -15.822 -23.696  0.00  0.00    +0.019 C 
ATOM     33  C   UNL     1      34.112 -14.928 -22.669  0.00  0.00    +0.088 C 
ENDBRANCH  26  30
ENDBRANCH  19  25
ENDBRANCH   1  19
TORSDOF 6
ENDMDL
MODEL 6
REMARK VINA RESULT:     -11.8      4.424     10.651
REMARK  Name = 16040261
REMARK  6 active torsions:
REMARK  status: ('A' for Active; 'I' for Inactive)
REMARK    1  A    between atoms: N_1  and  C_5
REMARK    2  A    between atoms: N_1  and  S_19
REMARK    3  A    between atoms: N_4  and  C_9
REMARK    4  A    between atoms: C_9  and  C_14
REMARK    5  A    between atoms: S_19  and  C_25
REMARK    6  A    between atoms: C_26  and  C_30
REMARK                            x       y       z     vdW  Elec       q    Type
REMARK                         _______ _______ _______ _____ _____    ______ ____
ROOT
ATOM      1  N   UNL     1      34.780 -21.255 -20.268  0.00  0.00    -0.168 NA
ATOM      2  H   UNL     1      34.418 -21.479 -21.194  0.00  0.00    +0.149 HD
ENDROOT
BRANCH   1   5
ATOM      3  O   UNL     1      33.134 -19.414 -21.729  0.00  0.00    -0.273 OA
ATOM      4  N   UNL     1      35.137 -18.193 -21.901  0.00  0.00    -0.272 N 
ATOM      5  C   UNL     1      35.001 -19.805 -20.224  0.00  0.00    +0.153 C 
ATOM      6  C   UNL     1      36.464 -19.464 -20.487  0.00  0.00    +0.048 C 
ATOM      7  C   UNL     1      36.395 -18.125 -21.195  0.00  0.00    +0.096 C 
ATOM      8  C   UNL     1      34.273 -19.153 -21.373  0.00  0.00    +0.242 C 
BRANCH   4   9
ATOM      9  C   UNL     1      34.806 -17.256 -22.953  0.00  0.00    +0.152 C 
ATOM     10  C   UNL     1      33.732 -17.783 -23.875  0.00  0.00    +0.031 C 
BRANCH   9  14
ATOM     11  O   UNL     1      32.870 -12.871 -24.540  0.00  0.00    -0.350 OA
ATOM     12  O   UNL     1      34.579 -15.899 -21.021  0.00  0.00    -0.273 OA
ATOM     13  N   UNL     1      33.620 -15.093 -22.976  0.00  0.00    -0.273 N 
ATOM     14  C   UNL     1      34.328 -16.026 -22.223  0.00  0.00    +0.244 C 
ATOM     15  C   UNL     1      33.123 -13.869 -22.347  0.00  0.00    +0.126 C 
ATOM     16  C   UNL     1      33.194 -15.269 -24.368  0.00  0.00    +0.126 C 
ATOM     17  C   UNL     1      33.410 -12.664 -23.232  0.00  0.00    +0.164 C 
ATOM     18  C   UNL     1      33.472 -14.005 -25.170  0.00  0.00    +0.164 C 
ENDBRANCH   9  14
ENDBRANCH   4   9
ENDBRANCH   1   5
BRANCH   1  19
ATOM     19  S   UNL     1      33.707 -21.943 -19.121  0.00  0.00    +0.104 S 
ATOM     20  O   UNL     1      33.415 -23.312 -19.500  0.00  0.00    -0.149 OA
ATOM     21  O   UNL     1      32.646 -20.997 -18.838  0.00  0.00    -0.149 OA
BRANCH  19  25
ATOM     22  N   UNL     1      35.830 -21.588 -17.395  0.00  0.00    -0.184 N 
ATOM     23  N   UNL     1      34.104 -22.600 -16.514  0.00  0.00    -0.312 NA
ATOM     24  N   UNL     1      36.221 -21.822 -16.133  0.00  0.00    -0.112 NA
ATOM     25  C   UNL     1      34.596 -22.057 -17.568  0.00  0.00    +0.334 C 
ATOM     26  C   UNL     1      35.142 -22.436 -15.643  0.00  0.00    +0.112 C 
ATOM     27  H   UNL     1      36.371 -21.140 -18.085  0.00  0.00    +0.179 HD
BRANCH  26  30
ATOM     28 CL   UNL     1      36.165 -23.762 -10.348  0.00  0.00    -0.075 Cl
ATOM     29  S   UNL     1      36.384 -22.789 -13.145  0.00  0.00    -0.064 S 
ATOM     30  C   UNL     1      35.078 -22.907 -14.247  0.00  0.00    +0.105 C 
ATOM     31  C   UNL     1      33.970 -23.488 -13.671  0.00  0.00    +0.019 C 
ATOM     32  C   UNL     1      34.196 -23.842 -12.309  0.00  0.00    +0.019 C 
ATOM     33  C   UNL     1      35.469 -23.517 -11.896  0.00  0.00    +0.088 C 
ENDBRANCH  26  30
ENDBRANCH  19  25
ENDBRANCH   1  19
TORSDOF 6
ENDMDL
MODEL 7
REMARK VINA RESULT:     -11.7      3.000      5.441
REMARK  Name = 16040261
REMARK  6 active torsions:
REMARK  status: ('A' for Active; 'I' for Inactive)
REMARK    1  A    between atoms: N_1  and  C_5
REMARK    2  A    between atoms: N_1  and  S_19
REMARK    3  A    between atoms: N_4  and  C_9
REMARK    4  A    between atoms: C_9  and  C_14
REMARK    5  A    between atoms: S_19  and  C_25
REMARK    6  A    between atoms: C_26  and  C_30
REMARK                            x       y       z     vdW  Elec       q    Type
REMARK                         _______ _______ _______ _____ _____    ______ ____
ROOT
ATOM      1  N   UNL     1      35.340 -21.718 -14.992  0.00  0.00    -0.168 NA
ATOM      2  H   UNL     1      34.552 -21.191 -15.365  0.00  0.00    +0.149 HD
ENDROOT
BRANCH   1   5
ATOM      3  O   UNL     1      33.067 -22.968 -16.219  0.00  0.00    -0.273 OA
ATOM      4  N   UNL     1      32.670 -23.751 -14.036  0.00  0.00    -0.272 N 
ATOM      5  C   UNL     1      34.823 -23.015 -14.540  0.00  0.00    +0.153 C 
ATOM      6  C   UNL     1      34.630 -23.033 -13.028  0.00  0.00    +0.048 C 
ATOM      7  C   UNL     1      33.440 -23.951 -12.832  0.00  0.00    +0.096 C 
ATOM      8  C   UNL     1      33.427 -23.212 -15.077  0.00  0.00    +0.242 C 
BRANCH   4   9
ATOM      9  C   UNL     1      31.298 -24.196 -14.142  0.00  0.00    +0.152 C 
ATOM     10  C   UNL     1      30.848 -24.964 -12.921  0.00  0.00    +0.031 C 
BRANCH   9  14
ATOM     11  O   UNL     1      27.027 -23.108 -16.605  0.00  0.00    -0.350 OA
ATOM     12  O   UNL     1      30.998 -21.852 -13.938  0.00  0.00    -0.273 OA
ATOM     13  N   UNL     1      29.230 -23.050 -14.850  0.00  0.00    -0.273 N 
ATOM     14  C   UNL     1      30.502 -22.924 -14.295  0.00  0.00    +0.244 C 
ATOM     15  C   UNL     1      28.393 -21.865 -15.039  0.00  0.00    +0.126 C 
ATOM     16  C   UNL     1      28.561 -24.316 -15.167  0.00  0.00    +0.126 C 
ATOM     17  C   UNL     1      27.747 -21.887 -16.417  0.00  0.00    +0.164 C 
ATOM     18  C   UNL     1      27.903 -24.236 -16.538  0.00  0.00    +0.164 C 
ENDBRANCH   9  14
ENDBRANCH   4   9
ENDBRANCH   1   5
BRANCH   1  19
ATOM     19  S   UNL     1      36.570 -21.712 -16.188  0.00  0.00    +0.104 S 
ATOM     20  O   UNL     1      37.082 -23.058 -16.354  0.00  0.00    -0.149 OA
ATOM     21  O   UNL     1      37.458 -20.592 -15.949  0.00  0.00    -0.149 OA
BRANCH  19  25
ATOM     22  N   UNL     1      34.771 -21.997 -18.262  0.00  0.00    -0.184 N 
ATOM     23  N   UNL     1      36.148 -20.312 -18.479  0.00  0.00    -0.312 NA
ATOM     24  N   UNL     1      34.406 -21.449 -19.431  0.00  0.00    -0.112 NA
ATOM     25  C   UNL     1      35.785 -21.303 -17.748  0.00  0.00    +0.334 C 
ATOM     26  C   UNL     1      35.268 -20.434 -19.516  0.00  0.00    +0.112 C 
ATOM     27  H   UNL     1      34.356 -22.788 -17.849  0.00  0.00    +0.179 HD
BRANCH  26  30
ATOM     28 CL   UNL     1      34.030 -17.403 -24.000  0.00  0.00    -0.075 Cl
ATOM     29  S   UNL     1      33.940 -19.302 -21.720  0.00  0.00    -0.064 S 
ATOM     30  C   UNL     1      35.270 -19.505 -20.660  0.00  0.00    +0.105 C 
ATOM     31  C   UNL     1      36.331 -18.697 -21.006  0.00  0.00    +0.019 C 
ATOM     32  C   UNL     1      36.049 -17.902 -22.155  0.00  0.00    +0.019 C 
ATOM     33  C   UNL     1      34.782 -18.133 -22.644  0.00  0.00    +0.088 C 
ENDBRANCH  26  30
ENDBRANCH  19  25
ENDBRANCH   1  19
TORSDOF 6
ENDMDL
MODEL 8
REMARK VINA RESULT:     -11.7      2.538      3.619
REMARK  Name = 16040261
REMARK  6 active torsions:
REMARK  status: ('A' for Active; 'I' for Inactive)
REMARK    1  A    between atoms: N_1  and  C_5
REMARK    2  A    between atoms: N_1  and  S_19
REMARK    3  A    between atoms: N_4  and  C_9
REMARK    4  A    between atoms: C_9  and  C_14
REMARK    5  A    between atoms: S_19  and  C_25
REMARK    6  A    between atoms: C_26  and  C_30
REMARK                            x       y       z     vdW  Elec       q    Type
REMARK                         _______ _______ _______ _____ _____    ______ ____
ROOT
ATOM      1  N   UNL     1      34.896 -20.541 -19.046  0.00  0.00    -0.168 NA
ATOM      2  H   UNL     1      34.181 -20.871 -19.694  0.00  0.00    +0.149 HD
ENDROOT
BRANCH   1   5
ATOM      3  O   UNL     1      33.023 -22.153 -17.587  0.00  0.00    -0.273 OA
ATOM      4  N   UNL     1      34.803 -22.346 -16.062  0.00  0.00    -0.272 N 
ATOM      5  C   UNL     1      35.318 -21.691 -18.239  0.00  0.00    +0.153 C 
ATOM      6  C   UNL     1      36.466 -21.317 -17.308  0.00  0.00    +0.048 C 
ATOM      7  C   UNL     1      36.239 -22.194 -16.092  0.00  0.00    +0.096 C 
ATOM      8  C   UNL     1      34.206 -22.074 -17.293  0.00  0.00    +0.242 C 
BRANCH   4   9
ATOM      9  C   UNL     1      34.119 -22.853 -14.893  0.00  0.00    +0.152 C 
ATOM     10  C   UNL     1      32.675 -23.195 -15.175  0.00  0.00    +0.031 C 
BRANCH   9  14
ATOM     11  O   UNL     1      37.105 -23.939 -10.968  0.00  0.00    -0.350 OA
ATOM     12  O   UNL     1      35.035 -24.995 -15.335  0.00  0.00    -0.273 OA
ATOM     13  N   UNL     1      35.419 -24.118 -13.220  0.00  0.00    -0.273 N 
ATOM     14  C   UNL     1      34.896 -24.088 -14.510  0.00  0.00    +0.244 C 
ATOM     15  C   UNL     1      36.190 -25.277 -12.768  0.00  0.00    +0.126 C 
ATOM     16  C   UNL     1      35.168 -23.119 -12.175  0.00  0.00    +0.126 C 
ATOM     17  C   UNL     1      37.447 -24.826 -12.037  0.00  0.00    +0.164 C 
ATOM     18  C   UNL     1      36.465 -22.760 -11.464  0.00  0.00    +0.164 C 
ENDBRANCH   9  14
ENDBRANCH   4   9
ENDBRANCH   1   5
BRANCH   1  19
ATOM     19  S   UNL     1      36.086 -19.727 -19.975  0.00  0.00    +0.104 S 
ATOM     20  O   UNL     1      36.674 -20.656 -20.920  0.00  0.00    -0.149 OA
ATOM     21  O   UNL     1      36.912 -18.928 -19.091  0.00  0.00    -0.149 OA
BRANCH  19  25
ATOM     22  N   UNL     1      34.565 -18.806 -22.085  0.00  0.00    -0.184 N 
ATOM     23  N   UNL     1      35.207 -17.255 -20.684  0.00  0.00    -0.312 NA
ATOM     24  N   UNL     1      34.040 -17.686 -22.603  0.00  0.00    -0.112 NA
ATOM     25  C   UNL     1      35.233 -18.506 -20.972  0.00  0.00    +0.334 C 
ATOM     26  C   UNL     1      34.457 -16.777 -21.720  0.00  0.00    +0.112 C 
ATOM     27  H   UNL     1      34.471 -19.708 -22.466  0.00  0.00    +0.179 HD
BRANCH  26  30
ATOM     28 CL   UNL     1      33.319 -11.656 -23.542  0.00  0.00    -0.075 Cl
ATOM     29  S   UNL     1      33.990 -14.543 -23.362  0.00  0.00    -0.064 S 
ATOM     30  C   UNL     1      34.127 -15.346 -21.855  0.00  0.00    +0.105 C 
ATOM     31  C   UNL     1      33.892 -14.497 -20.796  0.00  0.00    +0.019 C 
ATOM     32  C   UNL     1      33.596 -13.171 -21.227  0.00  0.00    +0.019 C 
ATOM     33  C   UNL     1      33.616 -13.057 -22.599  0.00  0.00    +0.088 C 
ENDBRANCH  26  30
ENDBRANCH  19  25
ENDBRANCH   1  19
TORSDOF 6
ENDMDL
MODEL 9
REMARK VINA RESULT:     -11.6      3.442      5.245
REMARK  Name = 16040261
REMARK  6 active torsions:
REMARK  status: ('A' for Active; 'I' for Inactive)
REMARK    1  A    between atoms: N_1  and  C_5
REMARK    2  A    between atoms: N_1  and  S_19
REMARK    3  A    between atoms: N_4  and  C_9
REMARK    4  A    between atoms: C_9  and  C_14
REMARK    5  A    between atoms: S_19  and  C_25
REMARK    6  A    between atoms: C_26  and  C_30
REMARK                            x       y       z     vdW  Elec       q    Type
REMARK                         _______ _______ _______ _____ _____    ______ ____
ROOT
ATOM      1  N   UNL     1      34.168 -19.015 -20.663  0.00  0.00    -0.168 NA
ATOM      2  H   UNL     1      33.379 -19.000 -21.309  0.00  0.00    +0.149 HD
ENDROOT
BRANCH   1   5
ATOM      3  O   UNL     1      32.168 -20.531 -19.271  0.00  0.00    -0.273 OA
ATOM      4  N   UNL     1      34.036 -21.538 -18.257  0.00  0.00    -0.272 N 
ATOM      5  C   UNL     1      34.381 -20.412 -20.267  0.00  0.00    +0.153 C 
ATOM      6  C   UNL     1      35.712 -20.581 -19.542  0.00  0.00    +0.048 C 
ATOM      7  C   UNL     1      35.440 -21.700 -18.556  0.00  0.00    +0.096 C 
ATOM      8  C   UNL     1      33.359 -20.799 -19.227  0.00  0.00    +0.242 C 
BRANCH   4   9
ATOM      9  C   UNL     1      33.421 -22.198 -17.126  0.00  0.00    +0.152 C 
ATOM     10  C   UNL     1      32.640 -23.426 -17.533  0.00  0.00    +0.031 C 
BRANCH   9  14
ATOM     11  O   UNL     1      33.677 -23.904 -12.380  0.00  0.00    -0.350 OA
ATOM     12  O   UNL     1      35.727 -22.274 -16.576  0.00  0.00    -0.273 OA
ATOM     13  N   UNL     1      34.265 -23.245 -15.057  0.00  0.00    -0.273 N 
ATOM     14  C   UNL     1      34.579 -22.574 -16.235  0.00  0.00    +0.244 C 
ATOM     15  C   UNL     1      35.328 -23.642 -14.133  0.00  0.00    +0.126 C 
ATOM     16  C   UNL     1      32.931 -23.728 -14.682  0.00  0.00    +0.126 C 
ATOM     17  C   UNL     1      34.937 -23.309 -12.700  0.00  0.00    +0.164 C 
ATOM     18  C   UNL     1      32.640 -23.397 -13.224  0.00  0.00    +0.164 C 
ENDBRANCH   9  14
ENDBRANCH   4   9
ENDBRANCH   1   5
BRANCH   1  19
ATOM     19  S   UNL     1      35.463 -18.185 -21.421  0.00  0.00    +0.104 S 
ATOM     20  O   UNL     1      35.870 -18.913 -22.607  0.00  0.00    -0.149 OA
ATOM     21  O   UNL     1      36.427 -17.787 -20.414  0.00  0.00    -0.149 OA
BRANCH  19  25
ATOM     22  N   UNL     1      35.000 -16.179 -23.260  0.00  0.00    -0.184 N 
ATOM     23  N   UNL     1      34.117 -15.828 -21.291  0.00  0.00    -0.312 NA
ATOM     24  N   UNL     1      34.395 -14.991 -23.402  0.00  0.00    -0.112 NA
ATOM     25  C   UNL     1      34.811 -16.625 -22.019  0.00  0.00    +0.334 C 
ATOM     26  C   UNL     1      33.876 -14.823 -22.183  0.00  0.00    +0.112 C 
ATOM     27  H   UNL     1      35.504 -16.649 -23.962  0.00  0.00    +0.179 HD
BRANCH  26  30
ATOM     28 CL   UNL     1      31.297  -9.907 -22.059  0.00  0.00    -0.075 Cl
ATOM     29  S   UNL     1      32.897 -12.276 -22.861  0.00  0.00    -0.064 S 
ATOM     30  C   UNL     1      33.092 -13.627 -21.825  0.00  0.00    +0.105 C 
ATOM     31  C   UNL     1      32.430 -13.458 -20.629  0.00  0.00    +0.019 C 
ATOM     32  C   UNL     1      31.755 -12.204 -20.562  0.00  0.00    +0.019 C 
ATOM     33  C   UNL     1      31.926 -11.463 -21.710  0.00  0.00    +0.088 C 
ENDBRANCH  26  30
ENDBRANCH  19  25
ENDBRANCH   1  19
TORSDOF 6
ENDMDL
