MODEL 1
REMARK VINA RESULT:     -11.4      0.000      0.000
REMARK  Name = 71183216
REMARK  5 active torsions:
REMARK  status: ('A' for Active; 'I' for Inactive)
REMARK    1  A    between atoms: N_3  and  C_24
REMARK    2  A    between atoms: C_10  and  C_13
REMARK    3  A    between atoms: C_18  and  O_19
REMARK    4  A    between atoms: O_19  and  C_23
REMARK    5  A    between atoms: C_24  and  C_27
REMARK                            x       y       z     vdW  Elec       q    Type
REMARK                         _______ _______ _______ _____ _____    ______ ____
ROOT
ATOM      1  O   UNL     1      35.634 -23.304 -15.456  0.00  0.00    -0.473 OA
ATOM      2  O   UNL     1      32.394 -23.764 -17.638  0.00  0.00    -0.270 OA
ATOM      3  N   UNL     1      32.784 -23.247 -15.396  0.00  0.00    -0.259 N 
ATOM      4  C   UNL     1      33.521 -22.424 -14.440  0.00  0.00    +0.142 C 
ATOM      5  C   UNL     1      34.218 -22.387 -17.189  0.00  0.00    +0.087 C 
ATOM      6  C   UNL     1      34.946 -22.931 -14.254  0.00  0.00    +0.227 C 
ATOM      7  C   UNL     1      33.048 -23.195 -16.767  0.00  0.00    +0.253 C 
ATOM      8  C   UNL     1      35.437 -22.447 -16.502  0.00  0.00    +0.143 C 
ATOM      9  C   UNL     1      34.097 -21.577 -18.323  0.00  0.00    +0.008 C 
ATOM     10  C   UNL     1      35.190 -20.826 -18.757  0.00  0.00    +0.000 C 
ATOM     11  C   UNL     1      36.533 -21.712 -16.952  0.00  0.00    +0.037 C 
ATOM     12  C   UNL     1      36.405 -20.892 -18.073  0.00  0.00    +0.003 C 
ENDROOT
BRANCH  10  13
ATOM     13  C   UNL     1      35.066 -19.978 -19.924  0.00  0.00    +0.000 C 
ATOM     14  C   UNL     1      36.154 -19.219 -20.354  0.00  0.00    +0.003 C 
ATOM     15  C   UNL     1      33.856 -19.919 -20.616  0.00  0.00    +0.003 C 
ATOM     16  C   UNL     1      36.033 -18.401 -21.478  0.00  0.00    +0.037 C 
ATOM     17  C   UNL     1      33.735 -19.102 -21.740  0.00  0.00    +0.037 C 
ATOM     18  C   UNL     1      34.823 -18.342 -22.170  0.00  0.00    +0.147 C 
BRANCH  18  19
ATOM     19  O   UNL     1      34.705 -17.543 -23.266  0.00  0.00    -0.404 OA
BRANCH  19  23
ATOM     20  F   UNL     1      34.161 -15.909 -21.760  0.00  0.00    -0.133 F 
ATOM     21  F   UNL     1      33.160 -15.956 -23.702  0.00  0.00    -0.133 F 
ATOM     22  F   UNL     1      35.257 -15.348 -23.596  0.00  0.00    -0.133 F 
ATOM     23  C   UNL     1      34.335 -16.182 -23.071  0.00  0.00    +0.575 C 
ENDBRANCH  19  23
ENDBRANCH  18  19
ENDBRANCH  10  13
BRANCH   3  24
ATOM     24  C   UNL     1      31.733 -24.105 -14.872  0.00  0.00    +0.194 C 
BRANCH  24  27
ATOM     25  N   UNL     1      30.152 -22.279 -14.666  0.00  0.00    -0.217 NA
ATOM     26  N   UNL     1      29.487 -24.324 -15.756  0.00  0.00    -0.195 NA
ATOM     27  C   UNL     1      30.367 -23.531 -15.114  0.00  0.00    +0.028 C 
ATOM     28  C   UNL     1      28.914 -21.796 -14.900  0.00  0.00    +0.164 C 
ATOM     29  C   UNL     1      28.270 -23.778 -15.957  0.00  0.00    +0.107 C 
ATOM     30  C   UNL     1      27.923 -22.506 -15.547  0.00  0.00    +0.022 C 
ENDBRANCH  24  27
ENDBRANCH   3  24
TORSDOF 5
ENDMDL
MODEL 2
REMARK VINA RESULT:     -11.1      2.894      5.400
REMARK  Name = 71183216
REMARK  5 active torsions:
REMARK  status: ('A' for Active; 'I' for Inactive)
REMARK    1  A    between atoms: N_3  and  C_24
REMARK    2  A    between atoms: C_10  and  C_13
REMARK    3  A    between atoms: C_18  and  O_19
REMARK    4  A    between atoms: O_19  and  C_23
REMARK    5  A    between atoms: C_24  and  C_27
REMARK                            x       y       z     vdW  Elec       q    Type
REMARK                         _______ _______ _______ _____ _____    ______ ____
ROOT
ATOM      1  O   UNL     1      32.941 -23.770 -14.335  0.00  0.00    -0.473 OA
ATOM      2  O   UNL     1      36.204 -21.585 -14.552  0.00  0.00    -0.270 OA
ATOM      3  N   UNL     1      35.786 -23.851 -14.176  0.00  0.00    -0.259 N 
ATOM      4  C   UNL     1      35.075 -25.051 -14.607  0.00  0.00    +0.142 C 
ATOM      5  C   UNL     1      34.455 -22.535 -15.761  0.00  0.00    +0.087 C 
ATOM      6  C   UNL     1      33.617 -25.022 -14.163  0.00  0.00    +0.227 C 
ATOM      7  C   UNL     1      35.563 -22.609 -14.777  0.00  0.00    +0.253 C 
ATOM      8  C   UNL     1      33.216 -23.143 -15.517  0.00  0.00    +0.143 C 
ATOM      9  C   UNL     1      34.654 -21.810 -16.940  0.00  0.00    +0.008 C 
ATOM     10  C   UNL     1      33.621 -21.704 -17.871  0.00  0.00    +0.000 C 
ATOM     11  C   UNL     1      32.179 -23.015 -16.440  0.00  0.00    +0.037 C 
ATOM     12  C   UNL     1      32.386 -22.305 -17.622  0.00  0.00    +0.003 C 
ENDROOT
BRANCH  10  13
ATOM     13  C   UNL     1      33.827 -20.962 -19.096  0.00  0.00    +0.000 C 
ATOM     14  C   UNL     1      35.119 -20.763 -19.583  0.00  0.00    +0.003 C 
ATOM     15  C   UNL     1      32.733 -20.444 -19.790  0.00  0.00    +0.003 C 
ATOM     16  C   UNL     1      35.317 -20.046 -20.763  0.00  0.00    +0.037 C 
ATOM     17  C   UNL     1      32.931 -19.727 -20.970  0.00  0.00    +0.037 C 
ATOM     18  C   UNL     1      34.223 -19.528 -21.457  0.00  0.00    +0.147 C 
BRANCH  18  19
ATOM     19  O   UNL     1      34.417 -18.828 -22.608  0.00  0.00    -0.404 OA
BRANCH  19  23
ATOM     20  F   UNL     1      34.762 -16.809 -23.626  0.00  0.00    -0.133 F 
ATOM     21  F   UNL     1      36.360 -17.694 -22.426  0.00  0.00    -0.133 F 
ATOM     22  F   UNL     1      34.597 -16.880 -21.422  0.00  0.00    -0.133 F 
ATOM     23  C   UNL     1      35.020 -17.541 -22.521  0.00  0.00    +0.575 C 
ENDBRANCH  19  23
ENDBRANCH  18  19
ENDBRANCH  10  13
BRANCH   3  24
ATOM     24  C   UNL     1      36.769 -23.998 -13.115  0.00  0.00    +0.194 C 
BRANCH  24  27
ATOM     25  N   UNL     1      38.485 -25.707 -13.027  0.00  0.00    -0.217 NA
ATOM     26  N   UNL     1      38.667 -23.907 -14.619  0.00  0.00    -0.195 NA
ATOM     27  C   UNL     1      38.059 -24.576 -13.620  0.00  0.00    +0.028 C 
ATOM     28  C   UNL     1      39.648 -26.198 -13.506  0.00  0.00    +0.164 C 
ATOM     29  C   UNL     1      39.823 -24.453 -15.049  0.00  0.00    +0.107 C 
ATOM     30  C   UNL     1      40.367 -25.609 -14.524  0.00  0.00    +0.022 C 
ENDBRANCH  24  27
ENDBRANCH   3  24
TORSDOF 5
ENDMDL
MODEL 3
REMARK VINA RESULT:     -11.1      2.755      4.419
REMARK  Name = 71183216
REMARK  5 active torsions:
REMARK  status: ('A' for Active; 'I' for Inactive)
REMARK    1  A    between atoms: N_3  and  C_24
REMARK    2  A    between atoms: C_10  and  C_13
REMARK    3  A    between atoms: C_18  and  O_19
REMARK    4  A    between atoms: O_19  and  C_23
REMARK    5  A    between atoms: C_24  and  C_27
REMARK                            x       y       z     vdW  Elec       q    Type
REMARK                         _______ _______ _______ _____ _____    ______ ____
ROOT
ATOM      1  O   UNL     1      33.592 -23.766 -15.032  0.00  0.00    -0.473 OA
ATOM      2  O   UNL     1      36.837 -21.545 -14.936  0.00  0.00    -0.270 OA
ATOM      3  N   UNL     1      36.430 -23.838 -14.782  0.00  0.00    -0.259 N 
ATOM      4  C   UNL     1      35.748 -25.000 -15.344  0.00  0.00    +0.142 C 
ATOM      5  C   UNL     1      35.140 -22.395 -16.287  0.00  0.00    +0.087 C 
ATOM      6  C   UNL     1      34.275 -25.023 -14.950  0.00  0.00    +0.227 C 
ATOM      7  C   UNL     1      36.214 -22.549 -15.275  0.00  0.00    +0.253 C 
ATOM      8  C   UNL     1      33.901 -23.031 -16.142  0.00  0.00    +0.143 C 
ATOM      9  C   UNL     1      35.372 -21.564 -17.387  0.00  0.00    +0.008 C 
ATOM     10  C   UNL     1      34.370 -21.381 -18.340  0.00  0.00    +0.000 C 
ATOM     11  C   UNL     1      32.894 -22.829 -17.086  0.00  0.00    +0.037 C 
ATOM     12  C   UNL     1      33.134 -22.013 -18.191  0.00  0.00    +0.003 C 
ENDROOT
BRANCH  10  13
ATOM     13  C   UNL     1      34.609 -20.530 -19.486  0.00  0.00    +0.000 C 
ATOM     14  C   UNL     1      35.895 -20.055 -19.745  0.00  0.00    +0.003 C 
ATOM     15  C   UNL     1      33.554 -20.182 -20.328  0.00  0.00    +0.003 C 
ATOM     16  C   UNL     1      36.125 -19.233 -20.849  0.00  0.00    +0.037 C 
ATOM     17  C   UNL     1      33.784 -19.360 -21.432  0.00  0.00    +0.037 C 
ATOM     18  C   UNL     1      35.069 -18.885 -21.691  0.00  0.00    +0.147 C 
BRANCH  18  19
ATOM     19  O   UNL     1      35.294 -18.081 -22.767  0.00  0.00    -0.404 OA
BRANCH  19  23
ATOM     20  F   UNL     1      34.270 -16.399 -21.603  0.00  0.00    -0.133 F 
ATOM     21  F   UNL     1      33.462 -17.011 -23.539  0.00  0.00    -0.133 F 
ATOM     22  F   UNL     1      35.346 -15.906 -23.470  0.00  0.00    -0.133 F 
ATOM     23  C   UNL     1      34.604 -16.838 -22.836  0.00  0.00    +0.575 C 
ENDBRANCH  19  23
ENDBRANCH  18  19
ENDBRANCH  10  13
BRANCH   3  24
ATOM     24  C   UNL     1      37.378 -24.074 -13.704  0.00  0.00    +0.194 C 
BRANCH  24  27
ATOM     25  N   UNL     1      36.110 -25.018 -11.867  0.00  0.00    -0.217 NA
ATOM     26  N   UNL     1      36.857 -22.730 -11.756  0.00  0.00    -0.195 NA
ATOM     27  C   UNL     1      36.739 -23.931 -12.353  0.00  0.00    +0.028 C 
ATOM     28  C   UNL     1      35.548 -24.854 -10.651  0.00  0.00    +0.164 C 
ATOM     29  C   UNL     1      36.273 -22.636 -10.544  0.00  0.00    +0.107 C 
ATOM     30  C   UNL     1      35.597 -23.676  -9.936  0.00  0.00    +0.022 C 
ENDBRANCH  24  27
ENDBRANCH   3  24
TORSDOF 5
ENDMDL
MODEL 4
REMARK VINA RESULT:     -10.7      8.817     13.243
REMARK  Name = 71183216
REMARK  5 active torsions:
REMARK  status: ('A' for Active; 'I' for Inactive)
REMARK    1  A    between atoms: N_3  and  C_24
REMARK    2  A    between atoms: C_10  and  C_13
REMARK    3  A    between atoms: C_18  and  O_19
REMARK    4  A    between atoms: O_19  and  C_23
REMARK    5  A    between atoms: C_24  and  C_27
REMARK                            x       y       z     vdW  Elec       q    Type
REMARK                         _______ _______ _______ _____ _____    ______ ____
ROOT
ATOM      1  O   UNL     1      30.749  -9.089 -20.571  0.00  0.00    -0.473 OA
ATOM      2  O   UNL     1      31.723  -9.640 -24.342  0.00  0.00    -0.270 OA
ATOM      3  N   UNL     1      32.243  -8.016 -22.749  0.00  0.00    -0.259 N 
ATOM      4  C   UNL     1      32.693  -7.737 -21.388  0.00  0.00    +0.142 C 
ATOM      5  C   UNL     1      32.034 -10.386 -22.158  0.00  0.00    +0.087 C 
ATOM      6  C   UNL     1      31.563  -7.924 -20.381  0.00  0.00    +0.227 C 
ATOM      7  C   UNL     1      31.986  -9.318 -23.186  0.00  0.00    +0.253 C 
ATOM      8  C   UNL     1      31.452 -10.216 -20.896  0.00  0.00    +0.143 C 
ATOM      9  C   UNL     1      32.648 -11.600 -22.483  0.00  0.00    +0.008 C 
ATOM     10  C   UNL     1      32.685 -12.631 -21.544  0.00  0.00    +0.000 C 
ATOM     11  C   UNL     1      31.471 -11.257 -19.968  0.00  0.00    +0.037 C 
ATOM     12  C   UNL     1      32.099 -12.460 -20.289  0.00  0.00    +0.003 C 
ENDROOT
BRANCH  10  13
ATOM     13  C   UNL     1      33.328 -13.885 -21.874  0.00  0.00    +0.000 C 
ATOM     14  C   UNL     1      33.535 -14.234 -23.209  0.00  0.00    +0.003 C 
ATOM     15  C   UNL     1      33.738 -14.746 -20.856  0.00  0.00    +0.003 C 
ATOM     16  C   UNL     1      34.153 -15.443 -23.526  0.00  0.00    +0.037 C 
ATOM     17  C   UNL     1      34.357 -15.956 -21.173  0.00  0.00    +0.037 C 
ATOM     18  C   UNL     1      34.564 -16.304 -22.508  0.00  0.00    +0.147 C 
BRANCH  18  19
ATOM     19  O   UNL     1      35.166 -17.485 -22.817  0.00  0.00    -0.404 OA
BRANCH  19  23
ATOM     20  F   UNL     1      34.197 -19.167 -21.608  0.00  0.00    -0.133 F 
ATOM     21  F   UNL     1      34.995 -19.597 -23.597  0.00  0.00    -0.133 F 
ATOM     22  F   UNL     1      33.164 -18.417 -23.413  0.00  0.00    -0.133 F 
ATOM     23  C   UNL     1      34.366 -18.662 -22.849  0.00  0.00    +0.575 C 
ENDBRANCH  19  23
ENDBRANCH  18  19
ENDBRANCH  10  13
BRANCH   3  24
ATOM     24  C   UNL     1      32.105  -6.886 -23.654  0.00  0.00    +0.194 C 
BRANCH  24  27
ATOM     25  N   UNL     1      32.165  -4.585 -22.892  0.00  0.00    -0.217 NA
ATOM     26  N   UNL     1      30.176  -5.905 -22.562  0.00  0.00    -0.195 NA
ATOM     27  C   UNL     1      31.438  -5.714 -22.992  0.00  0.00    +0.028 C 
ATOM     28  C   UNL     1      31.535  -3.553 -22.293  0.00  0.00    +0.164 C 
ATOM     29  C   UNL     1      29.607  -4.833 -21.972  0.00  0.00    +0.107 C 
ATOM     30  C   UNL     1      30.245  -3.620 -21.808  0.00  0.00    +0.022 C 
ENDBRANCH  24  27
ENDBRANCH   3  24
TORSDOF 5
ENDMDL
MODEL 5
REMARK VINA RESULT:     -10.6      6.256     10.711
REMARK  Name = 71183216
REMARK  5 active torsions:
REMARK  status: ('A' for Active; 'I' for Inactive)
REMARK    1  A    between atoms: N_3  and  C_24
REMARK    2  A    between atoms: C_10  and  C_13
REMARK    3  A    between atoms: C_18  and  O_19
REMARK    4  A    between atoms: O_19  and  C_23
REMARK    5  A    between atoms: C_24  and  C_27
REMARK                            x       y       z     vdW  Elec       q    Type
REMARK                         _______ _______ _______ _____ _____    ______ ____
ROOT
ATOM      1  O   UNL     1      33.637 -13.211 -23.957  0.00  0.00    -0.473 OA
ATOM      2  O   UNL     1      34.195 -12.970 -20.070  0.00  0.00    -0.270 OA
ATOM      3  N   UNL     1      32.414 -12.464 -21.492  0.00  0.00    -0.259 N 
ATOM      4  C   UNL     1      31.560 -12.910 -22.590  0.00  0.00    +0.142 C 
ATOM      5  C   UNL     1      33.856 -14.411 -21.868  0.00  0.00    +0.087 C 
ATOM      6  C   UNL     1      32.270 -12.779 -23.933  0.00  0.00    +0.227 C 
ATOM      7  C   UNL     1      33.507 -13.219 -21.058  0.00  0.00    +0.253 C 
ATOM      8  C   UNL     1      33.871 -14.368 -23.268  0.00  0.00    +0.143 C 
ATOM      9  C   UNL     1      34.209 -15.591 -21.204  0.00  0.00    +0.008 C 
ATOM     10  C   UNL     1      34.566 -16.720 -21.941  0.00  0.00    +0.000 C 
ATOM     11  C   UNL     1      34.249 -15.493 -24.001  0.00  0.00    +0.037 C 
ATOM     12  C   UNL     1      34.585 -16.672 -23.336  0.00  0.00    +0.003 C 
ENDROOT
BRANCH  10  13
ATOM     13  C   UNL     1      34.922 -17.945 -21.258  0.00  0.00    +0.000 C 
ATOM     14  C   UNL     1      33.937 -18.879 -20.939  0.00  0.00    +0.003 C 
ATOM     15  C   UNL     1      36.252 -18.190 -20.916  0.00  0.00    +0.003 C 
ATOM     16  C   UNL     1      34.281 -20.059 -20.279  0.00  0.00    +0.037 C 
ATOM     17  C   UNL     1      36.597 -19.370 -20.256  0.00  0.00    +0.037 C 
ATOM     18  C   UNL     1      35.611 -20.304 -19.937  0.00  0.00    +0.147 C 
BRANCH  18  19
ATOM     19  O   UNL     1      35.947 -21.454 -19.291  0.00  0.00    -0.404 OA
BRANCH  19  23
ATOM     20  F   UNL     1      34.845 -21.755 -17.310  0.00  0.00    -0.133 F 
ATOM     21  F   UNL     1      36.348 -20.177 -17.473  0.00  0.00    -0.133 F 
ATOM     22  F   UNL     1      36.992 -22.265 -17.426  0.00  0.00    -0.133 F 
ATOM     23  C   UNL     1      36.029 -21.430 -17.870  0.00  0.00    +0.575 C 
ENDBRANCH  19  23
ENDBRANCH  18  19
ENDBRANCH  10  13
BRANCH   3  24
ATOM     24  C   UNL     1      32.065 -11.214 -20.837  0.00  0.00    +0.194 C 
BRANCH  24  27
ATOM     25  N   UNL     1      30.632  -9.565 -21.886  0.00  0.00    -0.217 NA
ATOM     26  N   UNL     1      32.942  -9.739 -22.549  0.00  0.00    -0.195 NA
ATOM     27  C   UNL     1      31.867 -10.099 -21.822  0.00  0.00    +0.028 C 
ATOM     28  C   UNL     1      30.489  -8.565 -22.782  0.00  0.00    +0.164 C 
ATOM     29  C   UNL     1      32.728  -8.735 -23.424  0.00  0.00    +0.107 C 
ATOM     30  C   UNL     1      31.511  -8.104 -23.585  0.00  0.00    +0.022 C 
ENDBRANCH  24  27
ENDBRANCH   3  24
TORSDOF 5
ENDMDL
MODEL 6
REMARK VINA RESULT:     -10.6      1.203      1.408
REMARK  Name = 71183216
REMARK  5 active torsions:
REMARK  status: ('A' for Active; 'I' for Inactive)
REMARK    1  A    between atoms: N_3  and  C_24
REMARK    2  A    between atoms: C_10  and  C_13
REMARK    3  A    between atoms: C_18  and  O_19
REMARK    4  A    between atoms: O_19  and  C_23
REMARK    5  A    between atoms: C_24  and  C_27
REMARK                            x       y       z     vdW  Elec       q    Type
REMARK                         _______ _______ _______ _____ _____    ______ ____
ROOT
ATOM      1  O   UNL     1      35.709 -23.460 -15.009  0.00  0.00    -0.473 OA
ATOM      2  O   UNL     1      32.341 -23.892 -16.994  0.00  0.00    -0.270 OA
ATOM      3  N   UNL     1      32.871 -23.309 -14.797  0.00  0.00    -0.259 N 
ATOM      4  C   UNL     1      33.684 -22.477 -13.914  0.00  0.00    +0.142 C 
ATOM      5  C   UNL     1      34.228 -22.560 -16.697  0.00  0.00    +0.087 C 
ATOM      6  C   UNL     1      35.101 -23.023 -13.787  0.00  0.00    +0.227 C 
ATOM      7  C   UNL     1      33.059 -23.314 -16.182  0.00  0.00    +0.253 C 
ATOM      8  C   UNL     1      35.481 -22.635 -16.075  0.00  0.00    +0.143 C 
ATOM      9  C   UNL     1      34.070 -21.787 -17.851  0.00  0.00    +0.008 C 
ATOM     10  C   UNL     1      35.159 -21.087 -18.372  0.00  0.00    +0.000 C 
ATOM     11  C   UNL     1      36.573 -21.953 -16.611  0.00  0.00    +0.037 C 
ATOM     12  C   UNL     1      36.407 -21.169 -17.753  0.00  0.00    +0.003 C 
ENDROOT
BRANCH  10  13
ATOM     13  C   UNL     1      34.996 -20.279 -19.560  0.00  0.00    +0.000 C 
ATOM     14  C   UNL     1      36.090 -19.601 -20.099  0.00  0.00    +0.003 C 
ATOM     15  C   UNL     1      33.744 -20.175 -20.166  0.00  0.00    +0.003 C 
ATOM     16  C   UNL     1      35.932 -18.820 -21.244  0.00  0.00    +0.037 C 
ATOM     17  C   UNL     1      33.586 -19.394 -21.311  0.00  0.00    +0.037 C 
ATOM     18  C   UNL     1      34.679 -18.716 -21.850  0.00  0.00    +0.147 C 
BRANCH  18  19
ATOM     19  O   UNL     1      34.525 -17.953 -22.966  0.00  0.00    -0.404 OA
BRANCH  19  23
ATOM     20  F   UNL     1      34.347 -19.721 -24.407  0.00  0.00    -0.133 F 
ATOM     21  F   UNL     1      33.983 -17.695 -25.142  0.00  0.00    -0.133 F 
ATOM     22  F   UNL     1      32.515 -18.631 -23.821  0.00  0.00    -0.133 F 
ATOM     23  C   UNL     1      33.835 -18.515 -24.077  0.00  0.00    +0.575 C 
ENDBRANCH  19  23
ENDBRANCH  18  19
ENDBRANCH  10  13
BRANCH   3  24
ATOM     24  C   UNL     1      31.825 -24.113 -14.185  0.00  0.00    +0.194 C 
BRANCH  24  27
ATOM     25  N   UNL     1      30.142 -22.392 -14.475  0.00  0.00    -0.217 NA
ATOM     26  N   UNL     1      29.673 -24.655 -15.160  0.00  0.00    -0.195 NA
ATOM     27  C   UNL     1      30.456 -23.692 -14.636  0.00  0.00    +0.028 C 
ATOM     28  C   UNL     1      28.905 -22.050 -14.891  0.00  0.00    +0.164 C 
ATOM     29  C   UNL     1      28.451 -24.243 -15.555  0.00  0.00    +0.107 C 
ATOM     30  C   UNL     1      28.008 -22.940 -15.444  0.00  0.00    +0.022 C 
ENDBRANCH  24  27
ENDBRANCH   3  24
TORSDOF 5
ENDMDL
MODEL 7
REMARK VINA RESULT:     -10.6      9.123     13.993
REMARK  Name = 71183216
REMARK  5 active torsions:
REMARK  status: ('A' for Active; 'I' for Inactive)
REMARK    1  A    between atoms: N_3  and  C_24
REMARK    2  A    between atoms: C_10  and  C_13
REMARK    3  A    between atoms: C_18  and  O_19
REMARK    4  A    between atoms: O_19  and  C_23
REMARK    5  A    between atoms: C_24  and  C_27
REMARK                            x       y       z     vdW  Elec       q    Type
REMARK                         _______ _______ _______ _____ _____    ______ ____
ROOT
ATOM      1  O   UNL     1      30.619  -8.398 -22.292  0.00  0.00    -0.473 OA
ATOM      2  O   UNL     1      34.065  -8.585 -24.180  0.00  0.00    -0.270 OA
ATOM      3  N   UNL     1      33.246  -7.298 -22.414  0.00  0.00    -0.259 N 
ATOM      4  C   UNL     1      32.540  -7.283 -21.135  0.00  0.00    +0.142 C 
ATOM      5  C   UNL     1      32.646  -9.660 -22.679  0.00  0.00    +0.087 C 
ATOM      6  C   UNL     1      31.034  -7.418 -21.332  0.00  0.00    +0.227 C 
ATOM      7  C   UNL     1      33.386  -8.469 -23.162  0.00  0.00    +0.253 C 
ATOM      8  C   UNL     1      31.321  -9.570 -22.235  0.00  0.00    +0.143 C 
ATOM      9  C   UNL     1      33.288 -10.903 -22.704  0.00  0.00    +0.008 C 
ATOM     10  C   UNL     1      32.607 -12.043 -22.279  0.00  0.00    +0.000 C 
ATOM     11  C   UNL     1      30.636 -10.716 -21.832  0.00  0.00    +0.037 C 
ATOM     12  C   UNL     1      31.284 -11.950 -21.843  0.00  0.00    +0.003 C 
ENDROOT
BRANCH  10  13
ATOM     13  C   UNL     1      33.271 -13.329 -22.295  0.00  0.00    +0.000 C 
ATOM     14  C   UNL     1      33.507 -14.008 -21.100  0.00  0.00    +0.003 C 
ATOM     15  C   UNL     1      33.679 -13.887 -23.507  0.00  0.00    +0.003 C 
ATOM     16  C   UNL     1      34.149 -15.246 -21.116  0.00  0.00    +0.037 C 
ATOM     17  C   UNL     1      34.321 -15.126 -23.523  0.00  0.00    +0.037 C 
ATOM     18  C   UNL     1      34.557 -15.805 -22.327  0.00  0.00    +0.147 C 
BRANCH  18  19
ATOM     19  O   UNL     1      35.184 -17.012 -22.342  0.00  0.00    -0.404 OA
BRANCH  19  23
ATOM     20  F   UNL     1      33.874 -18.554 -21.274  0.00  0.00    -0.133 F 
ATOM     21  F   UNL     1      35.166 -19.196 -22.916  0.00  0.00    -0.133 F 
ATOM     22  F   UNL     1      33.390 -18.001 -23.359  0.00  0.00    -0.133 F 
ATOM     23  C   UNL     1      34.387 -18.185 -22.468  0.00  0.00    +0.575 C 
ENDBRANCH  19  23
ENDBRANCH  18  19
ENDBRANCH  10  13
BRANCH   3  24
ATOM     24  C   UNL     1      33.835  -6.048 -22.868  0.00  0.00    +0.194 C 
BRANCH  24  27
ATOM     25  N   UNL     1      32.749  -5.442 -24.949  0.00  0.00    -0.217 NA
ATOM     26  N   UNL     1      32.161  -4.295 -22.912  0.00  0.00    -0.195 NA
ATOM     27  C   UNL     1      32.850  -5.206 -23.627  0.00  0.00    +0.028 C 
ATOM     28  C   UNL     1      31.856  -4.667 -25.599  0.00  0.00    +0.164 C 
ATOM     29  C   UNL     1      31.286  -3.556 -23.625  0.00  0.00    +0.107 C 
ATOM     30  C   UNL     1      31.089  -3.700 -24.983  0.00  0.00    +0.022 C 
ENDBRANCH  24  27
ENDBRANCH   3  24
TORSDOF 5
ENDMDL
MODEL 8
REMARK VINA RESULT:     -10.0      5.704      9.274
REMARK  Name = 71183216
REMARK  5 active torsions:
REMARK  status: ('A' for Active; 'I' for Inactive)
REMARK    1  A    between atoms: N_3  and  C_24
REMARK    2  A    between atoms: C_10  and  C_13
REMARK    3  A    between atoms: C_18  and  O_19
REMARK    4  A    between atoms: O_19  and  C_23
REMARK    5  A    between atoms: C_24  and  C_27
REMARK                            x       y       z     vdW  Elec       q    Type
REMARK                         _______ _______ _______ _____ _____    ______ ____
ROOT
ATOM      1  O   UNL     1      32.161 -21.203 -20.238  0.00  0.00    -0.473 OA
ATOM      2  O   UNL     1      36.089 -21.194 -20.445  0.00  0.00    -0.270 OA
ATOM      3  N   UNL     1      34.442 -19.566 -20.731  0.00  0.00    -0.259 N 
ATOM      4  C   UNL     1      33.234 -18.941 -20.199  0.00  0.00    +0.142 C 
ATOM      5  C   UNL     1      34.249 -21.313 -19.022  0.00  0.00    +0.087 C 
ATOM      6  C   UNL     1      32.001 -19.797 -20.468  0.00  0.00    +0.227 C 
ATOM      7  C   UNL     1      35.014 -20.689 -20.129  0.00  0.00    +0.253 C 
ATOM      8  C   UNL     1      32.865 -21.509 -19.107  0.00  0.00    +0.143 C 
ATOM      9  C   UNL     1      34.945 -21.744 -17.887  0.00  0.00    +0.008 C 
ATOM     10  C   UNL     1      34.253 -22.357 -16.842  0.00  0.00    +0.000 C 
ATOM     11  C   UNL     1      32.181 -22.143 -18.070  0.00  0.00    +0.037 C 
ATOM     12  C   UNL     1      32.874 -22.555 -16.933  0.00  0.00    +0.003 C 
ENDROOT
BRANCH  10  13
ATOM     13  C   UNL     1      34.968 -22.794 -15.663  0.00  0.00    +0.000 C 
ATOM     14  C   UNL     1      36.348 -22.613 -15.576  0.00  0.00    +0.003 C 
ATOM     15  C   UNL     1      34.277 -23.400 -14.614  0.00  0.00    +0.003 C 
ATOM     16  C   UNL     1      37.037 -23.036 -14.439  0.00  0.00    +0.037 C 
ATOM     17  C   UNL     1      34.965 -23.823 -13.477  0.00  0.00    +0.037 C 
ATOM     18  C   UNL     1      36.346 -23.642 -13.390  0.00  0.00    +0.147 C 
BRANCH  18  19
ATOM     19  O   UNL     1      37.018 -24.056 -12.281  0.00  0.00    -0.404 OA
BRANCH  19  23
ATOM     20  F   UNL     1      38.914 -25.263 -12.706  0.00  0.00    -0.133 F 
ATOM     21  F   UNL     1      36.963 -26.124 -13.185  0.00  0.00    -0.133 F 
ATOM     22  F   UNL     1      37.560 -25.933 -11.092  0.00  0.00    -0.133 F 
ATOM     23  C   UNL     1      37.627 -25.343 -12.304  0.00  0.00    +0.575 C 
ENDBRANCH  19  23
ENDBRANCH  18  19
ENDBRANCH  10  13
BRANCH   3  24
ATOM     24  C   UNL     1      35.054 -18.953 -21.899  0.00  0.00    +0.194 C 
BRANCH  24  27
ATOM     25  N   UNL     1      34.449 -17.039 -23.257  0.00  0.00    -0.217 NA
ATOM     26  N   UNL     1      34.684 -16.789 -20.872  0.00  0.00    -0.195 NA
ATOM     27  C   UNL     1      34.706 -17.497 -22.017  0.00  0.00    +0.028 C 
ATOM     28  C   UNL     1      34.140 -15.727 -23.327  0.00  0.00    +0.164 C 
ATOM     29  C   UNL     1      34.368 -15.485 -21.015  0.00  0.00    +0.107 C 
ATOM     30  C   UNL     1      34.084 -14.893 -22.229  0.00  0.00    +0.022 C 
ENDBRANCH  24  27
ENDBRANCH   3  24
TORSDOF 5
ENDMDL
MODEL 9
REMARK VINA RESULT:      -9.6     11.403     16.818
REMARK  Name = 71183216
REMARK  5 active torsions:
REMARK  status: ('A' for Active; 'I' for Inactive)
REMARK    1  A    between atoms: N_3  and  C_24
REMARK    2  A    between atoms: C_10  and  C_13
REMARK    3  A    between atoms: C_18  and  O_19
REMARK    4  A    between atoms: O_19  and  C_23
REMARK    5  A    between atoms: C_24  and  C_27
REMARK                            x       y       z     vdW  Elec       q    Type
REMARK                         _______ _______ _______ _____ _____    ______ ____
ROOT
ATOM      1  O   UNL     1      30.663  -4.383 -23.080  0.00  0.00    -0.473 OA
ATOM      2  O   UNL     1      31.213  -6.674 -26.230  0.00  0.00    -0.270 OA
ATOM      3  N   UNL     1      32.257  -4.753 -25.414  0.00  0.00    -0.259 N 
ATOM      4  C   UNL     1      32.849  -4.078 -24.263  0.00  0.00    +0.142 C 
ATOM      5  C   UNL     1      31.441  -6.515 -23.917  0.00  0.00    +0.087 C 
ATOM      6  C   UNL     1      31.776  -3.516 -23.337  0.00  0.00    +0.227 C 
ATOM      7  C   UNL     1      31.625  -5.993 -25.294  0.00  0.00    +0.253 C 
ATOM      8  C   UNL     1      31.007  -5.689 -22.872  0.00  0.00    +0.143 C 
ATOM      9  C   UNL     1      31.676  -7.873 -23.680  0.00  0.00    +0.008 C 
ATOM     10  C   UNL     1      31.485  -8.395 -22.400  0.00  0.00    +0.000 C 
ATOM     11  C   UNL     1      30.797  -6.220 -21.600  0.00  0.00    +0.037 C 
ATOM     12  C   UNL     1      31.048  -7.571 -21.362  0.00  0.00    +0.003 C 
ENDROOT
BRANCH  10  13
ATOM     13  C   UNL     1      31.737  -9.798 -22.148  0.00  0.00    +0.000 C 
ATOM     14  C   UNL     1      32.432 -10.562 -23.086  0.00  0.00    +0.003 C 
ATOM     15  C   UNL     1      31.282 -10.387 -20.969  0.00  0.00    +0.003 C 
ATOM     16  C   UNL     1      32.673 -11.915 -22.844  0.00  0.00    +0.037 C 
ATOM     17  C   UNL     1      31.522 -11.739 -20.726  0.00  0.00    +0.037 C 
ATOM     18  C   UNL     1      32.217 -12.503 -21.664  0.00  0.00    +0.147 C 
BRANCH  18  19
ATOM     19  O   UNL     1      32.451 -13.823 -21.428  0.00  0.00    -0.404 OA
BRANCH  19  23
ATOM     20  F   UNL     1      33.759 -15.236 -20.193  0.00  0.00    -0.133 F 
ATOM     21  F   UNL     1      34.411 -13.176 -20.514  0.00  0.00    -0.133 F 
ATOM     22  F   UNL     1      34.471 -14.586 -22.182  0.00  0.00    -0.133 F 
ATOM     23  C   UNL     1      33.774 -14.223 -21.085  0.00  0.00    +0.575 C 
ENDBRANCH  19  23
ENDBRANCH  18  19
ENDBRANCH  10  13
BRANCH   3  24
ATOM     24  C   UNL     1      32.380  -4.102 -26.709  0.00  0.00    +0.194 C 
BRANCH  24  27
ATOM     25  N   UNL     1      34.456  -5.174 -27.355  0.00  0.00    -0.217 NA
ATOM     26  N   UNL     1      34.309  -2.769 -27.320  0.00  0.00    -0.195 NA
ATOM     27  C   UNL     1      33.810  -4.009 -27.158  0.00  0.00    +0.028 C 
ATOM     28  C   UNL     1      35.738  -5.053 -27.757  0.00  0.00    +0.164 C 
ATOM     29  C   UNL     1      35.596  -2.722 -27.724  0.00  0.00    +0.107 C 
ATOM     30  C   UNL     1      36.367  -3.842 -27.960  0.00  0.00    +0.022 C 
ENDBRANCH  24  27
ENDBRANCH   3  24
TORSDOF 5
ENDMDL
