MODEL 1
REMARK VINA RESULT:     -10.2      0.000      0.000
REMARK  Name = 38081
REMARK  4 active torsions:
REMARK  status: ('A' for Active; 'I' for Inactive)
REMARK    1  A    between atoms: N_1  and  C_4
REMARK    2  A    between atoms: C_5  and  C_13
REMARK    3  A    between atoms: C_16  and  C_21
REMARK    4  A    between atoms: C_21  and  O_22
REMARK                            x       y       z     vdW  Elec       q    Type
REMARK                         _______ _______ _______ _____ _____    ______ ____
ROOT
ATOM      1  N   UNL     1      34.837 -23.158 -14.823  0.00  0.00    -0.298 N 
ATOM      2  H   UNL     1      34.557 -22.612 -14.053  0.00  0.00    +0.154 HD
ATOM      3  N   UNL     1      35.582 -25.368 -15.254  0.00  0.00    -0.229 NA
ATOM      4  C   UNL     1      35.643 -24.258 -14.474  0.00  0.00    +0.138 C 
ATOM      5  C   UNL     1      36.459 -24.157 -13.353  0.00  0.00    +0.107 C 
ATOM      6  C   UNL     1      37.252 -25.248 -13.015  0.00  0.00    +0.011 C 
ATOM      7  C   UNL     1      37.212 -26.398 -13.795  0.00  0.00    +0.021 C 
ATOM      8  C   UNL     1      36.368 -26.407 -14.895  0.00  0.00    +0.100 C 
ENDROOT
BRANCH   1  10
ATOM      9  C   UNL     1      35.196 -22.014 -16.950  0.00  0.00    -0.005 C 
ATOM     10  C   UNL     1      34.353 -22.684 -16.063  0.00  0.00    +0.045 C 
ATOM     11  C   UNL     1      34.701 -21.555 -18.171  0.00  0.00    +0.069 C 
ATOM     12  C   UNL     1      33.015 -22.894 -16.397  0.00  0.00    +0.014 C 
ATOM     13  C   UNL     1      33.364 -21.766 -18.504  0.00  0.00    +0.004 C 
ATOM     14  C   UNL     1      36.633 -21.789 -16.597  0.00  0.00    +0.032 C 
ATOM     15  C   UNL     1      32.521 -22.435 -17.618  0.00  0.00    +0.001 C 
BRANCH  11  19
ATOM     16  F   UNL     1      36.417 -19.931 -18.549  0.00  0.00    -0.166 F 
ATOM     17  F   UNL     1      36.404 -21.669 -19.847  0.00  0.00    -0.166 F 
ATOM     18  F   UNL     1      34.878 -20.137 -20.071  0.00  0.00    -0.166 F 
ATOM     19  C   UNL     1      35.583 -20.838 -19.139  0.00  0.00    +0.418 C 
ENDBRANCH  11  19
ENDBRANCH   1  10
BRANCH   5  21
ATOM     20  O   UNL     1      37.502 -22.245 -12.362  0.00  0.00    -0.245 OA
ATOM     21  C   UNL     1      36.507 -22.957 -12.529  0.00  0.00    +0.341 C 
BRANCH  21  22
ATOM     22  O   UNL     1      35.311 -22.684 -11.940  0.00  0.00    -0.477 OA
ATOM     23  H   UNL     1      34.539 -22.606 -12.464  0.00  0.00    +0.295 HD
ENDBRANCH  21  22
ENDBRANCH   5  21
TORSDOF 4
ENDMDL
MODEL 2
REMARK VINA RESULT:     -10.2      6.814      9.857
REMARK  Name = 38081
REMARK  4 active torsions:
REMARK  status: ('A' for Active; 'I' for Inactive)
REMARK    1  A    between atoms: N_1  and  C_4
REMARK    2  A    between atoms: C_5  and  C_13
REMARK    3  A    between atoms: C_16  and  C_21
REMARK    4  A    between atoms: C_21  and  O_22
REMARK                            x       y       z     vdW  Elec       q    Type
REMARK                         _______ _______ _______ _____ _____    ______ ____
ROOT
ATOM      1  N   UNL     1      34.037 -17.647 -22.028  0.00  0.00    -0.298 N 
ATOM      2  H   UNL     1      33.536 -18.044 -22.777  0.00  0.00    +0.154 HD
ATOM      3  N   UNL     1      34.078 -15.621 -20.797  0.00  0.00    -0.229 NA
ATOM      4  C   UNL     1      33.996 -16.240 -22.002  0.00  0.00    +0.138 C 
ATOM      5  C   UNL     1      33.875 -15.554 -23.205  0.00  0.00    +0.107 C 
ATOM      6  C   UNL     1      33.835 -14.164 -23.171  0.00  0.00    +0.011 C 
ATOM      7  C   UNL     1      33.917 -13.502 -21.951  0.00  0.00    +0.021 C 
ATOM      8  C   UNL     1      34.037 -14.270 -20.803  0.00  0.00    +0.100 C 
ENDROOT
BRANCH   1  10
ATOM      9  C   UNL     1      33.907 -19.579 -20.543  0.00  0.00    -0.005 C 
ATOM     10  C   UNL     1      34.658 -18.599 -21.191  0.00  0.00    +0.045 C 
ATOM     11  C   UNL     1      34.538 -20.514 -19.721  0.00  0.00    +0.069 C 
ATOM     12  C   UNL     1      36.042 -18.554 -21.018  0.00  0.00    +0.014 C 
ATOM     13  C   UNL     1      35.921 -20.468 -19.549  0.00  0.00    +0.004 C 
ATOM     14  C   UNL     1      32.422 -19.633 -20.727  0.00  0.00    +0.032 C 
ATOM     15  C   UNL     1      36.673 -19.489 -20.197  0.00  0.00    +0.001 C 
BRANCH  11  19
ATOM     16  F   UNL     1      32.556 -21.137 -18.535  0.00  0.00    -0.166 F 
ATOM     17  F   UNL     1      33.455 -22.644 -19.810  0.00  0.00    -0.166 F 
ATOM     18  F   UNL     1      34.420 -22.088 -17.943  0.00  0.00    -0.166 F 
ATOM     19  C   UNL     1      33.757 -21.574 -19.017  0.00  0.00    +0.418 C 
ENDBRANCH  11  19
ENDBRANCH   1  10
BRANCH   5  21
ATOM     20  O   UNL     1      33.976 -17.445 -24.668  0.00  0.00    -0.245 OA
ATOM     21  C   UNL     1      33.787 -16.239 -24.488  0.00  0.00    +0.341 C 
BRANCH  21  22
ATOM     22  O   UNL     1      33.464 -15.394 -25.505  0.00  0.00    -0.477 OA
ATOM     23  H   UNL     1      33.862 -14.548 -25.555  0.00  0.00    +0.295 HD
ENDBRANCH  21  22
ENDBRANCH   5  21
TORSDOF 4
ENDMDL
MODEL 3
REMARK VINA RESULT:     -10.1      1.283      2.268
REMARK  Name = 38081
REMARK  4 active torsions:
REMARK  status: ('A' for Active; 'I' for Inactive)
REMARK    1  A    between atoms: N_1  and  C_4
REMARK    2  A    between atoms: C_5  and  C_13
REMARK    3  A    between atoms: C_16  and  C_21
REMARK    4  A    between atoms: C_21  and  O_22
REMARK                            x       y       z     vdW  Elec       q    Type
REMARK                         _______ _______ _______ _____ _____    ______ ____
ROOT
ATOM      1  N   UNL     1      35.225 -22.962 -14.670  0.00  0.00    -0.298 N 
ATOM      2  H   UNL     1      34.597 -22.513 -14.059  0.00  0.00    +0.154 HD
ATOM      3  N   UNL     1      36.136 -25.127 -15.001  0.00  0.00    -0.229 NA
ATOM      4  C   UNL     1      35.789 -24.137 -14.138  0.00  0.00    +0.138 C 
ATOM      5  C   UNL     1      35.965 -24.229 -12.762  0.00  0.00    +0.107 C 
ATOM      6  C   UNL     1      36.522 -25.393 -12.245  0.00  0.00    +0.011 C 
ATOM      7  C   UNL     1      36.888 -26.423 -13.104  0.00  0.00    +0.021 C 
ATOM      8  C   UNL     1      36.676 -26.242 -14.461  0.00  0.00    +0.100 C 
ENDROOT
BRANCH   1  10
ATOM      9  C   UNL     1      34.358 -22.292 -16.852  0.00  0.00    -0.005 C 
ATOM     10  C   UNL     1      35.386 -22.302 -15.908  0.00  0.00    +0.045 C 
ATOM     11  C   UNL     1      34.534 -21.633 -18.068  0.00  0.00    +0.069 C 
ATOM     12  C   UNL     1      36.589 -21.652 -16.182  0.00  0.00    +0.014 C 
ATOM     13  C   UNL     1      35.737 -20.983 -18.342  0.00  0.00    +0.004 C 
ATOM     14  C   UNL     1      33.064 -22.986 -16.561  0.00  0.00    +0.032 C 
ATOM     15  C   UNL     1      36.764 -20.993 -17.399  0.00  0.00    +0.001 C 
BRANCH  11  19
ATOM     16  F   UNL     1      32.248 -21.173 -18.606  0.00  0.00    -0.166 F 
ATOM     17  F   UNL     1      33.720 -20.787 -20.152  0.00  0.00    -0.166 F 
ATOM     18  F   UNL     1      33.205 -22.834 -19.633  0.00  0.00    -0.166 F 
ATOM     19  C   UNL     1      33.449 -21.606 -19.094  0.00  0.00    +0.418 C 
ENDBRANCH  11  19
ENDBRANCH   1  10
BRANCH   5  21
ATOM     20  O   UNL     1      36.367 -22.384 -11.293  0.00  0.00    -0.245 OA
ATOM     21  C   UNL     1      35.584 -23.155 -11.854  0.00  0.00    +0.341 C 
BRANCH  21  22
ATOM     22  O   UNL     1      34.237 -23.079 -11.678  0.00  0.00    -0.477 OA
ATOM     23  H   UNL     1      33.879 -23.051 -10.813  0.00  0.00    +0.295 HD
ENDBRANCH  21  22
ENDBRANCH   5  21
TORSDOF 4
ENDMDL
MODEL 4
REMARK VINA RESULT:      -9.9      6.217      9.198
REMARK  Name = 38081
REMARK  4 active torsions:
REMARK  status: ('A' for Active; 'I' for Inactive)
REMARK    1  A    between atoms: N_1  and  C_4
REMARK    2  A    between atoms: C_5  and  C_13
REMARK    3  A    between atoms: C_16  and  C_21
REMARK    4  A    between atoms: C_21  and  O_22
REMARK                            x       y       z     vdW  Elec       q    Type
REMARK                         _______ _______ _______ _____ _____    ______ ____
ROOT
ATOM      1  N   UNL     1      33.783 -19.056 -21.677  0.00  0.00    -0.298 N 
ATOM      2  H   UNL     1      33.101 -19.535 -22.201  0.00  0.00    +0.154 HD
ATOM      3  N   UNL     1      34.407 -16.817 -21.204  0.00  0.00    -0.229 NA
ATOM      4  C   UNL     1      34.015 -17.740 -22.120  0.00  0.00    +0.138 C 
ATOM      5  C   UNL     1      33.834 -17.448 -23.467  0.00  0.00    +0.107 C 
ATOM      6  C   UNL     1      34.064 -16.145 -23.896  0.00  0.00    +0.011 C 
ATOM      7  C   UNL     1      34.467 -15.179 -22.980  0.00  0.00    +0.021 C 
ATOM      8  C   UNL     1      34.623 -15.563 -21.658  0.00  0.00    +0.100 C 
ENDROOT
BRANCH   1  10
ATOM      9  C   UNL     1      33.528 -20.610 -19.811  0.00  0.00    -0.005 C 
ATOM     10  C   UNL     1      34.339 -19.823 -20.630  0.00  0.00    +0.045 C 
ATOM     11  C   UNL     1      34.095 -21.362 -18.783  0.00  0.00    +0.069 C 
ATOM     12  C   UNL     1      35.717 -19.789 -20.418  0.00  0.00    +0.014 C 
ATOM     13  C   UNL     1      35.473 -21.328 -18.572  0.00  0.00    +0.004 C 
ATOM     14  C   UNL     1      32.048 -20.651 -20.036  0.00  0.00    +0.032 C 
ATOM     15  C   UNL     1      36.284 -20.541 -19.390  0.00  0.00    +0.001 C 
BRANCH  11  19
ATOM     16  F   UNL     1      32.016 -21.684 -17.643  0.00  0.00    -0.166 F 
ATOM     17  F   UNL     1      33.006 -23.457 -18.404  0.00  0.00    -0.166 F 
ATOM     18  F   UNL     1      33.816 -22.422 -16.672  0.00  0.00    -0.166 F 
ATOM     19  C   UNL     1      33.249 -22.214 -17.895  0.00  0.00    +0.418 C 
ENDBRANCH  11  19
ENDBRANCH   1  10
BRANCH   5  21
ATOM     20  O   UNL     1      33.959 -19.543 -24.614  0.00  0.00    -0.245 OA
ATOM     21  C   UNL     1      33.411 -18.453 -24.433  0.00  0.00    +0.341 C 
BRANCH  21  22
ATOM     22  O   UNL     1      32.316 -18.063 -25.141  0.00  0.00    -0.477 OA
ATOM     23  H   UNL     1      32.042 -17.168 -25.124  0.00  0.00    +0.295 HD
ENDBRANCH  21  22
ENDBRANCH   5  21
TORSDOF 4
ENDMDL
MODEL 5
REMARK VINA RESULT:      -9.9     10.225     12.526
REMARK  Name = 38081
REMARK  4 active torsions:
REMARK  status: ('A' for Active; 'I' for Inactive)
REMARK    1  A    between atoms: N_1  and  C_4
REMARK    2  A    between atoms: C_5  and  C_13
REMARK    3  A    between atoms: C_16  and  C_21
REMARK    4  A    between atoms: C_21  and  O_22
REMARK                            x       y       z     vdW  Elec       q    Type
REMARK                         _______ _______ _______ _____ _____    ______ ____
ROOT
ATOM      1  N   UNL     1      33.426 -14.114 -22.959  0.00  0.00    -0.298 N 
ATOM      2  H   UNL     1      33.535 -13.913 -23.916  0.00  0.00    +0.154 HD
ATOM      3  N   UNL     1      34.394 -15.532 -21.323  0.00  0.00    -0.229 NA
ATOM      4  C   UNL     1      33.921 -15.378 -22.586  0.00  0.00    +0.138 C 
ATOM      5  C   UNL     1      33.901 -16.405 -23.523  0.00  0.00    +0.107 C 
ATOM      6  C   UNL     1      34.392 -17.651 -23.147  0.00  0.00    +0.011 C 
ATOM      7  C   UNL     1      34.882 -17.838 -21.860  0.00  0.00    +0.021 C 
ATOM      8  C   UNL     1      34.861 -16.757 -20.994  0.00  0.00    +0.100 C 
ENDROOT
BRANCH   1  10
ATOM      9  C   UNL     1      32.704 -11.791 -22.755  0.00  0.00    -0.005 C 
ATOM     10  C   UNL     1      32.804 -13.079 -22.228  0.00  0.00    +0.045 C 
ATOM     11  C   UNL     1      32.083 -10.782 -22.018  0.00  0.00    +0.069 C 
ATOM     12  C   UNL     1      32.283 -13.356 -20.963  0.00  0.00    +0.014 C 
ATOM     13  C   UNL     1      31.563 -11.060 -20.755  0.00  0.00    +0.004 C 
ATOM     14  C   UNL     1      33.258 -11.489 -24.112  0.00  0.00    +0.032 C 
ATOM     15  C   UNL     1      31.663 -12.347 -20.227  0.00  0.00    +0.001 C 
BRANCH  11  19
ATOM     16  F   UNL     1      33.160  -8.834 -22.897  0.00  0.00    -0.166 F 
ATOM     17  F   UNL     1      31.201  -9.320 -23.693  0.00  0.00    -0.166 F 
ATOM     18  F   UNL     1      31.387  -8.534 -21.674  0.00  0.00    -0.166 F 
ATOM     19  C   UNL     1      31.961  -9.396 -22.561  0.00  0.00    +0.418 C 
ENDBRANCH  11  19
ENDBRANCH   1  10
BRANCH   5  21
ATOM     20  O   UNL     1      33.604 -15.234 -25.589  0.00  0.00    -0.245 OA
ATOM     21  C   UNL     1      33.390 -16.217 -24.875  0.00  0.00    +0.341 C 
BRANCH  21  22
ATOM     22  O   UNL     1      32.628 -17.266 -25.290  0.00  0.00    -0.477 OA
ATOM     23  H   UNL     1      31.764 -17.382 -24.947  0.00  0.00    +0.295 HD
ENDBRANCH  21  22
ENDBRANCH   5  21
TORSDOF 4
ENDMDL
MODEL 6
REMARK VINA RESULT:      -9.9      0.147      1.103
REMARK  Name = 38081
REMARK  4 active torsions:
REMARK  status: ('A' for Active; 'I' for Inactive)
REMARK    1  A    between atoms: N_1  and  C_4
REMARK    2  A    between atoms: C_5  and  C_13
REMARK    3  A    between atoms: C_16  and  C_21
REMARK    4  A    between atoms: C_21  and  O_22
REMARK                            x       y       z     vdW  Elec       q    Type
REMARK                         _______ _______ _______ _____ _____    ______ ____
ROOT
ATOM      1  N   UNL     1      34.749 -23.224 -14.822  0.00  0.00    -0.298 N 
ATOM      2  H   UNL     1      34.435 -22.704 -14.047  0.00  0.00    +0.154 HD
ATOM      3  N   UNL     1      35.554 -25.406 -15.284  0.00  0.00    -0.229 NA
ATOM      4  C   UNL     1      35.568 -24.315 -14.476  0.00  0.00    +0.138 C 
ATOM      5  C   UNL     1      36.349 -24.226 -13.329  0.00  0.00    +0.107 C 
ATOM      6  C   UNL     1      37.155 -25.308 -12.994  0.00  0.00    +0.011 C 
ATOM      7  C   UNL     1      37.163 -26.439 -13.804  0.00  0.00    +0.021 C 
ATOM      8  C   UNL     1      36.351 -26.437 -14.927  0.00  0.00    +0.100 C 
ENDROOT
BRANCH   1  10
ATOM      9  C   UNL     1      35.155 -22.053 -16.925  0.00  0.00    -0.005 C 
ATOM     10  C   UNL     1      34.291 -22.729 -16.063  0.00  0.00    +0.045 C 
ATOM     11  C   UNL     1      34.685 -21.574 -18.148  0.00  0.00    +0.069 C 
ATOM     12  C   UNL     1      32.958 -22.925 -16.424  0.00  0.00    +0.014 C 
ATOM     13  C   UNL     1      33.353 -21.770 -18.509  0.00  0.00    +0.004 C 
ATOM     14  C   UNL     1      36.587 -21.843 -16.543  0.00  0.00    +0.032 C 
ATOM     15  C   UNL     1      32.490 -22.446 -17.647  0.00  0.00    +0.001 C 
BRANCH  11  19
ATOM     16  F   UNL     1      36.295 -21.678 -19.916  0.00  0.00    -0.166 F 
ATOM     17  F   UNL     1      34.933 -19.990 -19.923  0.00  0.00    -0.166 F 
ATOM     18  F   UNL     1      36.523 -20.094 -18.444  0.00  0.00    -0.166 F 
ATOM     19  C   UNL     1      35.590 -20.849 -19.090  0.00  0.00    +0.418 C 
ENDBRANCH  11  19
ENDBRANCH   1  10
BRANCH   5  21
ATOM     20  O   UNL     1      35.473 -22.760 -11.653  0.00  0.00    -0.245 OA
ATOM     21  C   UNL     1      36.348 -23.046 -12.475  0.00  0.00    +0.341 C 
BRANCH  21  22
ATOM     22  O   UNL     1      37.441 -22.260 -12.675  0.00  0.00    -0.477 OA
ATOM     23  H   UNL     1      37.568 -21.836 -13.500  0.00  0.00    +0.295 HD
ENDBRANCH  21  22
ENDBRANCH   5  21
TORSDOF 4
ENDMDL
MODEL 7
REMARK VINA RESULT:      -9.6      3.258      4.048
REMARK  Name = 38081
REMARK  4 active torsions:
REMARK  status: ('A' for Active; 'I' for Inactive)
REMARK    1  A    between atoms: N_1  and  C_4
REMARK    2  A    between atoms: C_5  and  C_13
REMARK    3  A    between atoms: C_16  and  C_21
REMARK    4  A    between atoms: C_21  and  O_22
REMARK                            x       y       z     vdW  Elec       q    Type
REMARK                         _______ _______ _______ _____ _____    ______ ____
ROOT
ATOM      1  N   UNL     1      34.342 -23.463 -14.112  0.00  0.00    -0.298 N 
ATOM      2  H   UNL     1      34.192 -23.024 -13.243  0.00  0.00    +0.154 HD
ATOM      3  N   UNL     1      35.408 -25.404 -14.959  0.00  0.00    -0.229 NA
ATOM      4  C   UNL     1      35.446 -24.335 -14.123  0.00  0.00    +0.138 C 
ATOM      5  C   UNL     1      36.520 -24.063 -13.282  0.00  0.00    +0.107 C 
ATOM      6  C   UNL     1      37.607 -24.930 -13.299  0.00  0.00    +0.011 C 
ATOM      7  C   UNL     1      37.596 -26.033 -14.146  0.00  0.00    +0.021 C 
ATOM      8  C   UNL     1      36.483 -26.223 -14.949  0.00  0.00    +0.100 C 
ENDROOT
BRANCH   1  10
ATOM      9  C   UNL     1      32.040 -23.070 -14.826  0.00  0.00    -0.005 C 
ATOM     10  C   UNL     1      33.407 -23.092 -15.104  0.00  0.00    +0.045 C 
ATOM     11  C   UNL     1      31.133 -22.700 -15.819  0.00  0.00    +0.069 C 
ATOM     12  C   UNL     1      33.866 -22.744 -16.375  0.00  0.00    +0.014 C 
ATOM     13  C   UNL     1      31.592 -22.351 -17.088  0.00  0.00    +0.004 C 
ATOM     14  C   UNL     1      31.544 -23.440 -13.463  0.00  0.00    +0.032 C 
ATOM     15  C   UNL     1      32.958 -22.374 -17.367  0.00  0.00    +0.001 C 
BRANCH  11  19
ATOM     16  F   UNL     1      28.931 -22.141 -16.572  0.00  0.00    -0.166 F 
ATOM     17  F   UNL     1      29.125 -23.897 -15.314  0.00  0.00    -0.166 F 
ATOM     18  F   UNL     1      29.352 -21.915 -14.451  0.00  0.00    -0.166 F 
ATOM     19  C   UNL     1      29.665 -22.665 -15.546  0.00  0.00    +0.418 C 
ENDBRANCH  11  19
ENDBRANCH   1  10
BRANCH   5  21
ATOM     20  O   UNL     1      37.448 -22.079 -12.320  0.00  0.00    -0.245 OA
ATOM     21  C   UNL     1      36.540 -22.910 -12.392  0.00  0.00    +0.341 C 
BRANCH  21  22
ATOM     22  O   UNL     1      35.422 -22.834 -11.618  0.00  0.00    -0.477 OA
ATOM     23  H   UNL     1      34.931 -22.038 -11.583  0.00  0.00    +0.295 HD
ENDBRANCH  21  22
ENDBRANCH   5  21
TORSDOF 4
ENDMDL
MODEL 8
REMARK VINA RESULT:      -9.2      2.022      2.727
REMARK  Name = 38081
REMARK  4 active torsions:
REMARK  status: ('A' for Active; 'I' for Inactive)
REMARK    1  A    between atoms: N_1  and  C_4
REMARK    2  A    between atoms: C_5  and  C_13
REMARK    3  A    between atoms: C_16  and  C_21
REMARK    4  A    between atoms: C_21  and  O_22
REMARK                            x       y       z     vdW  Elec       q    Type
REMARK                         _______ _______ _______ _____ _____    ______ ____
ROOT
ATOM      1  N   UNL     1      36.013 -22.936 -15.172  0.00  0.00    -0.298 N 
ATOM      2  H   UNL     1      36.806 -22.848 -15.748  0.00  0.00    +0.154 HD
ATOM      3  N   UNL     1      35.463 -22.761 -12.871  0.00  0.00    -0.229 NA
ATOM      4  C   UNL     1      36.319 -23.209 -13.825  0.00  0.00    +0.138 C 
ATOM      5  C   UNL     1      37.477 -23.922 -13.536  0.00  0.00    +0.107 C 
ATOM      6  C   UNL     1      37.773 -24.188 -12.203  0.00  0.00    +0.011 C 
ATOM      7  C   UNL     1      36.914 -23.742 -11.205  0.00  0.00    +0.021 C 
ATOM      8  C   UNL     1      35.783 -23.039 -11.588  0.00  0.00    +0.100 C 
ENDROOT
BRANCH   1  10
ATOM      9  C   UNL     1      34.751 -22.142 -17.105  0.00  0.00    -0.005 C 
ATOM     10  C   UNL     1      34.790 -22.765 -15.857  0.00  0.00    +0.045 C 
ATOM     11  C   UNL     1      33.534 -21.984 -17.768  0.00  0.00    +0.069 C 
ATOM     12  C   UNL     1      33.612 -23.229 -15.273  0.00  0.00    +0.014 C 
ATOM     13  C   UNL     1      32.356 -22.449 -17.183  0.00  0.00    +0.004 C 
ATOM     14  C   UNL     1      36.013 -21.644 -17.736  0.00  0.00    +0.032 C 
ATOM     15  C   UNL     1      32.395 -23.071 -15.936  0.00  0.00    +0.001 C 
BRANCH  11  19
ATOM     16  F   UNL     1      32.228 -20.827 -19.406  0.00  0.00    -0.166 F 
ATOM     17  F   UNL     1      34.315 -20.262 -19.232  0.00  0.00    -0.166 F 
ATOM     18  F   UNL     1      33.779 -22.170 -20.125  0.00  0.00    -0.166 F 
ATOM     19  C   UNL     1      33.465 -21.323 -19.105  0.00  0.00    +0.418 C 
ENDBRANCH  11  19
ENDBRANCH   1  10
BRANCH   5  21
ATOM     20  O   UNL     1      38.746 -25.562 -14.731  0.00  0.00    -0.245 OA
ATOM     21  C   UNL     1      38.383 -24.393 -14.575  0.00  0.00    +0.341 C 
BRANCH  21  22
ATOM     22  O   UNL     1      38.807 -23.387 -15.388  0.00  0.00    -0.477 OA
ATOM     23  H   UNL     1      38.767 -23.488 -16.318  0.00  0.00    +0.295 HD
ENDBRANCH  21  22
ENDBRANCH   5  21
TORSDOF 4
ENDMDL
MODEL 9
REMARK VINA RESULT:      -9.1      3.956      4.907
REMARK  Name = 38081
REMARK  4 active torsions:
REMARK  status: ('A' for Active; 'I' for Inactive)
REMARK    1  A    between atoms: N_1  and  C_4
REMARK    2  A    between atoms: C_5  and  C_13
REMARK    3  A    between atoms: C_16  and  C_21
REMARK    4  A    between atoms: C_21  and  O_22
REMARK                            x       y       z     vdW  Elec       q    Type
REMARK                         _______ _______ _______ _____ _____    ______ ____
ROOT
ATOM      1  N   UNL     1      34.921 -23.998 -15.261  0.00  0.00    -0.298 N 
ATOM      2  H   UNL     1      35.314 -24.552 -15.973  0.00  0.00    +0.154 HD
ATOM      3  N   UNL     1      35.647 -22.735 -13.390  0.00  0.00    -0.229 NA
ATOM      4  C   UNL     1      35.738 -23.875 -14.122  0.00  0.00    +0.138 C 
ATOM      5  C   UNL     1      36.596 -24.921 -13.800  0.00  0.00    +0.107 C 
ATOM      6  C   UNL     1      37.401 -24.791 -12.673  0.00  0.00    +0.011 C 
ATOM      7  C   UNL     1      37.328 -23.635 -11.904  0.00  0.00    +0.021 C 
ATOM      8  C   UNL     1      36.443 -22.646 -12.301  0.00  0.00    +0.100 C 
ENDROOT
BRANCH   1  10
ATOM      9  C   UNL     1      32.571 -23.637 -14.705  0.00  0.00    -0.005 C 
ATOM     10  C   UNL     1      33.646 -23.482 -15.581  0.00  0.00    +0.045 C 
ATOM     11  C   UNL     1      31.320 -23.118 -15.038  0.00  0.00    +0.069 C 
ATOM     12  C   UNL     1      33.468 -22.808 -16.790  0.00  0.00    +0.014 C 
ATOM     13  C   UNL     1      31.143 -22.445 -16.246  0.00  0.00    +0.004 C 
ATOM     14  C   UNL     1      32.758 -24.356 -13.406  0.00  0.00    +0.032 C 
ATOM     15  C   UNL     1      32.216 -22.290 -17.122  0.00  0.00    +0.001 C 
BRANCH  11  19
ATOM     16  F   UNL     1      30.414 -22.863 -12.838  0.00  0.00    -0.166 F 
ATOM     17  F   UNL     1      29.058 -22.551 -14.503  0.00  0.00    -0.166 F 
ATOM     18  F   UNL     1      29.730 -24.560 -14.013  0.00  0.00    -0.166 F 
ATOM     19  C   UNL     1      30.154 -23.268 -14.116  0.00  0.00    +0.418 C 
ENDBRANCH  11  19
ENDBRANCH   1  10
BRANCH   5  21
ATOM     20  O   UNL     1      35.825 -26.521 -15.403  0.00  0.00    -0.245 OA
ATOM     21  C   UNL     1      36.679 -26.135 -14.601  0.00  0.00    +0.341 C 
BRANCH  21  22
ATOM     22  O   UNL     1      37.828 -26.828 -14.373  0.00  0.00    -0.477 OA
ATOM     23  H   UNL     1      37.871 -27.446 -13.671  0.00  0.00    +0.295 HD
ENDBRANCH  21  22
ENDBRANCH   5  21
TORSDOF 4
ENDMDL
