MODEL 1
REMARK VINA RESULT:     -11.0      0.000      0.000
REMARK  Name = 5289389
REMARK  8 active torsions:
REMARK  status: ('A' for Active; 'I' for Inactive)
REMARK    1  A    between atoms: N_2  and  S_15
REMARK    2  A    between atoms: C_4  and  C_11
REMARK    3  A    between atoms: C_8  and  O_26
REMARK    4  A    between atoms: N_10  and  O_13
REMARK    5  A    between atoms: S_15  and  C_18
REMARK    6  A    between atoms: C_23  and  O_24
REMARK    7  A    between atoms: O_26  and  C_27
REMARK    8  A    between atoms: C_27  and  C_28
REMARK                            x       y       z     vdW  Elec       q    Type
REMARK                         _______ _______ _______ _____ _____    ______ ____
ROOT
ATOM      1  O   UNL     1      36.859 -21.493 -16.302  0.00  0.00    -0.226 OA
ATOM      2  N   UNL     1      32.600 -23.487 -14.563  0.00  0.00    -0.145 NA
ATOM      3  N   UNL     1      34.638 -22.136 -16.056  0.00  0.00    -0.243 N 
ATOM      4  C   UNL     1      33.885 -23.125 -13.899  0.00  0.00    +0.177 C 
ATOM      5  C   UNL     1      34.627 -21.990 -14.601  0.00  0.00    +0.124 C 
ATOM      6  C   UNL     1      32.227 -22.625 -15.714  0.00  0.00    +0.118 C 
ATOM      7  C   UNL     1      33.392 -22.566 -16.692  0.00  0.00    +0.116 C 
ATOM      8  C   UNL     1      35.791 -21.856 -16.792  0.00  0.00    +0.405 C 
ENDROOT
BRANCH   4  11
ATOM      9  O   UNL     1      34.764 -25.076 -14.941  0.00  0.00    -0.271 OA
ATOM     10  N   UNL     1      35.295 -24.662 -12.729  0.00  0.00    -0.196 N 
ATOM     11  C   UNL     1      34.684 -24.389 -13.925  0.00  0.00    +0.262 C 
ATOM     12  H   UNL     1      35.197 -24.075 -11.945  0.00  0.00    +0.182 HD
BRANCH  10  13
ATOM     13  O   UNL     1      36.069 -25.830 -12.695  0.00  0.00    -0.295 OA
ATOM     14  H   UNL     1      36.834 -25.693 -12.114  0.00  0.00    +0.241 HD
ENDBRANCH  10  13
ENDBRANCH   4  11
BRANCH   2  15
ATOM     15  S   UNL     1      31.319 -23.975 -13.541  0.00  0.00    +0.064 S 
ATOM     16  O   UNL     1      31.257 -23.086 -12.400  0.00  0.00    -0.153 OA
ATOM     17  O   UNL     1      31.378 -25.411 -13.364  0.00  0.00    -0.153 OA
BRANCH  15  18
ATOM     18  C   UNL     1      29.938 -23.613 -14.581  0.00  0.00    +0.122 C 
ATOM     19  C   UNL     1      29.375 -24.618 -15.367  0.00  0.00    +0.023 C 
ATOM     20  C   UNL     1      29.411 -22.322 -14.615  0.00  0.00    +0.023 C 
ATOM     21  C   UNL     1      28.285 -24.331 -16.189  0.00  0.00    +0.038 C 
ATOM     22  C   UNL     1      28.321 -22.036 -15.436  0.00  0.00    +0.038 C 
ATOM     23  C   UNL     1      27.759 -23.041 -16.223  0.00  0.00    +0.139 C 
BRANCH  23  24
ATOM     24  O   UNL     1      26.695 -22.761 -17.026  0.00  0.00    -0.471 OA
ATOM     25  C   UNL     1      26.134 -21.452 -16.928  0.00  0.00    +0.252 C 
ENDBRANCH  23  24
ENDBRANCH  15  18
ENDBRANCH   2  15
BRANCH   8  26
ATOM     26  O   UNL     1      35.604 -22.036 -18.138  0.00  0.00    -0.430 OA
BRANCH  26  27
ATOM     27  C   UNL     1      36.098 -20.994 -18.987  0.00  0.00    +0.237 C 
BRANCH  27  28
ATOM     28  C   UNL     1      34.962 -20.440 -19.795  0.00  0.00    +0.021 C 
ATOM     29  C   UNL     1      33.650 -20.815 -19.501  0.00  0.00    -0.001 C 
ATOM     30  C   UNL     1      35.215 -19.551 -20.839  0.00  0.00    -0.001 C 
ATOM     31  C   UNL     1      32.593 -20.300 -20.252  0.00  0.00    -0.000 C 
ATOM     32  C   UNL     1      34.158 -19.036 -21.589  0.00  0.00    -0.000 C 
ATOM     33  C   UNL     1      32.847 -19.410 -21.296  0.00  0.00    -0.000 C 
ENDBRANCH  27  28
ENDBRANCH  26  27
ENDBRANCH   8  26
TORSDOF 8
ENDMDL
MODEL 2
REMARK VINA RESULT:     -10.4      2.467      6.083
REMARK  Name = 5289389
REMARK  8 active torsions:
REMARK  status: ('A' for Active; 'I' for Inactive)
REMARK    1  A    between atoms: N_2  and  S_15
REMARK    2  A    between atoms: C_4  and  C_11
REMARK    3  A    between atoms: C_8  and  O_26
REMARK    4  A    between atoms: N_10  and  O_13
REMARK    5  A    between atoms: S_15  and  C_18
REMARK    6  A    between atoms: C_23  and  O_24
REMARK    7  A    between atoms: O_26  and  C_27
REMARK    8  A    between atoms: C_27  and  C_28
REMARK                            x       y       z     vdW  Elec       q    Type
REMARK                         _______ _______ _______ _____ _____    ______ ____
ROOT
ATOM      1  O   UNL     1      32.715 -21.749 -19.972  0.00  0.00    -0.226 OA
ATOM      2  N   UNL     1      33.658 -22.999 -15.209  0.00  0.00    -0.145 NA
ATOM      3  N   UNL     1      33.757 -22.076 -17.919  0.00  0.00    -0.243 N 
ATOM      4  C   UNL     1      32.631 -23.462 -16.186  0.00  0.00    +0.177 C 
ATOM      5  C   UNL     1      33.084 -23.343 -17.639  0.00  0.00    +0.124 C 
ATOM      6  C   UNL     1      34.958 -22.604 -15.810  0.00  0.00    +0.118 C 
ATOM      7  C   UNL     1      34.709 -21.591 -16.919  0.00  0.00    +0.116 C 
ATOM      8  C   UNL     1      33.505 -21.381 -19.104  0.00  0.00    +0.405 C 
ENDROOT
BRANCH   4  11
ATOM      9  O   UNL     1      31.312 -22.003 -14.845  0.00  0.00    -0.271 OA
ATOM     10  N   UNL     1      30.575 -22.527 -16.974  0.00  0.00    -0.196 N 
ATOM     11  C   UNL     1      31.445 -22.591 -15.917  0.00  0.00    +0.262 C 
ATOM     12  H   UNL     1      30.732 -23.021 -17.811  0.00  0.00    +0.182 HD
BRANCH  10  13
ATOM     13  O   UNL     1      29.448 -21.715 -16.786  0.00  0.00    -0.295 OA
ATOM     14  H   UNL     1      28.999 -21.584 -17.636  0.00  0.00    +0.241 HD
ENDBRANCH  10  13
ENDBRANCH   4  11
BRANCH   2  15
ATOM     15  S   UNL     1      33.740 -23.842 -13.724  0.00  0.00    +0.064 S 
ATOM     16  O   UNL     1      32.742 -24.891 -13.718  0.00  0.00    -0.153 OA
ATOM     17  O   UNL     1      33.819 -22.884 -12.642  0.00  0.00    -0.153 OA
BRANCH  15  18
ATOM     18  C   UNL     1      35.323 -24.606 -13.889  0.00  0.00    +0.122 C 
ATOM     19  C   UNL     1      36.388 -24.182 -13.095  0.00  0.00    +0.023 C 
ATOM     20  C   UNL     1      35.507 -25.635 -14.814  0.00  0.00    +0.023 C 
ATOM     21  C   UNL     1      37.639 -24.786 -13.227  0.00  0.00    +0.038 C 
ATOM     22  C   UNL     1      36.758 -26.238 -14.944  0.00  0.00    +0.038 C 
ATOM     23  C   UNL     1      37.824 -25.813 -14.151  0.00  0.00    +0.139 C 
BRANCH  23  24
ATOM     24  O   UNL     1      39.045 -26.402 -14.279  0.00  0.00    -0.471 OA
ATOM     25  C   UNL     1      40.141 -25.556 -14.622  0.00  0.00    +0.252 C 
ENDBRANCH  23  24
ENDBRANCH  15  18
ENDBRANCH   2  15
BRANCH   8  26
ATOM     26  O   UNL     1      34.238 -20.226 -19.195  0.00  0.00    -0.430 OA
BRANCH  26  27
ATOM     27  C   UNL     1      35.248 -20.200 -20.209  0.00  0.00    +0.237 C 
BRANCH  27  28
ATOM     28  C   UNL     1      34.936 -19.104 -21.185  0.00  0.00    +0.021 C 
ATOM     29  C   UNL     1      34.251 -19.396 -22.365  0.00  0.00    -0.001 C 
ATOM     30  C   UNL     1      35.329 -17.795 -20.913  0.00  0.00    -0.001 C 
ATOM     31  C   UNL     1      33.960 -18.377 -23.273  0.00  0.00    -0.000 C 
ATOM     32  C   UNL     1      35.038 -16.776 -21.820  0.00  0.00    -0.000 C 
ATOM     33  C   UNL     1      34.353 -17.067 -23.000  0.00  0.00    -0.000 C 
ENDBRANCH  27  28
ENDBRANCH  26  27
ENDBRANCH   8  26
TORSDOF 8
ENDMDL
MODEL 3
REMARK VINA RESULT:      -8.8     15.296     19.285
REMARK  Name = 5289389
REMARK  8 active torsions:
REMARK  status: ('A' for Active; 'I' for Inactive)
REMARK    1  A    between atoms: N_2  and  S_15
REMARK    2  A    between atoms: C_4  and  C_11
REMARK    3  A    between atoms: C_8  and  O_26
REMARK    4  A    between atoms: N_10  and  O_13
REMARK    5  A    between atoms: S_15  and  C_18
REMARK    6  A    between atoms: C_23  and  O_24
REMARK    7  A    between atoms: O_26  and  C_27
REMARK    8  A    between atoms: C_27  and  C_28
REMARK                            x       y       z     vdW  Elec       q    Type
REMARK                         _______ _______ _______ _____ _____    ______ ____
ROOT
ATOM      1  O   UNL     1      31.939  -8.108 -20.545  0.00  0.00    -0.226 OA
ATOM      2  N   UNL     1      31.798  -4.831 -24.337  0.00  0.00    -0.145 NA
ATOM      3  N   UNL     1      31.899  -7.156 -22.666  0.00  0.00    -0.243 N 
ATOM      4  C   UNL     1      32.190  -4.695 -22.905  0.00  0.00    +0.177 C 
ATOM      5  C   UNL     1      32.709  -5.996 -22.296  0.00  0.00    +0.124 C 
ATOM      6  C   UNL     1      32.071  -6.163 -24.936  0.00  0.00    +0.118 C 
ATOM      7  C   UNL     1      31.454  -7.242 -24.058  0.00  0.00    +0.116 C 
ATOM      8  C   UNL     1      31.588  -8.138 -21.723  0.00  0.00    +0.405 C 
ENDROOT
BRANCH   4  11
ATOM      9  O   UNL     1      30.103  -5.044 -21.815  0.00  0.00    -0.271 OA
ATOM     10  N   UNL     1      30.861  -2.877 -22.099  0.00  0.00    -0.196 N 
ATOM     11  C   UNL     1      30.941  -4.240 -22.220  0.00  0.00    +0.262 C 
ATOM     12  H   UNL     1      31.563  -2.279 -22.444  0.00  0.00    +0.182 HD
BRANCH  10  13
ATOM     13  O   UNL     1      29.716  -2.390 -21.455  0.00  0.00    -0.295 OA
ATOM     14  H   UNL     1      28.950  -2.930 -21.707  0.00  0.00    +0.241 HD
ENDBRANCH  10  13
ENDBRANCH   4  11
BRANCH   2  15
ATOM     15  S   UNL     1      32.086  -3.479 -25.343  0.00  0.00    +0.064 S 
ATOM     16  O   UNL     1      32.583  -2.385 -24.536  0.00  0.00    -0.153 OA
ATOM     17  O   UNL     1      30.952  -3.299 -26.225  0.00  0.00    -0.153 OA
BRANCH  15  18
ATOM     18  C   UNL     1      33.432  -4.092 -26.308  0.00  0.00    +0.122 C 
ATOM     19  C   UNL     1      33.198  -4.611 -27.580  0.00  0.00    +0.023 C 
ATOM     20  C   UNL     1      34.729  -4.056 -25.795  0.00  0.00    +0.023 C 
ATOM     21  C   UNL     1      34.262  -5.097 -28.341  0.00  0.00    +0.038 C 
ATOM     22  C   UNL     1      35.792  -4.541 -26.557  0.00  0.00    +0.038 C 
ATOM     23  C   UNL     1      35.558  -5.061 -27.830  0.00  0.00    +0.139 C 
BRANCH  23  24
ATOM     24  O   UNL     1      36.596  -5.535 -28.573  0.00  0.00    -0.471 OA
ATOM     25  C   UNL     1      36.722  -5.038 -29.904  0.00  0.00    +0.252 C 
ENDBRANCH  23  24
ENDBRANCH  15  18
ENDBRANCH   2  15
BRANCH   8  26
ATOM     26  O   UNL     1      30.836  -9.152 -22.258  0.00  0.00    -0.430 OA
BRANCH  26  27
ATOM     27  C   UNL     1      30.596 -10.276 -21.404  0.00  0.00    +0.237 C 
BRANCH  27  28
ATOM     28  C   UNL     1      31.647 -11.316 -21.657  0.00  0.00    +0.021 C 
ATOM     29  C   UNL     1      31.887 -12.309 -20.706  0.00  0.00    -0.001 C 
ATOM     30  C   UNL     1      32.383 -11.292 -22.840  0.00  0.00    -0.001 C 
ATOM     31  C   UNL     1      32.865 -13.277 -20.940  0.00  0.00    -0.000 C 
ATOM     32  C   UNL     1      33.360 -12.260 -23.075  0.00  0.00    -0.000 C 
ATOM     33  C   UNL     1      33.600 -13.252 -22.125  0.00  0.00    -0.000 C 
ENDBRANCH  27  28
ENDBRANCH  26  27
ENDBRANCH   8  26
TORSDOF 8
ENDMDL
MODEL 4
REMARK VINA RESULT:      -8.6     12.888     16.078
REMARK  Name = 5289389
REMARK  8 active torsions:
REMARK  status: ('A' for Active; 'I' for Inactive)
REMARK    1  A    between atoms: N_2  and  S_15
REMARK    2  A    between atoms: C_4  and  C_11
REMARK    3  A    between atoms: C_8  and  O_26
REMARK    4  A    between atoms: N_10  and  O_13
REMARK    5  A    between atoms: S_15  and  C_18
REMARK    6  A    between atoms: C_23  and  O_24
REMARK    7  A    between atoms: O_26  and  C_27
REMARK    8  A    between atoms: C_27  and  C_28
REMARK                            x       y       z     vdW  Elec       q    Type
REMARK                         _______ _______ _______ _____ _____    ______ ____
ROOT
ATOM      1  O   UNL     1      32.243  -4.735 -23.187  0.00  0.00    -0.226 OA
ATOM      2  N   UNL     1      31.760  -9.457 -21.572  0.00  0.00    -0.145 NA
ATOM      3  N   UNL     1      32.302  -7.055 -23.035  0.00  0.00    -0.243 N 
ATOM      4  C   UNL     1      31.073  -8.189 -21.192  0.00  0.00    +0.177 C 
ATOM      5  C   UNL     1      31.030  -7.165 -22.324  0.00  0.00    +0.124 C 
ATOM      6  C   UNL     1      32.186  -9.535 -22.993  0.00  0.00    +0.118 C 
ATOM      7  C   UNL     1      33.007  -8.301 -23.338  0.00  0.00    +0.116 C 
ATOM      8  C   UNL     1      32.799  -5.807 -23.419  0.00  0.00    +0.405 C 
ENDROOT
BRANCH   4  11
ATOM      9  O   UNL     1      32.194  -8.414 -19.104  0.00  0.00    -0.271 OA
ATOM     10  N   UNL     1      32.157  -6.341 -20.128  0.00  0.00    -0.196 N 
ATOM     11  C   UNL     1      31.861  -7.675 -20.029  0.00  0.00    +0.262 C 
ATOM     12  H   UNL     1      31.863  -5.796 -20.894  0.00  0.00    +0.182 HD
BRANCH  10  13
ATOM     13  O   UNL     1      32.904  -5.804 -19.072  0.00  0.00    -0.295 OA
ATOM     14  H   UNL     1      32.464  -5.007 -18.738  0.00  0.00    +0.241 HD
ENDBRANCH  10  13
ENDBRANCH   4  11
BRANCH   2  15
ATOM     15  S   UNL     1      31.144 -10.899 -20.890  0.00  0.00    +0.064 S 
ATOM     16  O   UNL     1      29.803 -11.123 -21.389  0.00  0.00    -0.153 OA
ATOM     17  O   UNL     1      31.420 -10.903 -19.469  0.00  0.00    -0.153 OA
BRANCH  15  18
ATOM     18  C   UNL     1      32.208 -12.082 -21.654  0.00  0.00    +0.122 C 
ATOM     19  C   UNL     1      32.253 -12.185 -23.043  0.00  0.00    +0.023 C 
ATOM     20  C   UNL     1      33.005 -12.914 -20.866  0.00  0.00    +0.023 C 
ATOM     21  C   UNL     1      33.094 -13.121 -23.646  0.00  0.00    +0.038 C 
ATOM     22  C   UNL     1      33.845 -13.849 -21.469  0.00  0.00    +0.038 C 
ATOM     23  C   UNL     1      33.889 -13.952 -22.859  0.00  0.00    +0.139 C 
BRANCH  23  24
ATOM     24  O   UNL     1      34.710 -14.866 -23.448  0.00  0.00    -0.471 OA
ATOM     25  C   UNL     1      34.088 -15.929 -24.167  0.00  0.00    +0.252 C 
ENDBRANCH  23  24
ENDBRANCH  15  18
ENDBRANCH   2  15
BRANCH   8  26
ATOM     26  O   UNL     1      33.992  -5.905 -24.086  0.00  0.00    -0.430 OA
BRANCH  26  27
ATOM     27  C   UNL     1      34.470  -4.705 -24.704  0.00  0.00    +0.237 C 
BRANCH  27  28
ATOM     28  C   UNL     1      34.469  -4.886 -26.193  0.00  0.00    +0.021 C 
ATOM     29  C   UNL     1      33.284  -5.215 -26.854  0.00  0.00    -0.001 C 
ATOM     30  C   UNL     1      35.650  -4.727 -26.916  0.00  0.00    -0.001 C 
ATOM     31  C   UNL     1      33.283  -5.383 -28.239  0.00  0.00    -0.000 C 
ATOM     32  C   UNL     1      35.648  -4.894 -28.301  0.00  0.00    -0.000 C 
ATOM     33  C   UNL     1      34.465  -5.223 -28.963  0.00  0.00    -0.000 C 
ENDBRANCH  27  28
ENDBRANCH  26  27
ENDBRANCH   8  26
TORSDOF 8
ENDMDL
MODEL 5
REMARK VINA RESULT:      -8.3     12.661     16.098
REMARK  Name = 5289389
REMARK  8 active torsions:
REMARK  status: ('A' for Active; 'I' for Inactive)
REMARK    1  A    between atoms: N_2  and  S_15
REMARK    2  A    between atoms: C_4  and  C_11
REMARK    3  A    between atoms: C_8  and  O_26
REMARK    4  A    between atoms: N_10  and  O_13
REMARK    5  A    between atoms: S_15  and  C_18
REMARK    6  A    between atoms: C_23  and  O_24
REMARK    7  A    between atoms: O_26  and  C_27
REMARK    8  A    between atoms: C_27  and  C_28
REMARK                            x       y       z     vdW  Elec       q    Type
REMARK                         _______ _______ _______ _____ _____    ______ ____
ROOT
ATOM      1  O   UNL     1      32.266 -11.750 -24.411  0.00  0.00    -0.226 OA
ATOM      2  N   UNL     1      31.955  -8.046 -21.046  0.00  0.00    -0.145 NA
ATOM      3  N   UNL     1      31.846 -10.523 -22.480  0.00  0.00    -0.243 N 
ATOM      4  C   UNL     1      32.091  -8.047 -22.531  0.00  0.00    +0.177 C 
ATOM      5  C   UNL     1      31.501  -9.292 -23.189  0.00  0.00    +0.124 C 
ATOM      6  C   UNL     1      31.192  -9.193 -20.488  0.00  0.00    +0.118 C 
ATOM      7  C   UNL     1      31.782 -10.491 -21.019  0.00  0.00    +0.116 C 
ATOM      8  C   UNL     1      32.199 -11.676 -23.185  0.00  0.00    +0.405 C 
ENDROOT
BRANCH   4  11
ATOM      9  O   UNL     1      34.245  -7.074 -22.249  0.00  0.00    -0.271 OA
ATOM     10  N   UNL     1      34.038  -8.949 -23.588  0.00  0.00    -0.196 N 
ATOM     11  C   UNL     1      33.565  -7.958 -22.767  0.00  0.00    +0.262 C 
ATOM     12  H   UNL     1      33.446  -9.633 -23.977  0.00  0.00    +0.182 HD
BRANCH  10  13
ATOM     13  O   UNL     1      35.416  -8.925 -23.838  0.00  0.00    -0.295 OA
ATOM     14  H   UNL     1      35.604  -9.407 -24.659  0.00  0.00    +0.241 HD
ENDBRANCH  10  13
ENDBRANCH   4  11
BRANCH   2  15
ATOM     15  S   UNL     1      31.690  -6.531 -20.300  0.00  0.00    +0.064 S 
ATOM     16  O   UNL     1      32.926  -6.076 -19.698  0.00  0.00    -0.153 OA
ATOM     17  O   UNL     1      30.465  -6.592 -19.531  0.00  0.00    -0.153 OA
BRANCH  15  18
ATOM     18  C   UNL     1      31.386  -5.533 -21.725  0.00  0.00    +0.122 C 
ATOM     19  C   UNL     1      32.183  -4.417 -21.977  0.00  0.00    +0.023 C 
ATOM     20  C   UNL     1      30.349  -5.863 -22.598  0.00  0.00    +0.023 C 
ATOM     21  C   UNL     1      31.942  -3.629 -23.103  0.00  0.00    +0.038 C 
ATOM     22  C   UNL     1      30.109  -5.075 -23.723  0.00  0.00    +0.038 C 
ATOM     23  C   UNL     1      30.906  -3.958 -23.975  0.00  0.00    +0.139 C 
BRANCH  23  24
ATOM     24  O   UNL     1      30.671  -3.188 -25.074  0.00  0.00    -0.471 OA
ATOM     25  C   UNL     1      31.614  -3.275 -26.141  0.00  0.00    +0.252 C 
ENDBRANCH  23  24
ENDBRANCH  15  18
ENDBRANCH   2  15
BRANCH   8  26
ATOM     26  O   UNL     1      32.473 -12.730 -22.353  0.00  0.00    -0.430 OA
BRANCH  26  27
ATOM     27  C   UNL     1      33.853 -13.088 -22.222  0.00  0.00    +0.237 C 
BRANCH  27  28
ATOM     28  C   UNL     1      34.025 -14.526 -22.614  0.00  0.00    +0.021 C 
ATOM     29  C   UNL     1      34.431 -15.463 -21.663  0.00  0.00    -0.001 C 
ATOM     30  C   UNL     1      33.781 -14.926 -23.927  0.00  0.00    -0.001 C 
ATOM     31  C   UNL     1      34.592 -16.801 -22.027  0.00  0.00    -0.000 C 
ATOM     32  C   UNL     1      33.941 -16.263 -24.291  0.00  0.00    -0.000 C 
ATOM     33  C   UNL     1      34.346 -17.200 -23.341  0.00  0.00    -0.000 C 
ENDBRANCH  27  28
ENDBRANCH  26  27
ENDBRANCH   8  26
TORSDOF 8
ENDMDL
MODEL 6
REMARK VINA RESULT:      -8.3     14.132     17.703
REMARK  Name = 5289389
REMARK  8 active torsions:
REMARK  status: ('A' for Active; 'I' for Inactive)
REMARK    1  A    between atoms: N_2  and  S_15
REMARK    2  A    between atoms: C_4  and  C_11
REMARK    3  A    between atoms: C_8  and  O_26
REMARK    4  A    between atoms: N_10  and  O_13
REMARK    5  A    between atoms: S_15  and  C_18
REMARK    6  A    between atoms: C_23  and  O_24
REMARK    7  A    between atoms: O_26  and  C_27
REMARK    8  A    between atoms: C_27  and  C_28
REMARK                            x       y       z     vdW  Elec       q    Type
REMARK                         _______ _______ _______ _____ _____    ______ ____
ROOT
ATOM      1  O   UNL     1      34.158 -10.084 -23.670  0.00  0.00    -0.226 OA
ATOM      2  N   UNL     1      31.113  -6.321 -22.362  0.00  0.00    -0.145 NA
ATOM      3  N   UNL     1      32.275  -8.791 -23.232  0.00  0.00    -0.243 N 
ATOM      4  C   UNL     1      32.544  -6.358 -22.781  0.00  0.00    +0.177 C 
ATOM      5  C   UNL     1      32.876  -7.539 -23.690  0.00  0.00    +0.124 C 
ATOM      6  C   UNL     1      30.256  -7.368 -22.976  0.00  0.00    +0.118 C 
ATOM      7  C   UNL     1      30.894  -8.731 -22.751  0.00  0.00    +0.116 C 
ATOM      8  C   UNL     1      32.998  -9.986 -23.275  0.00  0.00    +0.405 C 
ENDROOT
BRANCH   4  11
ATOM      9  O   UNL     1      34.532  -6.506 -21.480  0.00  0.00    -0.271 OA
ATOM     10  N   UNL     1      32.494  -6.410 -20.390  0.00  0.00    -0.196 N 
ATOM     11  C   UNL     1      33.304  -6.436 -21.495  0.00  0.00    +0.262 C 
ATOM     12  H   UNL     1      31.513  -6.353 -20.462  0.00  0.00    +0.182 HD
BRANCH  10  13
ATOM     13  O   UNL     1      33.150  -6.469 -19.154  0.00  0.00    -0.295 OA
ATOM     14  H   UNL     1      32.644  -5.966 -18.496  0.00  0.00    +0.241 HD
ENDBRANCH  10  13
ENDBRANCH   4  11
BRANCH   2  15
ATOM     15  S   UNL     1      30.404  -4.775 -22.186  0.00  0.00    +0.064 S 
ATOM     16  O   UNL     1      30.963  -4.128 -21.018  0.00  0.00    -0.153 OA
ATOM     17  O   UNL     1      28.972  -4.891 -22.359  0.00  0.00    -0.153 OA
BRANCH  15  18
ATOM     18  C   UNL     1      31.060  -3.969 -23.614  0.00  0.00    +0.122 C 
ATOM     19  C   UNL     1      31.527  -2.659 -23.521  0.00  0.00    +0.023 C 
ATOM     20  C   UNL     1      31.111  -4.645 -24.833  0.00  0.00    +0.023 C 
ATOM     21  C   UNL     1      32.045  -2.022 -24.650  0.00  0.00    +0.038 C 
ATOM     22  C   UNL     1      31.629  -4.008 -25.961  0.00  0.00    +0.038 C 
ATOM     23  C   UNL     1      32.096  -2.697 -25.869  0.00  0.00    +0.139 C 
BRANCH  23  24
ATOM     24  O   UNL     1      32.601  -2.076 -26.970  0.00  0.00    -0.471 OA
ATOM     25  C   UNL     1      32.733  -2.860 -28.155  0.00  0.00    +0.252 C 
ENDBRANCH  23  24
ENDBRANCH  15  18
ENDBRANCH   2  15
BRANCH   8  26
ATOM     26  O   UNL     1      32.265 -11.052 -22.820  0.00  0.00    -0.430 OA
BRANCH  26  27
ATOM     27  C   UNL     1      32.397 -12.269 -23.563  0.00  0.00    +0.237 C 
BRANCH  27  28
ATOM     28  C   UNL     1      33.024 -13.312 -22.686  0.00  0.00    +0.021 C 
ATOM     29  C   UNL     1      33.713 -14.381 -23.260  0.00  0.00    -0.001 C 
ATOM     30  C   UNL     1      32.919 -13.214 -21.299  0.00  0.00    -0.001 C 
ATOM     31  C   UNL     1      34.297 -15.352 -22.445  0.00  0.00    -0.000 C 
ATOM     32  C   UNL     1      33.504 -14.184 -20.485  0.00  0.00    -0.000 C 
ATOM     33  C   UNL     1      34.193 -15.253 -21.057  0.00  0.00    -0.000 C 
ENDBRANCH  27  28
ENDBRANCH  26  27
ENDBRANCH   8  26
TORSDOF 8
ENDMDL
MODEL 7
REMARK VINA RESULT:      -8.1     13.289     17.028
REMARK  Name = 5289389
REMARK  8 active torsions:
REMARK  status: ('A' for Active; 'I' for Inactive)
REMARK    1  A    between atoms: N_2  and  S_15
REMARK    2  A    between atoms: C_4  and  C_11
REMARK    3  A    between atoms: C_8  and  O_26
REMARK    4  A    between atoms: N_10  and  O_13
REMARK    5  A    between atoms: S_15  and  C_18
REMARK    6  A    between atoms: C_23  and  O_24
REMARK    7  A    between atoms: O_26  and  C_27
REMARK    8  A    between atoms: C_27  and  C_28
REMARK                            x       y       z     vdW  Elec       q    Type
REMARK                         _______ _______ _______ _____ _____    ______ ____
ROOT
ATOM      1  O   UNL     1      30.512 -11.926 -22.551  0.00  0.00    -0.226 OA
ATOM      2  N   UNL     1      31.392  -7.092 -21.551  0.00  0.00    -0.145 NA
ATOM      3  N   UNL     1      31.209  -9.951 -21.540  0.00  0.00    -0.243 N 
ATOM      4  C   UNL     1      30.397  -7.773 -22.428  0.00  0.00    +0.177 C 
ATOM      5  C   UNL     1      30.039  -9.180 -21.955  0.00  0.00    +0.124 C 
ATOM      6  C   UNL     1      31.778  -7.856 -20.335  0.00  0.00    +0.118 C 
ATOM      7  C   UNL     1      32.218  -9.254 -20.742  0.00  0.00    +0.116 C 
ATOM      8  C   UNL     1      31.332 -11.300 -21.883  0.00  0.00    +0.405 C 
ENDROOT
BRANCH   4  11
ATOM      9  O   UNL     1      32.036  -8.507 -23.990  0.00  0.00    -0.271 OA
ATOM     10  N   UNL     1      30.430  -6.998 -24.691  0.00  0.00    -0.196 N 
ATOM     11  C   UNL     1      31.050  -7.805 -23.773  0.00  0.00    +0.262 C 
ATOM     12  H   UNL     1      29.641  -6.455 -24.462  0.00  0.00    +0.182 HD
BRANCH  10  13
ATOM     13  O   UNL     1      30.990  -6.995 -25.975  0.00  0.00    -0.295 OA
ATOM     14  H   UNL     1      30.307  -7.221 -26.626  0.00  0.00    +0.241 HD
ENDBRANCH  10  13
ENDBRANCH   4  11
BRANCH   2  15
ATOM     15  S   UNL     1      31.216  -5.403 -21.355  0.00  0.00    +0.064 S 
ATOM     16  O   UNL     1      31.909  -4.990 -20.153  0.00  0.00    -0.153 OA
ATOM     17  O   UNL     1      29.831  -5.046 -21.576  0.00  0.00    -0.153 OA
BRANCH  15  18
ATOM     18  C   UNL     1      32.152  -4.832 -22.739  0.00  0.00    +0.122 C 
ATOM     19  C   UNL     1      31.672  -3.780 -23.518  0.00  0.00    +0.023 C 
ATOM     20  C   UNL     1      33.371  -5.433 -23.052  0.00  0.00    +0.023 C 
ATOM     21  C   UNL     1      32.411  -3.330 -24.612  0.00  0.00    +0.038 C 
ATOM     22  C   UNL     1      34.110  -4.982 -24.145  0.00  0.00    +0.038 C 
ATOM     23  C   UNL     1      33.630  -3.930 -24.925  0.00  0.00    +0.139 C 
BRANCH  23  24
ATOM     24  O   UNL     1      34.351  -3.491 -25.993  0.00  0.00    -0.471 OA
ATOM     25  C   UNL     1      35.244  -4.423 -26.602  0.00  0.00    +0.252 C 
ENDBRANCH  23  24
ENDBRANCH  15  18
ENDBRANCH   2  15
BRANCH   8  26
ATOM     26  O   UNL     1      32.485 -11.857 -21.393  0.00  0.00    -0.430 OA
BRANCH  26  27
ATOM     27  C   UNL     1      33.441 -12.285 -22.369  0.00  0.00    +0.237 C 
BRANCH  27  28
ATOM     28  C   UNL     1      33.813 -13.712 -22.097  0.00  0.00    +0.021 C 
ATOM     29  C   UNL     1      34.175 -14.551 -23.152  0.00  0.00    -0.001 C 
ATOM     30  C   UNL     1      33.798 -14.201 -20.792  0.00  0.00    -0.001 C 
ATOM     31  C   UNL     1      34.521 -15.879 -22.900  0.00  0.00    -0.000 C 
ATOM     32  C   UNL     1      34.145 -15.529 -20.539  0.00  0.00    -0.000 C 
ATOM     33  C   UNL     1      34.506 -16.368 -21.593  0.00  0.00    -0.000 C 
ENDBRANCH  27  28
ENDBRANCH  26  27
ENDBRANCH   8  26
TORSDOF 8
ENDMDL
