MODEL 1
REMARK VINA RESULT:     -12.3      0.000      0.000
REMARK  Name = 5497056
REMARK  11 active torsions:
REMARK  status: ('A' for Active; 'I' for Inactive)
REMARK    1  A    between atoms: N_2  and  C_22
REMARK    2  A    between atoms: C_3  and  C_5
REMARK    3  A    between atoms: C_8  and  C_11
REMARK    4  A    between atoms: C_13  and  C_17
REMARK    5  A    between atoms: C_17  and  N_18
REMARK    6  A    between atoms: C_22  and  C_24
REMARK    7  A    between atoms: C_24  and  C_26
REMARK    8  A    between atoms: C_24  and  C_29
REMARK    9  A    between atoms: C_26  and  O_27
REMARK   10  A    between atoms: C_29  and  C_30
REMARK   11  A    between atoms: C_33  and  C_38
REMARK                            x       y       z     vdW  Elec       q    Type
REMARK                         _______ _______ _______ _____ _____    ______ ____
ROOT
ATOM      1  O   UNL     1      32.646 -24.036 -17.372  0.00  0.00    -0.270 OA
ATOM      2  N   UNL     1      31.283 -22.326 -16.600  0.00  0.00    -0.302 N 
ATOM      3  C   UNL     1      32.280 -22.865 -17.400  0.00  0.00    +0.246 C 
ATOM      4  H   UNL     1      31.062 -21.372 -16.697  0.00  0.00    +0.150 HD
ENDROOT
BRANCH   3   5
ATOM      5  C   UNL     1      32.949 -21.917 -18.328  0.00  0.00    +0.053 C 
ATOM      6  C   UNL     1      32.185 -21.055 -19.115  0.00  0.00    +0.005 C 
ATOM      7  C   UNL     1      34.341 -21.888 -18.412  0.00  0.00    +0.005 C 
ATOM      8  C   UNL     1      34.205 -20.136 -20.070  0.00  0.00    -0.000 C 
ATOM      9  C   UNL     1      32.813 -20.165 -19.987  0.00  0.00    +0.000 C 
ATOM     10  C   UNL     1      34.969 -20.997 -19.282  0.00  0.00    +0.000 C 
BRANCH   8  11
ATOM     11  C   UNL     1      34.855 -19.211 -20.973  0.00  0.00    -0.000 C 
ATOM     12  C   UNL     1      34.117 -18.576 -21.971  0.00  0.00    -0.006 C 
ATOM     13  C   UNL     1      34.745 -17.684 -22.841  0.00  0.00    -0.044 C 
ATOM     14  C   UNL     1      36.221 -18.956 -20.844  0.00  0.00    -0.000 C 
ATOM     15  C   UNL     1      36.111 -17.429 -22.713  0.00  0.00    -0.006 C 
ATOM     16  C   UNL     1      36.848 -18.064 -21.714  0.00  0.00    -0.000 C 
BRANCH  13  17
ATOM     17  C   UNL     1      33.956 -17.003 -23.908  0.00  0.00    -0.059 C 
BRANCH  17  18
ATOM     18  N   UNL     1      34.523 -15.706 -24.280  0.00  0.00    +0.383 N 
ATOM     19  H   UNL     1      34.951 -15.774 -25.204  0.00  0.00    -0.089 HD
ATOM     20  H   UNL     1      35.231 -15.435 -23.597  0.00  0.00    -0.089 HD
ATOM     21  H   UNL     1      33.783 -15.005 -24.299  0.00  0.00    -0.089 HD
ENDBRANCH  17  18
ENDBRANCH  13  17
ENDBRANCH   8  11
ENDBRANCH   3   5
BRANCH   2  22
ATOM     22  C   UNL     1      30.558 -23.114 -15.631  0.00  0.00    +0.083 C 
ATOM     23  C   UNL     1      29.565 -22.232 -14.875  0.00  0.00    +0.022 C 
BRANCH  22  24
ATOM     24  C   UNL     1      31.493 -23.894 -14.680  0.00  0.00    +0.121 C 
BRANCH  24  26
ATOM     25  O   UNL     1      30.794 -24.589 -12.451  0.00  0.00    -0.250 OA
ATOM     26  C   UNL     1      30.698 -24.709 -13.666  0.00  0.00    +0.319 C 
BRANCH  26  27
ATOM     27  O   UNL     1      29.876 -25.581 -14.319  0.00  0.00    -0.444 OA
ATOM     28  C   UNL     1      28.482 -25.458 -14.017  0.00  0.00    +0.256 C 
ENDBRANCH  26  27
ENDBRANCH  24  26
BRANCH  24  29
ATOM     29  C   UNL     1      32.481 -22.963 -13.948  0.00  0.00    +0.039 C 
BRANCH  29  30
ATOM     30  C   UNL     1      33.919 -23.205 -14.347  0.00  0.00    -0.021 C 
ATOM     31  C   UNL     1      34.441 -24.497 -14.321  0.00  0.00    -0.002 C 
ATOM     32  C   UNL     1      34.723 -22.135 -14.738  0.00  0.00    -0.004 C 
ATOM     33  C   UNL     1      35.769 -24.720 -14.687  0.00  0.00    +0.030 C 
ATOM     34  C   UNL     1      36.051 -22.357 -15.103  0.00  0.00    -0.000 C 
ATOM     35  C   UNL     1      36.574 -23.649 -15.078  0.00  0.00    +0.003 C 
BRANCH  33  38
ATOM     36  N   UNL     1      36.785 -26.635 -13.475  0.00  0.00    -0.343 N 
ATOM     37  N   UNL     1      36.376 -26.776 -15.772  0.00  0.00    -0.285 NA
ATOM     38  C   UNL     1      36.315 -26.067 -14.659  0.00  0.00    +0.117 C 
ATOM     39  H   UNL     1      37.152 -27.548 -13.479  0.00  0.00    +0.144 HD
ATOM     40  H   UNL     1      36.752 -26.121 -12.635  0.00  0.00    +0.144 HD
ATOM     41  H   UNL     1      36.746 -27.688 -15.755  0.00  0.00    +0.188 HD
ENDBRANCH  33  38
ENDBRANCH  29  30
ENDBRANCH  24  29
ENDBRANCH  22  24
ENDBRANCH   2  22
TORSDOF 11
ENDMDL
MODEL 2
REMARK VINA RESULT:     -12.0      3.936     10.747
REMARK  Name = 5497056
REMARK  11 active torsions:
REMARK  status: ('A' for Active; 'I' for Inactive)
REMARK    1  A    between atoms: N_2  and  C_22
REMARK    2  A    between atoms: C_3  and  C_5
REMARK    3  A    between atoms: C_8  and  C_11
REMARK    4  A    between atoms: C_13  and  C_17
REMARK    5  A    between atoms: C_17  and  N_18
REMARK    6  A    between atoms: C_22  and  C_24
REMARK    7  A    between atoms: C_24  and  C_26
REMARK    8  A    between atoms: C_24  and  C_29
REMARK    9  A    between atoms: C_26  and  O_27
REMARK   10  A    between atoms: C_29  and  C_30
REMARK   11  A    between atoms: C_33  and  C_38
REMARK                            x       y       z     vdW  Elec       q    Type
REMARK                         _______ _______ _______ _____ _____    ______ ____
ROOT
ATOM      1  O   UNL     1      36.094 -21.183 -20.113  0.00  0.00    -0.270 OA
ATOM      2  N   UNL     1      34.492 -19.577 -20.592  0.00  0.00    -0.302 N 
ATOM      3  C   UNL     1      34.997 -20.672 -19.908  0.00  0.00    +0.246 C 
ATOM      4  H   UNL     1      33.598 -19.241 -20.354  0.00  0.00    +0.150 HD
ENDROOT
BRANCH   3   5
ATOM      5  C   UNL     1      34.105 -21.259 -18.875  0.00  0.00    +0.053 C 
ATOM      6  C   UNL     1      32.721 -21.139 -19.000  0.00  0.00    +0.005 C 
ATOM      7  C   UNL     1      34.651 -21.930 -17.781  0.00  0.00    +0.005 C 
ATOM      8  C   UNL     1      32.429 -22.362 -16.936  0.00  0.00    -0.000 C 
ATOM      9  C   UNL     1      31.883 -21.690 -18.030  0.00  0.00    +0.000 C 
ATOM     10  C   UNL     1      33.813 -22.481 -16.812  0.00  0.00    +0.000 C 
BRANCH   8  11
ATOM     11  C   UNL     1      31.559 -22.934 -15.932  0.00  0.00    -0.000 C 
ATOM     12  C   UNL     1      30.179 -22.950 -16.132  0.00  0.00    -0.006 C 
ATOM     13  C   UNL     1      29.340 -23.502 -15.163  0.00  0.00    -0.044 C 
ATOM     14  C   UNL     1      32.101 -23.469 -14.764  0.00  0.00    -0.000 C 
ATOM     15  C   UNL     1      29.883 -24.037 -13.994  0.00  0.00    -0.006 C 
ATOM     16  C   UNL     1      31.263 -24.021 -13.795  0.00  0.00    -0.000 C 
BRANCH  13  17
ATOM     17  C   UNL     1      27.865 -23.520 -15.377  0.00  0.00    -0.059 C 
BRANCH  17  18
ATOM     18  N   UNL     1      27.306 -22.175 -15.530  0.00  0.00    +0.383 N 
ATOM     19  H   UNL     1      26.436 -22.107 -15.002  0.00  0.00    -0.089 HD
ATOM     20  H   UNL     1      27.121 -21.994 -16.516  0.00  0.00    -0.089 HD
ATOM     21  H   UNL     1      27.974 -21.489 -15.177  0.00  0.00    -0.089 HD
ENDBRANCH  17  18
ENDBRANCH  13  17
ENDBRANCH   8  11
ENDBRANCH   3   5
BRANCH   2  22
ATOM     22  C   UNL     1      35.229 -18.912 -21.642  0.00  0.00    +0.083 C 
ATOM     23  C   UNL     1      36.462 -18.222 -21.062  0.00  0.00    +0.022 C 
BRANCH  22  24
ATOM     24  C   UNL     1      34.348 -17.946 -22.464  0.00  0.00    +0.121 C 
BRANCH  24  26
ATOM     25  O   UNL     1      34.231 -19.689 -24.163  0.00  0.00    -0.250 OA
ATOM     26  C   UNL     1      33.843 -18.607 -23.743  0.00  0.00    +0.319 C 
BRANCH  26  27
ATOM     27  O   UNL     1      32.905 -17.810 -24.333  0.00  0.00    -0.444 OA
ATOM     28  C   UNL     1      31.930 -18.492 -25.129  0.00  0.00    +0.256 C 
ENDBRANCH  26  27
ENDBRANCH  24  26
BRANCH  24  29
ATOM     29  C   UNL     1      35.089 -16.637 -22.807  0.00  0.00    +0.039 C 
BRANCH  29  30
ATOM     30  C   UNL     1      34.371 -15.407 -22.300  0.00  0.00    -0.021 C 
ATOM     31  C   UNL     1      33.988 -14.407 -23.193  0.00  0.00    -0.002 C 
ATOM     32  C   UNL     1      34.094 -15.272 -20.940  0.00  0.00    -0.004 C 
ATOM     33  C   UNL     1      33.327 -13.270 -22.725  0.00  0.00    +0.030 C 
ATOM     34  C   UNL     1      33.434 -14.136 -20.472  0.00  0.00    -0.000 C 
ATOM     35  C   UNL     1      33.050 -13.135 -21.364  0.00  0.00    +0.003 C 
BRANCH  33  38
ATOM     36  N   UNL     1      32.706 -10.919 -23.225  0.00  0.00    -0.343 N 
ATOM     37  N   UNL     1      32.767 -12.510 -24.935  0.00  0.00    -0.285 NA
ATOM     38  C   UNL     1      32.928 -12.226 -23.655  0.00  0.00    +0.117 C 
ATOM     39  H   UNL     1      32.435 -10.227 -23.871  0.00  0.00    +0.144 HD
ATOM     40  H   UNL     1      32.818 -10.687 -22.274  0.00  0.00    +0.144 HD
ATOM     41  H   UNL     1      32.497 -11.805 -25.565  0.00  0.00    +0.188 HD
ENDBRANCH  33  38
ENDBRANCH  29  30
ENDBRANCH  24  29
ENDBRANCH  22  24
ENDBRANCH   2  22
TORSDOF 11
ENDMDL
MODEL 3
REMARK VINA RESULT:     -12.0      8.511     14.521
REMARK  Name = 5497056
REMARK  11 active torsions:
REMARK  status: ('A' for Active; 'I' for Inactive)
REMARK    1  A    between atoms: N_2  and  C_22
REMARK    2  A    between atoms: C_3  and  C_5
REMARK    3  A    between atoms: C_8  and  C_11
REMARK    4  A    between atoms: C_13  and  C_17
REMARK    5  A    between atoms: C_17  and  N_18
REMARK    6  A    between atoms: C_22  and  C_24
REMARK    7  A    between atoms: C_24  and  C_26
REMARK    8  A    between atoms: C_24  and  C_29
REMARK    9  A    between atoms: C_26  and  O_27
REMARK   10  A    between atoms: C_29  and  C_30
REMARK   11  A    between atoms: C_33  and  C_38
REMARK                            x       y       z     vdW  Elec       q    Type
REMARK                         _______ _______ _______ _____ _____    ______ ____
ROOT
ATOM      1  O   UNL     1      32.766 -12.628 -24.768  0.00  0.00    -0.270 OA
ATOM      2  N   UNL     1      33.069 -11.599 -22.712  0.00  0.00    -0.302 N 
ATOM      3  C   UNL     1      33.101 -12.674 -23.588  0.00  0.00    +0.246 C 
ATOM      4  H   UNL     1      33.359 -11.738 -21.781  0.00  0.00    +0.150 HD
ENDROOT
BRANCH   3   5
ATOM      5  C   UNL     1      33.556 -13.966 -23.012  0.00  0.00    +0.053 C 
ATOM      6  C   UNL     1      33.841 -15.042 -23.853  0.00  0.00    +0.005 C 
ATOM      7  C   UNL     1      33.699 -14.103 -21.631  0.00  0.00    +0.005 C 
ATOM      8  C   UNL     1      34.412 -16.392 -21.932  0.00  0.00    -0.000 C 
ATOM      9  C   UNL     1      34.269 -16.255 -23.313  0.00  0.00    +0.000 C 
ATOM     10  C   UNL     1      34.127 -15.316 -21.092  0.00  0.00    +0.000 C 
BRANCH   8  11
ATOM     11  C   UNL     1      34.857 -17.651 -21.374  0.00  0.00    -0.000 C 
ATOM     12  C   UNL     1      33.922 -18.591 -20.943  0.00  0.00    -0.006 C 
ATOM     13  C   UNL     1      34.352 -19.804 -20.404  0.00  0.00    -0.044 C 
ATOM     14  C   UNL     1      36.221 -17.922 -21.268  0.00  0.00    -0.000 C 
ATOM     15  C   UNL     1      35.716 -20.076 -20.297  0.00  0.00    -0.006 C 
ATOM     16  C   UNL     1      36.650 -19.135 -20.729  0.00  0.00    -0.000 C 
BRANCH  13  17
ATOM     17  C   UNL     1      33.352 -20.811 -19.944  0.00  0.00    -0.059 C 
BRANCH  17  18
ATOM     18  N   UNL     1      31.994 -20.268 -19.896  0.00  0.00    +0.383 N 
ATOM     19  H   UNL     1      31.423 -20.715 -20.613  0.00  0.00    -0.089 HD
ATOM     20  H   UNL     1      32.023 -19.262 -20.062  0.00  0.00    -0.089 HD
ATOM     21  H   UNL     1      31.589 -20.449 -18.977  0.00  0.00    -0.089 HD
ENDBRANCH  17  18
ENDBRANCH  13  17
ENDBRANCH   8  11
ENDBRANCH   3   5
BRANCH   2  22
ATOM     22  C   UNL     1      32.627 -10.285 -23.114  0.00  0.00    +0.083 C 
ATOM     23  C   UNL     1      33.816  -9.454 -23.594  0.00  0.00    +0.022 C 
BRANCH  22  24
ATOM     24  C   UNL     1      31.816  -9.568 -22.012  0.00  0.00    +0.121 C 
BRANCH  24  26
ATOM     25  O   UNL     1      29.945 -11.074 -21.596  0.00  0.00    -0.250 OA
ATOM     26  C   UNL     1      30.984 -10.558 -21.203  0.00  0.00    +0.319 C 
BRANCH  26  27
ATOM     27  O   UNL     1      31.573 -10.770 -19.991  0.00  0.00    -0.444 OA
ATOM     28  C   UNL     1      31.276  -9.797 -18.983  0.00  0.00    +0.256 C 
ENDBRANCH  26  27
ENDBRANCH  24  26
BRANCH  24  29
ATOM     29  C   UNL     1      30.906  -8.464 -22.588  0.00  0.00    +0.039 C 
BRANCH  29  30
ATOM     30  C   UNL     1      31.140  -7.116 -21.944  0.00  0.00    -0.021 C 
ATOM     31  C   UNL     1      30.636  -5.962 -22.541  0.00  0.00    -0.002 C 
ATOM     32  C   UNL     1      31.863  -7.028 -20.754  0.00  0.00    -0.004 C 
ATOM     33  C   UNL     1      30.853  -4.718 -21.948  0.00  0.00    +0.030 C 
ATOM     34  C   UNL     1      32.081  -5.784 -20.161  0.00  0.00    -0.000 C 
ATOM     35  C   UNL     1      31.576  -4.629 -20.758  0.00  0.00    +0.003 C 
BRANCH  33  38
ATOM     36  N   UNL     1      30.022  -2.382 -21.817  0.00  0.00    -0.343 N 
ATOM     37  N   UNL     1      30.132  -3.479 -23.877  0.00  0.00    -0.285 NA
ATOM     38  C   UNL     1      30.329  -3.513 -22.571  0.00  0.00    +0.117 C 
ATOM     39  H   UNL     1      29.666  -1.577 -22.259  0.00  0.00    +0.144 HD
ATOM     40  H   UNL     1      30.158  -2.388 -20.841  0.00  0.00    +0.144 HD
ATOM     41  H   UNL     1      29.777  -2.664 -24.300  0.00  0.00    +0.188 HD
ENDBRANCH  33  38
ENDBRANCH  29  30
ENDBRANCH  24  29
ENDBRANCH  22  24
ENDBRANCH   2  22
TORSDOF 11
ENDMDL
MODEL 4
REMARK VINA RESULT:     -12.0      2.246      3.482
REMARK  Name = 5497056
REMARK  11 active torsions:
REMARK  status: ('A' for Active; 'I' for Inactive)
REMARK    1  A    between atoms: N_2  and  C_22
REMARK    2  A    between atoms: C_3  and  C_5
REMARK    3  A    between atoms: C_8  and  C_11
REMARK    4  A    between atoms: C_13  and  C_17
REMARK    5  A    between atoms: C_17  and  N_18
REMARK    6  A    between atoms: C_22  and  C_24
REMARK    7  A    between atoms: C_24  and  C_26
REMARK    8  A    between atoms: C_24  and  C_29
REMARK    9  A    between atoms: C_26  and  O_27
REMARK   10  A    between atoms: C_29  and  C_30
REMARK   11  A    between atoms: C_33  and  C_38
REMARK                            x       y       z     vdW  Elec       q    Type
REMARK                         _______ _______ _______ _____ _____    ______ ____
ROOT
ATOM      1  O   UNL     1      33.108 -23.855 -18.482  0.00  0.00    -0.270 OA
ATOM      2  N   UNL     1      33.196 -22.388 -16.689  0.00  0.00    -0.302 N 
ATOM      3  C   UNL     1      33.228 -22.718 -18.036  0.00  0.00    +0.246 C 
ATOM      4  H   UNL     1      33.302 -21.444 -16.431  0.00  0.00    +0.150 HD
ENDROOT
BRANCH   3   5
ATOM      5  C   UNL     1      33.451 -21.590 -18.975  0.00  0.00    +0.053 C 
ATOM      6  C   UNL     1      32.365 -20.861 -19.461  0.00  0.00    +0.005 C 
ATOM      7  C   UNL     1      34.747 -21.257 -19.371  0.00  0.00    +0.005 C 
ATOM      8  C   UNL     1      33.870 -19.468 -20.739  0.00  0.00    -0.000 C 
ATOM      9  C   UNL     1      32.575 -19.801 -20.343  0.00  0.00    +0.000 C 
ATOM     10  C   UNL     1      34.956 -20.196 -20.253  0.00  0.00    +0.000 C 
BRANCH   8  11
ATOM     11  C   UNL     1      34.086 -18.368 -21.653  0.00  0.00    -0.000 C 
ATOM     12  C   UNL     1      34.073 -17.056 -21.180  0.00  0.00    -0.006 C 
ATOM     13  C   UNL     1      34.282 -15.995 -22.062  0.00  0.00    -0.044 C 
ATOM     14  C   UNL     1      34.307 -18.620 -23.007  0.00  0.00    -0.000 C 
ATOM     15  C   UNL     1      34.502 -16.247 -23.417  0.00  0.00    -0.006 C 
ATOM     16  C   UNL     1      34.516 -17.560 -23.889  0.00  0.00    -0.000 C 
BRANCH  13  17
ATOM     17  C   UNL     1      34.269 -14.592 -21.558  0.00  0.00    -0.059 C 
BRANCH  17  18
ATOM     18  N   UNL     1      33.872 -13.632 -22.589  0.00  0.00    +0.383 N 
ATOM     19  H   UNL     1      33.564 -14.134 -23.421  0.00  0.00    -0.089 HD
ATOM     20  H   UNL     1      34.667 -13.038 -22.825  0.00  0.00    -0.089 HD
ATOM     21  H   UNL     1      33.109 -13.053 -22.238  0.00  0.00    -0.089 HD
ENDBRANCH  17  18
ENDBRANCH  13  17
ENDBRANCH   8  11
ENDBRANCH   3   5
BRANCH   2  22
ATOM     22  C   UNL     1      33.012 -23.377 -15.653  0.00  0.00    +0.083 C 
ATOM     23  C   UNL     1      31.732 -23.088 -14.872  0.00  0.00    +0.022 C 
BRANCH  22  24
ATOM     24  C   UNL     1      34.246 -23.507 -14.731  0.00  0.00    +0.121 C 
BRANCH  24  26
ATOM     25  O   UNL     1      35.435 -21.424 -14.298  0.00  0.00    -0.250 OA
ATOM     26  C   UNL     1      35.264 -22.406 -15.009  0.00  0.00    +0.319 C 
BRANCH  26  27
ATOM     27  O   UNL     1      35.942 -22.687 -16.159  0.00  0.00    -0.444 OA
ATOM     28  C   UNL     1      37.071 -21.849 -16.429  0.00  0.00    +0.256 C 
ENDBRANCH  26  27
ENDBRANCH  24  26
BRANCH  24  29
ATOM     29  C   UNL     1      34.919 -24.889 -14.857  0.00  0.00    +0.039 C 
BRANCH  29  30
ATOM     30  C   UNL     1      36.149 -25.022 -13.989  0.00  0.00    -0.021 C 
ATOM     31  C   UNL     1      37.377 -25.344 -14.565  0.00  0.00    -0.002 C 
ATOM     32  C   UNL     1      36.055 -24.826 -12.611  0.00  0.00    -0.004 C 
ATOM     33  C   UNL     1      38.513 -25.469 -13.764  0.00  0.00    +0.030 C 
ATOM     34  C   UNL     1      37.190 -24.952 -11.810  0.00  0.00    -0.000 C 
ATOM     35  C   UNL     1      38.419 -25.273 -12.386  0.00  0.00    +0.003 C 
BRANCH  33  38
ATOM     36  N   UNL     1      40.776 -26.484 -13.644  0.00  0.00    -0.343 N 
ATOM     37  N   UNL     1      40.044 -25.465 -15.616  0.00  0.00    -0.285 NA
ATOM     38  C   UNL     1      39.793 -25.806 -14.364  0.00  0.00    +0.117 C 
ATOM     39  H   UNL     1      41.636 -26.701 -14.070  0.00  0.00    +0.144 HD
ATOM     40  H   UNL     1      40.610 -26.744 -12.709  0.00  0.00    +0.144 HD
ATOM     41  H   UNL     1      40.910 -25.692 -16.024  0.00  0.00    +0.188 HD
ENDBRANCH  33  38
ENDBRANCH  29  30
ENDBRANCH  24  29
ENDBRANCH  22  24
ENDBRANCH   2  22
TORSDOF 11
ENDMDL
MODEL 5
REMARK VINA RESULT:     -11.5      2.537      3.935
REMARK  Name = 5497056
REMARK  11 active torsions:
REMARK  status: ('A' for Active; 'I' for Inactive)
REMARK    1  A    between atoms: N_2  and  C_22
REMARK    2  A    between atoms: C_3  and  C_5
REMARK    3  A    between atoms: C_8  and  C_11
REMARK    4  A    between atoms: C_13  and  C_17
REMARK    5  A    between atoms: C_17  and  N_18
REMARK    6  A    between atoms: C_22  and  C_24
REMARK    7  A    between atoms: C_24  and  C_26
REMARK    8  A    between atoms: C_24  and  C_29
REMARK    9  A    between atoms: C_26  and  O_27
REMARK   10  A    between atoms: C_29  and  C_30
REMARK   11  A    between atoms: C_33  and  C_38
REMARK                            x       y       z     vdW  Elec       q    Type
REMARK                         _______ _______ _______ _____ _____    ______ ____
ROOT
ATOM      1  O   UNL     1      33.462 -23.573 -19.179  0.00  0.00    -0.270 OA
ATOM      2  N   UNL     1      33.246 -22.290 -17.260  0.00  0.00    -0.302 N 
ATOM      3  C   UNL     1      33.426 -22.480 -18.621  0.00  0.00    +0.246 C 
ATOM      4  H   UNL     1      33.233 -21.370 -16.907  0.00  0.00    +0.150 HD
ENDROOT
BRANCH   3   5
ATOM      5  C   UNL     1      33.613 -21.247 -19.428  0.00  0.00    +0.053 C 
ATOM      6  C   UNL     1      34.898 -20.769 -19.685  0.00  0.00    +0.005 C 
ATOM      7  C   UNL     1      32.503 -20.567 -19.930  0.00  0.00    +0.005 C 
ATOM      8  C   UNL     1      33.963 -18.932 -20.946  0.00  0.00    -0.000 C 
ATOM      9  C   UNL     1      35.073 -19.612 -20.444  0.00  0.00    +0.000 C 
ATOM     10  C   UNL     1      32.678 -19.410 -20.689  0.00  0.00    +0.000 C 
BRANCH   8  11
ATOM     11  C   UNL     1      34.147 -17.732 -21.733  0.00  0.00    -0.000 C 
ATOM     12  C   UNL     1      34.067 -16.479 -21.125  0.00  0.00    -0.006 C 
ATOM     13  C   UNL     1      34.244 -15.323 -21.885  0.00  0.00    -0.044 C 
ATOM     14  C   UNL     1      34.404 -17.829 -23.101  0.00  0.00    -0.000 C 
ATOM     15  C   UNL     1      34.500 -15.420 -23.253  0.00  0.00    -0.006 C 
ATOM     16  C   UNL     1      34.581 -16.673 -23.861  0.00  0.00    -0.000 C 
BRANCH  13  17
ATOM     17  C   UNL     1      34.160 -13.984 -21.235  0.00  0.00    -0.059 C 
BRANCH  17  18
ATOM     18  N   UNL     1      33.904 -12.911 -22.198  0.00  0.00    +0.383 N 
ATOM     19  H   UNL     1      34.120 -12.011 -21.770  0.00  0.00    -0.089 HD
ATOM     20  H   UNL     1      32.922 -12.929 -22.474  0.00  0.00    -0.089 HD
ATOM     21  H   UNL     1      34.491 -13.047 -23.021  0.00  0.00    -0.089 HD
ENDBRANCH  17  18
ENDBRANCH  13  17
ENDBRANCH   8  11
ENDBRANCH   3   5
BRANCH   2  22
ATOM     22  C   UNL     1      33.076 -23.390 -16.339  0.00  0.00    +0.083 C 
ATOM     23  C   UNL     1      31.653 -23.397 -15.784  0.00  0.00    +0.022 C 
BRANCH  22  24
ATOM     24  C   UNL     1      34.143 -23.398 -15.221  0.00  0.00    +0.121 C 
BRANCH  24  26
ATOM     25  O   UNL     1      35.116 -21.214 -14.750  0.00  0.00    -0.250 OA
ATOM     26  C   UNL     1      35.137 -22.255 -15.394  0.00  0.00    +0.319 C 
BRANCH  26  27
ATOM     27  O   UNL     1      36.038 -22.574 -16.368  0.00  0.00    -0.444 OA
ATOM     28  C   UNL     1      37.381 -22.139 -16.130  0.00  0.00    +0.256 C 
ENDBRANCH  26  27
ENDBRANCH  24  26
BRANCH  24  29
ATOM     29  C   UNL     1      34.895 -24.742 -15.150  0.00  0.00    +0.039 C 
BRANCH  29  30
ATOM     30  C   UNL     1      35.815 -24.836 -13.954  0.00  0.00    -0.021 C 
ATOM     31  C   UNL     1      35.411 -24.324 -12.722  0.00  0.00    -0.002 C 
ATOM     32  C   UNL     1      37.069 -25.433 -14.083  0.00  0.00    -0.004 C 
ATOM     33  C   UNL     1      36.260 -24.409 -11.618  0.00  0.00    +0.030 C 
ATOM     34  C   UNL     1      37.919 -25.517 -12.980  0.00  0.00    -0.000 C 
ATOM     35  C   UNL     1      37.515 -25.006 -11.747  0.00  0.00    +0.003 C 
BRANCH  33  38
ATOM     36  N   UNL     1      36.298 -22.639  -9.876  0.00  0.00    -0.343 N 
ATOM     37  N   UNL     1      35.009 -24.564  -9.572  0.00  0.00    -0.285 NA
ATOM     38  C   UNL     1      35.839 -23.874 -10.333  0.00  0.00    +0.117 C 
ATOM     39  H   UNL     1      36.001 -22.296  -9.002  0.00  0.00    +0.144 HD
ATOM     40  H   UNL     1      36.921 -22.111 -10.427  0.00  0.00    +0.144 HD
ATOM     41  H   UNL     1      34.723 -24.204  -8.702  0.00  0.00    +0.188 HD
ENDBRANCH  33  38
ENDBRANCH  29  30
ENDBRANCH  24  29
ENDBRANCH  22  24
ENDBRANCH   2  22
TORSDOF 11
ENDMDL
MODEL 6
REMARK VINA RESULT:     -11.2      7.601     11.641
REMARK  Name = 5497056
REMARK  11 active torsions:
REMARK  status: ('A' for Active; 'I' for Inactive)
REMARK    1  A    between atoms: N_2  and  C_22
REMARK    2  A    between atoms: C_3  and  C_5
REMARK    3  A    between atoms: C_8  and  C_11
REMARK    4  A    between atoms: C_13  and  C_17
REMARK    5  A    between atoms: C_17  and  N_18
REMARK    6  A    between atoms: C_22  and  C_24
REMARK    7  A    between atoms: C_24  and  C_26
REMARK    8  A    between atoms: C_24  and  C_29
REMARK    9  A    between atoms: C_26  and  O_27
REMARK   10  A    between atoms: C_29  and  C_30
REMARK   11  A    between atoms: C_33  and  C_38
REMARK                            x       y       z     vdW  Elec       q    Type
REMARK                         _______ _______ _______ _____ _____    ______ ____
ROOT
ATOM      1  O   UNL     1      31.794 -13.564 -20.389  0.00  0.00    -0.270 OA
ATOM      2  N   UNL     1      33.048 -13.812 -22.323  0.00  0.00    -0.302 N 
ATOM      3  C   UNL     1      32.258 -13.106 -21.429  0.00  0.00    +0.246 C 
ATOM      4  H   UNL     1      33.372 -13.354 -23.133  0.00  0.00    +0.150 HD
ENDROOT
BRANCH   3   5
ATOM      5  C   UNL     1      31.952 -11.701 -21.803  0.00  0.00    +0.053 C 
ATOM      6  C   UNL     1      31.064 -10.951 -21.032  0.00  0.00    +0.005 C 
ATOM      7  C   UNL     1      32.553 -11.131 -22.926  0.00  0.00    +0.005 C 
ATOM      8  C   UNL     1      31.377  -9.063 -22.506  0.00  0.00    -0.000 C 
ATOM      9  C   UNL     1      30.776  -9.633 -21.384  0.00  0.00    +0.000 C 
ATOM     10  C   UNL     1      32.265  -9.813 -23.278  0.00  0.00    +0.000 C 
BRANCH   8  11
ATOM     11  C   UNL     1      31.078  -7.694 -22.869  0.00  0.00    -0.000 C 
ATOM     12  C   UNL     1      30.799  -6.755 -21.877  0.00  0.00    -0.006 C 
ATOM     13  C   UNL     1      30.511  -5.436 -22.228  0.00  0.00    -0.044 C 
ATOM     14  C   UNL     1      31.071  -7.316 -24.212  0.00  0.00    -0.000 C 
ATOM     15  C   UNL     1      30.503  -5.057 -23.571  0.00  0.00    -0.006 C 
ATOM     16  C   UNL     1      30.783  -5.997 -24.563  0.00  0.00    -0.000 C 
BRANCH  13  17
ATOM     17  C   UNL     1      30.213  -4.430 -21.168  0.00  0.00    -0.059 C 
BRANCH  17  18
ATOM     18  N   UNL     1      29.988  -3.092 -21.716  0.00  0.00    +0.383 N 
ATOM     19  H   UNL     1      29.473  -2.529 -21.038  0.00  0.00    -0.089 HD
ATOM     20  H   UNL     1      29.448  -3.163 -22.578  0.00  0.00    -0.089 HD
ATOM     21  H   UNL     1      30.886  -2.650 -21.913  0.00  0.00    -0.089 HD
ENDBRANCH  17  18
ENDBRANCH  13  17
ENDBRANCH   8  11
ENDBRANCH   3   5
BRANCH   2  22
ATOM     22  C   UNL     1      33.411 -15.194 -22.112  0.00  0.00    +0.083 C 
ATOM     23  C   UNL     1      34.297 -15.321 -20.874  0.00  0.00    +0.022 C 
BRANCH  22  24
ATOM     24  C   UNL     1      34.054 -15.836 -23.362  0.00  0.00    +0.121 C 
BRANCH  24  26
ATOM     25  O   UNL     1      32.970 -15.854 -25.544  0.00  0.00    -0.250 OA
ATOM     26  C   UNL     1      33.507 -15.220 -24.645  0.00  0.00    +0.319 C 
BRANCH  26  27
ATOM     27  O   UNL     1      33.713 -13.871 -24.631  0.00  0.00    -0.444 OA
ATOM     28  C   UNL     1      32.964 -13.124 -25.596  0.00  0.00    +0.256 C 
ENDBRANCH  26  27
ENDBRANCH  24  26
BRANCH  24  29
ATOM     29  C   UNL     1      33.861 -17.366 -23.390  0.00  0.00    +0.039 C 
BRANCH  29  30
ATOM     30  C   UNL     1      34.661 -18.077 -22.323  0.00  0.00    -0.021 C 
ATOM     31  C   UNL     1      34.044 -19.021 -21.503  0.00  0.00    -0.002 C 
ATOM     32  C   UNL     1      36.015 -17.788 -22.157  0.00  0.00    -0.004 C 
ATOM     33  C   UNL     1      34.781 -19.677 -20.516  0.00  0.00    +0.030 C 
ATOM     34  C   UNL     1      36.753 -18.443 -21.170  0.00  0.00    -0.000 C 
ATOM     35  C   UNL     1      36.137 -19.387 -20.350  0.00  0.00    +0.003 C 
BRANCH  33  38
ATOM     36  N   UNL     1      32.751 -20.737 -19.558  0.00  0.00    -0.343 N 
ATOM     37  N   UNL     1      34.875 -21.502 -18.956  0.00  0.00    -0.285 NA
ATOM     38  C   UNL     1      34.139 -20.660 -19.660  0.00  0.00    +0.117 C 
ATOM     39  H   UNL     1      32.336 -21.410 -18.971  0.00  0.00    +0.144 HD
ATOM     40  H   UNL     1      32.184 -20.116 -20.072  0.00  0.00    +0.144 HD
ATOM     41  H   UNL     1      34.442 -22.168 -18.376  0.00  0.00    +0.188 HD
ENDBRANCH  33  38
ENDBRANCH  29  30
ENDBRANCH  24  29
ENDBRANCH  22  24
ENDBRANCH   2  22
TORSDOF 11
ENDMDL
MODEL 7
REMARK VINA RESULT:     -11.0      9.647     15.891
REMARK  Name = 5497056
REMARK  11 active torsions:
REMARK  status: ('A' for Active; 'I' for Inactive)
REMARK    1  A    between atoms: N_2  and  C_22
REMARK    2  A    between atoms: C_3  and  C_5
REMARK    3  A    between atoms: C_8  and  C_11
REMARK    4  A    between atoms: C_13  and  C_17
REMARK    5  A    between atoms: C_17  and  N_18
REMARK    6  A    between atoms: C_22  and  C_24
REMARK    7  A    between atoms: C_24  and  C_26
REMARK    8  A    between atoms: C_24  and  C_29
REMARK    9  A    between atoms: C_26  and  O_27
REMARK   10  A    between atoms: C_29  and  C_30
REMARK   11  A    between atoms: C_33  and  C_38
REMARK                            x       y       z     vdW  Elec       q    Type
REMARK                         _______ _______ _______ _____ _____    ______ ____
ROOT
ATOM      1  O   UNL     1      33.275  -9.186 -23.281  0.00  0.00    -0.270 OA
ATOM      2  N   UNL     1      31.191  -9.749 -22.435  0.00  0.00    -0.302 N 
ATOM      3  C   UNL     1      32.462 -10.028 -22.913  0.00  0.00    +0.246 C 
ATOM      4  H   UNL     1      30.611 -10.497 -22.163  0.00  0.00    +0.150 HD
ENDROOT
BRANCH   3   5
ATOM      5  C   UNL     1      32.821 -11.467 -22.994  0.00  0.00    +0.053 C 
ATOM      6  C   UNL     1      33.157 -12.169 -21.836  0.00  0.00    +0.005 C 
ATOM      7  C   UNL     1      32.823 -12.118 -24.228  0.00  0.00    +0.005 C 
ATOM      8  C   UNL     1      33.495 -14.171 -23.146  0.00  0.00    -0.000 C 
ATOM      9  C   UNL     1      33.495 -13.520 -21.913  0.00  0.00    +0.000 C 
ATOM     10  C   UNL     1      33.159 -13.469 -24.304  0.00  0.00    +0.000 C 
BRANCH   8  11
ATOM     11  C   UNL     1      33.844 -15.573 -23.224  0.00  0.00    -0.000 C 
ATOM     12  C   UNL     1      34.677 -16.139 -22.258  0.00  0.00    -0.006 C 
ATOM     13  C   UNL     1      35.012 -17.491 -22.334  0.00  0.00    -0.044 C 
ATOM     14  C   UNL     1      33.347 -16.358 -24.264  0.00  0.00    -0.000 C 
ATOM     15  C   UNL     1      34.516 -18.276 -23.375  0.00  0.00    -0.006 C 
ATOM     16  C   UNL     1      33.683 -17.710 -24.340  0.00  0.00    -0.000 C 
BRANCH  13  17
ATOM     17  C   UNL     1      35.901 -18.097 -21.301  0.00  0.00    -0.059 C 
BRANCH  17  18
ATOM     18  N   UNL     1      37.291 -18.198 -21.751  0.00  0.00    +0.383 N 
ATOM     19  H   UNL     1      37.903 -17.756 -21.065  0.00  0.00    -0.089 HD
ATOM     20  H   UNL     1      37.393 -17.729 -22.651  0.00  0.00    -0.089 HD
ATOM     21  H   UNL     1      37.544 -19.181 -21.850  0.00  0.00    -0.089 HD
ENDBRANCH  17  18
ENDBRANCH  13  17
ENDBRANCH   8  11
ENDBRANCH   3   5
BRANCH   2  22
ATOM     22  C   UNL     1      30.686  -8.400 -22.320  0.00  0.00    +0.083 C 
ATOM     23  C   UNL     1      30.355  -7.844 -23.704  0.00  0.00    +0.022 C 
BRANCH  22  24
ATOM     24  C   UNL     1      31.636  -7.476 -21.527  0.00  0.00    +0.121 C 
BRANCH  24  26
ATOM     25  O   UNL     1      32.184  -7.146 -19.175  0.00  0.00    -0.250 OA
ATOM     26  C   UNL     1      31.609  -7.798 -20.037  0.00  0.00    +0.319 C 
BRANCH  26  27
ATOM     27  O   UNL     1      30.852  -8.914 -19.822  0.00  0.00    -0.444 OA
ATOM     28  C   UNL     1      31.365  -9.827 -18.846  0.00  0.00    +0.256 C 
ENDBRANCH  26  27
ENDBRANCH  24  26
BRANCH  24  29
ATOM     29  C   UNL     1      31.310  -5.984 -21.748  0.00  0.00    +0.039 C 
BRANCH  29  30
ATOM     30  C   UNL     1      32.156  -5.353 -22.830  0.00  0.00    -0.021 C 
ATOM     31  C   UNL     1      31.629  -4.334 -23.621  0.00  0.00    -0.002 C 
ATOM     32  C   UNL     1      33.463  -5.793 -23.038  0.00  0.00    -0.004 C 
ATOM     33  C   UNL     1      32.408  -3.752 -24.621  0.00  0.00    +0.030 C 
ATOM     34  C   UNL     1      34.243  -5.212 -24.039  0.00  0.00    -0.000 C 
ATOM     35  C   UNL     1      33.717  -4.191 -24.830  0.00  0.00    +0.003 C 
BRANCH  33  38
ATOM     36  N   UNL     1      30.630  -2.102 -25.151  0.00  0.00    -0.343 N 
ATOM     37  N   UNL     1      32.527  -2.265 -26.505  0.00  0.00    -0.285 NA
ATOM     38  C   UNL     1      31.859  -2.689 -25.447  0.00  0.00    +0.117 C 
ATOM     39  H   UNL     1      30.276  -1.384 -25.724  0.00  0.00    +0.144 HD
ATOM     40  H   UNL     1      30.114  -2.406 -24.368  0.00  0.00    +0.144 HD
ATOM     41  H   UNL     1      32.157  -1.546 -27.066  0.00  0.00    +0.188 HD
ENDBRANCH  33  38
ENDBRANCH  29  30
ENDBRANCH  24  29
ENDBRANCH  22  24
ENDBRANCH   2  22
TORSDOF 11
ENDMDL
MODEL 8
REMARK VINA RESULT:     -11.0      2.256      4.757
REMARK  Name = 5497056
REMARK  11 active torsions:
REMARK  status: ('A' for Active; 'I' for Inactive)
REMARK    1  A    between atoms: N_2  and  C_22
REMARK    2  A    between atoms: C_3  and  C_5
REMARK    3  A    between atoms: C_8  and  C_11
REMARK    4  A    between atoms: C_13  and  C_17
REMARK    5  A    between atoms: C_17  and  N_18
REMARK    6  A    between atoms: C_22  and  C_24
REMARK    7  A    between atoms: C_24  and  C_26
REMARK    8  A    between atoms: C_24  and  C_29
REMARK    9  A    between atoms: C_26  and  O_27
REMARK   10  A    between atoms: C_29  and  C_30
REMARK   11  A    between atoms: C_33  and  C_38
REMARK                            x       y       z     vdW  Elec       q    Type
REMARK                         _______ _______ _______ _____ _____    ______ ____
ROOT
ATOM      1  O   UNL     1      37.506 -22.074 -16.191  0.00  0.00    -0.270 OA
ATOM      2  N   UNL     1      35.311 -22.767 -15.912  0.00  0.00    -0.302 N 
ATOM      3  C   UNL     1      36.334 -22.086 -16.555  0.00  0.00    +0.246 C 
ATOM      4  H   UNL     1      34.400 -22.714 -16.282  0.00  0.00    +0.150 HD
ENDROOT
BRANCH   3   5
ATOM      5  C   UNL     1      35.938 -21.304 -17.753  0.00  0.00    +0.053 C 
ATOM      6  C   UNL     1      34.806 -21.669 -18.482  0.00  0.00    +0.005 C 
ATOM      7  C   UNL     1      36.697 -20.203 -18.151  0.00  0.00    +0.005 C 
ATOM      8  C   UNL     1      35.193 -19.834 -20.005  0.00  0.00    -0.000 C 
ATOM      9  C   UNL     1      34.434 -20.935 -19.608  0.00  0.00    +0.000 C 
ATOM     10  C   UNL     1      36.325 -19.468 -19.276  0.00  0.00    +0.000 C 
BRANCH   8  11
ATOM     11  C   UNL     1      34.805 -19.072 -21.173  0.00  0.00    -0.000 C 
ATOM     12  C   UNL     1      34.838 -17.678 -21.139  0.00  0.00    -0.006 C 
ATOM     13  C   UNL     1      34.464 -16.945 -22.265  0.00  0.00    -0.044 C 
ATOM     14  C   UNL     1      34.398 -19.733 -22.332  0.00  0.00    -0.000 C 
ATOM     15  C   UNL     1      34.056 -17.606 -23.424  0.00  0.00    -0.006 C 
ATOM     16  C   UNL     1      34.024 -19.000 -23.458  0.00  0.00    -0.000 C 
BRANCH  13  17
ATOM     17  C   UNL     1      34.501 -15.454 -22.230  0.00  0.00    -0.059 C 
BRANCH  17  18
ATOM     18  N   UNL     1      34.523 -14.865 -23.570  0.00  0.00    +0.383 N 
ATOM     19  H   UNL     1      33.928 -15.413 -24.192  0.00  0.00    -0.089 HD
ATOM     20  H   UNL     1      35.479 -14.865 -23.926  0.00  0.00    -0.089 HD
ATOM     21  H   UNL     1      34.178 -13.906 -23.525  0.00  0.00    -0.089 HD
ENDBRANCH  17  18
ENDBRANCH  13  17
ENDBRANCH   8  11
ENDBRANCH   3   5
BRANCH   2  22
ATOM     22  C   UNL     1      35.532 -23.551 -14.719  0.00  0.00    +0.083 C 
ATOM     23  C   UNL     1      35.727 -25.021 -15.085  0.00  0.00    +0.022 C 
BRANCH  22  24
ATOM     24  C   UNL     1      34.422 -23.351 -13.663  0.00  0.00    +0.121 C 
BRANCH  24  26
ATOM     25  O   UNL     1      34.421 -23.212 -11.230  0.00  0.00    -0.250 OA
ATOM     26  C   UNL     1      35.012 -23.048 -12.289  0.00  0.00    +0.319 C 
BRANCH  26  27
ATOM     27  O   UNL     1      36.283 -22.572 -12.429  0.00  0.00    -0.444 OA
ATOM     28  C   UNL     1      37.256 -23.145 -11.549  0.00  0.00    +0.256 C 
ENDBRANCH  26  27
ENDBRANCH  24  26
BRANCH  24  29
ATOM     29  C   UNL     1      33.482 -24.570 -13.574  0.00  0.00    +0.039 C 
BRANCH  29  30
ATOM     30  C   UNL     1      32.048 -24.230 -13.908  0.00  0.00    -0.021 C 
ATOM     31  C   UNL     1      31.758 -23.469 -15.040  0.00  0.00    -0.002 C 
ATOM     32  C   UNL     1      31.015 -24.674 -13.083  0.00  0.00    -0.004 C 
ATOM     33  C   UNL     1      30.434 -23.153 -15.349  0.00  0.00    +0.030 C 
ATOM     34  C   UNL     1      29.691 -24.358 -13.391  0.00  0.00    -0.000 C 
ATOM     35  C   UNL     1      29.400 -23.598 -14.523  0.00  0.00    +0.003 C 
BRANCH  33  38
ATOM     36  N   UNL     1      31.124 -22.008 -17.441  0.00  0.00    -0.343 N 
ATOM     37  N   UNL     1      28.893 -21.954 -16.749  0.00  0.00    -0.285 NA
ATOM     38  C   UNL     1      30.131 -22.359 -16.528  0.00  0.00    +0.117 C 
ATOM     39  H   UNL     1      30.897 -21.469 -18.233  0.00  0.00    +0.144 HD
ATOM     40  H   UNL     1      32.054 -22.298 -17.293  0.00  0.00    +0.144 HD
ATOM     41  H   UNL     1      28.686 -21.416 -17.546  0.00  0.00    +0.188 HD
ENDBRANCH  33  38
ENDBRANCH  29  30
ENDBRANCH  24  29
ENDBRANCH  22  24
ENDBRANCH   2  22
TORSDOF 11
ENDMDL
MODEL 9
REMARK VINA RESULT:     -10.8      1.523      2.062
REMARK  Name = 5497056
REMARK  11 active torsions:
REMARK  status: ('A' for Active; 'I' for Inactive)
REMARK    1  A    between atoms: N_2  and  C_22
REMARK    2  A    between atoms: C_3  and  C_5
REMARK    3  A    between atoms: C_8  and  C_11
REMARK    4  A    between atoms: C_13  and  C_17
REMARK    5  A    between atoms: C_17  and  N_18
REMARK    6  A    between atoms: C_22  and  C_24
REMARK    7  A    between atoms: C_24  and  C_26
REMARK    8  A    between atoms: C_24  and  C_29
REMARK    9  A    between atoms: C_26  and  O_27
REMARK   10  A    between atoms: C_29  and  C_30
REMARK   11  A    between atoms: C_33  and  C_38
REMARK                            x       y       z     vdW  Elec       q    Type
REMARK                         _______ _______ _______ _____ _____    ______ ____
ROOT
ATOM      1  O   UNL     1      33.386 -23.818 -17.930  0.00  0.00    -0.270 OA
ATOM      2  N   UNL     1      31.830 -22.438 -16.905  0.00  0.00    -0.302 N 
ATOM      3  C   UNL     1      32.797 -22.744 -17.851  0.00  0.00    +0.246 C 
ATOM      4  H   UNL     1      31.415 -21.546 -16.924  0.00  0.00    +0.150 HD
ENDROOT
BRANCH   3   5
ATOM      5  C   UNL     1      33.137 -21.658 -18.805  0.00  0.00    +0.053 C 
ATOM      6  C   UNL     1      34.473 -21.382 -19.100  0.00  0.00    +0.005 C 
ATOM      7  C   UNL     1      32.122 -20.914 -19.407  0.00  0.00    +0.005 C 
ATOM      8  C   UNL     1      33.777 -19.618 -20.598  0.00  0.00    -0.000 C 
ATOM      9  C   UNL     1      34.792 -20.361 -19.996  0.00  0.00    +0.000 C 
ATOM     10  C   UNL     1      32.442 -19.894 -20.303  0.00  0.00    +0.000 C 
BRANCH   8  11
ATOM     11  C   UNL     1      34.110 -18.561 -21.528  0.00  0.00    -0.000 C 
ATOM     12  C   UNL     1      34.035 -17.228 -21.126  0.00  0.00    -0.006 C 
ATOM     13  C   UNL     1      34.357 -16.210 -22.023  0.00  0.00    -0.044 C 
ATOM     14  C   UNL     1      34.507 -18.877 -22.828  0.00  0.00    -0.000 C 
ATOM     15  C   UNL     1      34.753 -16.525 -23.323  0.00  0.00    -0.006 C 
ATOM     16  C   UNL     1      34.829 -17.859 -23.725  0.00  0.00    -0.000 C 
BRANCH  13  17
ATOM     17  C   UNL     1      34.278 -14.784 -21.593  0.00  0.00    -0.059 C 
BRANCH  17  18
ATOM     18  N   UNL     1      33.715 -14.637 -20.250  0.00  0.00    +0.383 N 
ATOM     19  H   UNL     1      32.833 -15.147 -20.193  0.00  0.00    -0.089 HD
ATOM     20  H   UNL     1      33.549 -13.649 -20.056  0.00  0.00    -0.089 HD
ATOM     21  H   UNL     1      34.370 -15.013 -19.564  0.00  0.00    -0.089 HD
ENDBRANCH  17  18
ENDBRANCH  13  17
ENDBRANCH   8  11
ENDBRANCH   3   5
BRANCH   2  22
ATOM     22  C   UNL     1      31.409 -23.380 -15.895  0.00  0.00    +0.083 C 
ATOM     23  C   UNL     1      30.099 -22.918 -15.259  0.00  0.00    +0.022 C 
BRANCH  22  24
ATOM     24  C   UNL     1      32.508 -23.653 -14.843  0.00  0.00    +0.121 C 
BRANCH  24  26
ATOM     25  O   UNL     1      31.403 -25.145 -13.264  0.00  0.00    -0.250 OA
ATOM     26  C   UNL     1      31.904 -24.053 -13.501  0.00  0.00    +0.319 C 
BRANCH  26  27
ATOM     27  O   UNL     1      32.009 -23.015 -12.622  0.00  0.00    -0.444 OA
ATOM     28  C   UNL     1      30.786 -22.607 -12.001  0.00  0.00    +0.256 C 
ENDBRANCH  26  27
ENDBRANCH  24  26
BRANCH  24  29
ATOM     29  C   UNL     1      33.444 -22.442 -14.657  0.00  0.00    +0.039 C 
BRANCH  29  30
ATOM     30  C   UNL     1      34.906 -22.808 -14.774  0.00  0.00    -0.021 C 
ATOM     31  C   UNL     1      35.408 -23.903 -14.072  0.00  0.00    -0.002 C 
ATOM     32  C   UNL     1      35.753 -22.048 -15.581  0.00  0.00    -0.004 C 
ATOM     33  C   UNL     1      36.758 -24.240 -14.178  0.00  0.00    +0.030 C 
ATOM     34  C   UNL     1      37.103 -22.385 -15.687  0.00  0.00    -0.000 C 
ATOM     35  C   UNL     1      37.606 -23.480 -14.986  0.00  0.00    +0.003 C 
BRANCH  33  38
ATOM     36  N   UNL     1      38.653 -25.554 -13.258  0.00  0.00    -0.343 N 
ATOM     37  N   UNL     1      36.454 -26.281 -12.946  0.00  0.00    -0.285 NA
ATOM     38  C   UNL     1      37.283 -25.381 -13.446  0.00  0.00    +0.117 C 
ATOM     39  H   UNL     1      38.987 -26.335 -12.760  0.00  0.00    +0.144 HD
ATOM     40  H   UNL     1      39.288 -24.897 -13.626  0.00  0.00    +0.144 HD
ATOM     41  H   UNL     1      36.808 -27.054 -12.451  0.00  0.00    +0.188 HD
ENDBRANCH  33  38
ENDBRANCH  29  30
ENDBRANCH  24  29
ENDBRANCH  22  24
ENDBRANCH   2  22
TORSDOF 11
ENDMDL
