MODEL 1
REMARK VINA RESULT:     -11.8      0.000      0.000
REMARK  Name = 16129582
REMARK  3 active torsions:
REMARK  status: ('A' for Active; 'I' for Inactive)
REMARK    1  A    between atoms: N_2  and  C_13
REMARK    2  A    between atoms: C_6  and  C_23
REMARK    3  A    between atoms: N_12  and  C_20
REMARK                            x       y       z     vdW  Elec       q    Type
REMARK                         _______ _______ _______ _____ _____    ______ ____
ROOT
ATOM      1 CL   UNL     1      33.945 -20.018 -24.380  0.00  0.00    -0.078 Cl
ATOM      2  N   UNL     1      33.229 -14.267 -23.924  0.00  0.00    -0.270 N 
ATOM      3  N   UNL     1      34.173 -16.240 -23.074  0.00  0.00    -0.337 NA
ATOM      4  N   UNL     1      32.805 -16.278 -25.057  0.00  0.00    -0.169 NA
ATOM      5  C   UNL     1      33.407 -15.633 -24.021  0.00  0.00    +0.145 C 
ATOM      6  C   UNL     1      34.325 -17.575 -23.199  0.00  0.00    +0.157 C 
ATOM      7  C   UNL     1      33.757 -18.320 -24.211  0.00  0.00    +0.108 C 
ATOM      8  C   UNL     1      32.999 -17.611 -25.122  0.00  0.00    +0.126 C 
ATOM      9  H   UNL     1      32.679 -13.819 -24.606  0.00  0.00    +0.159 HD
ENDROOT
BRANCH   2  13
ATOM     10  O   UNL     1      31.880  -9.062 -21.855  0.00  0.00    -0.253 OA
ATOM     11  N   UNL     1      31.939 -11.364 -22.132  0.00  0.00    -0.264 N 
ATOM     12  N   UNL     1      30.942 -10.376 -20.227  0.00  0.00    -0.289 N 
ATOM     13  C   UNL     1      33.812 -13.459 -22.871  0.00  0.00    +0.083 C 
ATOM     14  C   UNL     1      33.970 -12.011 -23.354  0.00  0.00    +0.042 C 
ATOM     15  C   UNL     1      32.955 -13.541 -21.600  0.00  0.00    +0.042 C 
ATOM     16  C   UNL     1      32.638 -11.264 -23.416  0.00  0.00    +0.097 C 
ATOM     17  C   UNL     1      31.655 -12.744 -21.717  0.00  0.00    +0.097 C 
ATOM     18  C   UNL     1      31.604 -10.191 -21.434  0.00  0.00    +0.304 C 
ATOM     19  H   UNL     1      30.742 -11.293 -19.929  0.00  0.00    +0.151 HD
BRANCH  12  20
ATOM     20  C   UNL     1      30.538  -9.266 -19.394  0.00  0.00    +0.091 C 
ATOM     21  C   UNL     1      31.633  -8.870 -18.427  0.00  0.00    +0.023 C 
ENDBRANCH  12  20
ENDBRANCH   2  13
BRANCH   6  23
ATOM     22  N   UNL     1      36.955 -18.596 -20.974  0.00  0.00    -0.311 N 
ATOM     23  C   UNL     1      35.140 -18.174 -22.177  0.00  0.00    +0.047 C 
ATOM     24  C   UNL     1      34.798 -19.128 -21.182  0.00  0.00    +0.017 C 
ATOM     25  C   UNL     1      35.954 -19.378 -20.439  0.00  0.00    +0.048 C 
ATOM     26  C   UNL     1      36.470 -17.865 -22.025  0.00  0.00    +0.065 C 
ATOM     27  C   UNL     1      33.613 -19.809 -20.838  0.00  0.00    +0.001 C 
ATOM     28  C   UNL     1      35.985 -20.275 -19.366  0.00  0.00    +0.015 C 
ATOM     29  C   UNL     1      33.628 -20.711 -19.768  0.00  0.00    +0.000 C 
ATOM     30  C   UNL     1      34.798 -20.938 -19.045  0.00  0.00    +0.001 C 
ATOM     31  H   UNL     1      37.882 -18.567 -20.647  0.00  0.00    +0.152 HD
ENDBRANCH   6  23
TORSDOF 3
ENDMDL
MODEL 2
REMARK VINA RESULT:     -10.1      4.799      7.313
REMARK  Name = 16129582
REMARK  3 active torsions:
REMARK  status: ('A' for Active; 'I' for Inactive)
REMARK    1  A    between atoms: N_2  and  C_13
REMARK    2  A    between atoms: C_6  and  C_23
REMARK    3  A    between atoms: N_12  and  C_20
REMARK                            x       y       z     vdW  Elec       q    Type
REMARK                         _______ _______ _______ _____ _____    ______ ____
ROOT
ATOM      1 CL   UNL     1      31.626 -13.356 -20.236  0.00  0.00    -0.078 Cl
ATOM      2  N   UNL     1      31.767  -8.022 -22.542  0.00  0.00    -0.270 N 
ATOM      3  N   UNL     1      32.133 -10.324 -22.802  0.00  0.00    -0.337 NA
ATOM      4  N   UNL     1      31.316  -9.429 -20.720  0.00  0.00    -0.169 NA
ATOM      5  C   UNL     1      31.738  -9.294 -22.006  0.00  0.00    +0.145 C 
ATOM      6  C   UNL     1      32.093 -11.554 -22.246  0.00  0.00    +0.157 C 
ATOM      7  C   UNL     1      31.682 -11.797 -20.952  0.00  0.00    +0.108 C 
ATOM      8  C   UNL     1      31.300 -10.685 -20.228  0.00  0.00    +0.126 C 
ATOM      9  H   UNL     1      31.480  -7.270 -21.975  0.00  0.00    +0.159 HD
ENDROOT
BRANCH   2  13
ATOM     10  O   UNL     1      31.137  -3.378 -25.895  0.00  0.00    -0.253 OA
ATOM     11  N   UNL     1      32.032  -4.872 -24.363  0.00  0.00    -0.264 N 
ATOM     12  N   UNL     1      33.306  -3.073 -25.220  0.00  0.00    -0.289 N 
ATOM     13  C   UNL     1      32.196  -7.735 -23.897  0.00  0.00    +0.083 C 
ATOM     14  C   UNL     1      31.044  -7.099 -24.684  0.00  0.00    +0.042 C 
ATOM     15  C   UNL     1      33.438  -6.833 -23.883  0.00  0.00    +0.042 C 
ATOM     16  C   UNL     1      30.790  -5.645 -24.282  0.00  0.00    +0.097 C 
ATOM     17  C   UNL     1      33.108  -5.388 -23.508  0.00  0.00    +0.097 C 
ATOM     18  C   UNL     1      32.093  -3.748 -25.204  0.00  0.00    +0.304 C 
ATOM     19  H   UNL     1      34.042  -3.401 -24.655  0.00  0.00    +0.151 HD
BRANCH  12  20
ATOM     20  C   UNL     1      33.524  -1.901 -26.041  0.00  0.00    +0.091 C 
ATOM     21  C   UNL     1      34.636  -2.125 -27.043  0.00  0.00    +0.023 C 
ENDBRANCH  12  20
ENDBRANCH   2  13
BRANCH   6  23
ATOM     22  N   UNL     1      32.791 -13.734 -25.015  0.00  0.00    -0.311 N 
ATOM     23  C   UNL     1      32.520 -12.611 -23.122  0.00  0.00    +0.047 C 
ATOM     24  C   UNL     1      33.244 -13.798 -22.831  0.00  0.00    +0.017 C 
ATOM     25  C   UNL     1      33.401 -14.487 -24.036  0.00  0.00    +0.048 C 
ATOM     26  C   UNL     1      32.255 -12.598 -24.470  0.00  0.00    +0.065 C 
ATOM     27  C   UNL     1      33.784 -14.358 -21.656  0.00  0.00    +0.001 C 
ATOM     28  C   UNL     1      34.074 -15.711 -24.125  0.00  0.00    +0.015 C 
ATOM     29  C   UNL     1      34.458 -15.582 -21.729  0.00  0.00    +0.000 C 
ATOM     30  C   UNL     1      34.600 -16.246 -22.946  0.00  0.00    +0.001 C 
ATOM     31  H   UNL     1      32.746 -13.978 -25.967  0.00  0.00    +0.152 HD
ENDBRANCH   6  23
TORSDOF 3
ENDMDL
MODEL 3
REMARK VINA RESULT:      -8.8      4.715     10.382
REMARK  Name = 16129582
REMARK  3 active torsions:
REMARK  status: ('A' for Active; 'I' for Inactive)
REMARK    1  A    between atoms: N_2  and  C_13
REMARK    2  A    between atoms: C_6  and  C_23
REMARK    3  A    between atoms: N_12  and  C_20
REMARK                            x       y       z     vdW  Elec       q    Type
REMARK                         _______ _______ _______ _____ _____    ______ ____
ROOT
ATOM      1 CL   UNL     1      29.964  -6.297 -22.936  0.00  0.00    -0.078 Cl
ATOM      2  N   UNL     1      32.014 -11.672 -22.103  0.00  0.00    -0.270 N 
ATOM      3  N   UNL     1      32.437  -9.435 -22.666  0.00  0.00    -0.337 NA
ATOM      4  N   UNL     1      30.209 -10.175 -22.126  0.00  0.00    -0.169 NA
ATOM      5  C   UNL     1      31.540 -10.391 -22.304  0.00  0.00    +0.145 C 
ATOM      6  C   UNL     1      31.939  -8.194 -22.854  0.00  0.00    +0.157 C 
ATOM      7  C   UNL     1      30.607  -7.871 -22.700  0.00  0.00    +0.108 C 
ATOM      8  C   UNL     1      29.779  -8.912 -22.330  0.00  0.00    +0.126 C 
ATOM      9  H   UNL     1      31.373 -12.372 -21.839  0.00  0.00    +0.159 HD
ENDROOT
BRANCH   2  13
ATOM     10  O   UNL     1      34.945 -16.411 -20.633  0.00  0.00    -0.253 OA
ATOM     11  N   UNL     1      33.683 -14.908 -21.870  0.00  0.00    -0.264 N 
ATOM     12  N   UNL     1      34.660 -16.815 -22.872  0.00  0.00    -0.289 N 
ATOM     13  C   UNL     1      33.407 -12.042 -22.261  0.00  0.00    +0.083 C 
ATOM     14  C   UNL     1      33.938 -12.643 -20.953  0.00  0.00    +0.042 C 
ATOM     15  C   UNL     1      33.571 -13.015 -23.437  0.00  0.00    +0.042 C 
ATOM     16  C   UNL     1      33.419 -14.060 -20.705  0.00  0.00    +0.097 C 
ATOM     17  C   UNL     1      33.066 -14.420 -23.110  0.00  0.00    +0.097 C 
ATOM     18  C   UNL     1      34.460 -16.069 -21.718  0.00  0.00    +0.304 C 
ATOM     19  H   UNL     1      34.256 -16.507 -23.715  0.00  0.00    +0.151 HD
BRANCH  12  20
ATOM     20  C   UNL     1      35.442 -18.032 -22.875  0.00  0.00    +0.091 C 
ATOM     21  C   UNL     1      34.558 -19.260 -22.857  0.00  0.00    +0.023 C 
ENDBRANCH  12  20
ENDBRANCH   2  13
BRANCH   6  23
ATOM     22  N   UNL     1      34.712  -5.919 -23.064  0.00  0.00    -0.311 N 
ATOM     23  C   UNL     1      32.922  -7.217 -23.236  0.00  0.00    +0.047 C 
ATOM     24  C   UNL     1      33.037  -6.462 -24.434  0.00  0.00    +0.017 C 
ATOM     25  C   UNL     1      34.169  -5.654 -24.302  0.00  0.00    +0.048 C 
ATOM     26  C   UNL     1      33.963  -6.863 -22.413  0.00  0.00    +0.065 C 
ATOM     27  C   UNL     1      32.286  -6.384 -25.625  0.00  0.00    +0.001 C 
ATOM     28  C   UNL     1      34.590  -4.771 -25.302  0.00  0.00    +0.015 C 
ATOM     29  C   UNL     1      32.694  -5.505 -26.634  0.00  0.00    +0.000 C 
ATOM     30  C   UNL     1      33.829  -4.712 -26.473  0.00  0.00    +0.001 C 
ATOM     31  H   UNL     1      35.521  -5.492 -22.700  0.00  0.00    +0.152 HD
ENDBRANCH   6  23
TORSDOF 3
ENDMDL
