MODEL 1
REMARK VINA RESULT:     -12.9      0.000      0.000
REMARK  Name = 3559
REMARK  7 active torsions:
REMARK  status: ('A' for Active; 'I' for Inactive)
REMARK    1  A    between atoms: N_1  and  C_17
REMARK    2  A    between atoms: C_2  and  C_9
REMARK    3  A    between atoms: C_2  and  O_15
REMARK    4  A    between atoms: C_17  and  C_18
REMARK    5  A    between atoms: C_18  and  C_19
REMARK    6  A    between atoms: C_19  and  C_21
REMARK    7  A    between atoms: C_21  and  C_23
REMARK                            x       y       z     vdW  Elec       q    Type
REMARK                         _______ _______ _______ _____ _____    ______ ____
ROOT
ATOM      1  N   UNL     1      34.831 -19.952 -19.970  0.00  0.00    +0.387 N 
ATOM      2  C   UNL     1      33.391 -22.021 -18.399  0.00  0.00    +0.103 C 
ATOM      3  C   UNL     1      32.692 -20.849 -19.124  0.00  0.00    +0.008 C 
ATOM      4  C   UNL     1      34.866 -21.634 -18.145  0.00  0.00    +0.008 C 
ATOM      5  C   UNL     1      33.471 -20.348 -20.346  0.00  0.00    -0.075 C 
ATOM      6  C   UNL     1      35.570 -21.080 -19.391  0.00  0.00    -0.075 C 
ATOM      7  H   UNL     1      34.762 -19.224 -19.259  0.00  0.00    -0.080 HD
ENDROOT
BRANCH   2   9
ATOM      8 CL   UNL     1      30.752 -23.771 -13.258  0.00  0.00    -0.082 Cl
ATOM      9  C   UNL     1      32.723 -22.466 -17.098  0.00  0.00    +0.002 C 
ATOM     10  C   UNL     1      31.342 -22.343 -16.947  0.00  0.00    -0.001 C 
ATOM     11  C   UNL     1      33.494 -22.992 -16.063  0.00  0.00    -0.001 C 
ATOM     12  C   UNL     1      30.732 -22.748 -15.759  0.00  0.00    +0.011 C 
ATOM     13  C   UNL     1      32.885 -23.397 -14.876  0.00  0.00    +0.011 C 
ATOM     14  C   UNL     1      31.504 -23.274 -14.724  0.00  0.00    +0.058 C 
ENDBRANCH   2   9
BRANCH   2  15
ATOM     15  O   UNL     1      33.339 -23.165 -19.265  0.00  0.00    -0.383 OA
ATOM     16  H   UNL     1      34.226 -23.552 -19.343  0.00  0.00    +0.211 HD
ENDBRANCH   2  15
BRANCH   1  17
ATOM     17  C   UNL     1      35.546 -19.410 -21.126  0.00  0.00    -0.077 C 
BRANCH  17  18
ATOM     18  C   UNL     1      34.551 -18.933 -22.186  0.00  0.00    -0.015 C 
BRANCH  18  19
ATOM     19  C   UNL     1      34.816 -17.489 -22.622  0.00  0.00    +0.067 C 
BRANCH  19  21
ATOM     20  O   UNL     1      34.933 -16.737 -20.331  0.00  0.00    -0.291 OA
ATOM     21  C   UNL     1      34.645 -16.477 -21.498  0.00  0.00    +0.173 C 
BRANCH  21  23
ATOM     22  F   UNL     1      32.723 -11.387 -22.750  0.00  0.00    -0.204 F 
ATOM     23  C   UNL     1      34.134 -15.117 -21.832  0.00  0.00    +0.035 C 
ATOM     24  C   UNL     1      34.106 -14.729 -23.152  0.00  0.00    +0.005 C 
ATOM     25  C   UNL     1      33.706 -14.302 -20.808  0.00  0.00    +0.005 C 
ATOM     26  C   UNL     1      33.625 -13.457 -23.465  0.00  0.00    +0.030 C 
ATOM     27  C   UNL     1      33.225 -13.031 -21.120  0.00  0.00    +0.030 C 
ATOM     28  C   UNL     1      33.184 -12.608 -22.450  0.00  0.00    +0.140 C 
ENDBRANCH  21  23
ENDBRANCH  19  21
ENDBRANCH  18  19
ENDBRANCH  17  18
ENDBRANCH   1  17
TORSDOF 7
ENDMDL
MODEL 2
REMARK VINA RESULT:     -12.3      5.250     10.445
REMARK  Name = 3559
REMARK  7 active torsions:
REMARK  status: ('A' for Active; 'I' for Inactive)
REMARK    1  A    between atoms: N_1  and  C_17
REMARK    2  A    between atoms: C_2  and  C_9
REMARK    3  A    between atoms: C_2  and  O_15
REMARK    4  A    between atoms: C_17  and  C_18
REMARK    5  A    between atoms: C_18  and  C_19
REMARK    6  A    between atoms: C_19  and  C_21
REMARK    7  A    between atoms: C_21  and  C_23
REMARK                            x       y       z     vdW  Elec       q    Type
REMARK                         _______ _______ _______ _____ _____    ______ ____
ROOT
ATOM      1  N   UNL     1      34.144 -14.338 -22.485  0.00  0.00    +0.387 N 
ATOM      2  C   UNL     1      32.189 -12.121 -22.185  0.00  0.00    +0.103 C 
ATOM      3  C   UNL     1      32.916 -12.455 -23.507  0.00  0.00    +0.008 C 
ATOM      4  C   UNL     1      33.017 -12.690 -21.010  0.00  0.00    +0.008 C 
ATOM      5  C   UNL     1      33.309 -13.932 -23.621  0.00  0.00    -0.075 C 
ATOM      6  C   UNL     1      33.434 -14.153 -21.215  0.00  0.00    -0.075 C 
ATOM      7  H   UNL     1      34.971 -13.742 -22.473  0.00  0.00    -0.080 HD
ENDROOT
BRANCH   2   9
ATOM      8 CL   UNL     1      31.044  -6.257 -21.316  0.00  0.00    -0.082 Cl
ATOM      9  C   UNL     1      31.898 -10.636 -21.965  0.00  0.00    +0.002 C 
ATOM     10  C   UNL     1      32.166  -9.717 -22.979  0.00  0.00    -0.001 C 
ATOM     11  C   UNL     1      31.366 -10.203 -20.752  0.00  0.00    -0.001 C 
ATOM     12  C   UNL     1      31.901  -8.362 -22.778  0.00  0.00    +0.011 C 
ATOM     13  C   UNL     1      31.101  -8.849 -20.551  0.00  0.00    +0.011 C 
ATOM     14  C   UNL     1      31.369  -7.929 -21.565  0.00  0.00    +0.058 C 
ENDBRANCH   2   9
BRANCH   2  15
ATOM     15  O   UNL     1      30.905 -12.761 -22.219  0.00  0.00    -0.383 OA
ATOM     16  H   UNL     1      30.849 -13.412 -21.502  0.00  0.00    +0.211 HD
ENDBRANCH   2  15
BRANCH   1  17
ATOM     17  C   UNL     1      34.573 -15.729 -22.635  0.00  0.00    -0.077 C 
BRANCH  17  18
ATOM     18  C   UNL     1      34.585 -16.427 -21.273  0.00  0.00    -0.015 C 
BRANCH  18  19
ATOM     19  C   UNL     1      35.407 -17.719 -21.290  0.00  0.00    +0.067 C 
BRANCH  19  21
ATOM     20  O   UNL     1      34.145 -19.194 -22.724  0.00  0.00    -0.291 OA
ATOM     21  C   UNL     1      34.579 -18.957 -21.599  0.00  0.00    +0.173 C 
BRANCH  21  23
ATOM     22  F   UNL     1      33.559 -22.593 -17.486  0.00  0.00    -0.204 F 
ATOM     23  C   UNL     1      34.306 -19.927 -20.499  0.00  0.00    +0.035 C 
ATOM     24  C   UNL     1      32.999 -20.180 -20.152  0.00  0.00    +0.005 C 
ATOM     25  C   UNL     1      35.373 -20.535 -19.874  0.00  0.00    +0.005 C 
ATOM     26  C   UNL     1      32.744 -21.089 -19.124  0.00  0.00    +0.030 C 
ATOM     27  C   UNL     1      35.118 -21.443 -18.848  0.00  0.00    +0.030 C 
ATOM     28  C   UNL     1      33.803 -21.721 -18.472  0.00  0.00    +0.140 C 
ENDBRANCH  21  23
ENDBRANCH  19  21
ENDBRANCH  18  19
ENDBRANCH  17  18
ENDBRANCH   1  17
TORSDOF 7
ENDMDL
MODEL 3
REMARK VINA RESULT:     -12.1      3.012      5.175
REMARK  Name = 3559
REMARK  7 active torsions:
REMARK  status: ('A' for Active; 'I' for Inactive)
REMARK    1  A    between atoms: N_1  and  C_17
REMARK    2  A    between atoms: C_2  and  C_9
REMARK    3  A    between atoms: C_2  and  O_15
REMARK    4  A    between atoms: C_17  and  C_18
REMARK    5  A    between atoms: C_18  and  C_19
REMARK    6  A    between atoms: C_19  and  C_21
REMARK    7  A    between atoms: C_21  and  C_23
REMARK                            x       y       z     vdW  Elec       q    Type
REMARK                         _______ _______ _______ _____ _____    ______ ____
ROOT
ATOM      1  N   UNL     1      33.800 -15.983 -23.222  0.00  0.00    +0.387 N 
ATOM      2  C   UNL     1      34.699 -18.357 -21.680  0.00  0.00    +0.103 C 
ATOM      3  C   UNL     1      33.956 -18.439 -23.033  0.00  0.00    +0.008 C 
ATOM      4  C   UNL     1      34.390 -16.988 -21.031  0.00  0.00    +0.008 C 
ATOM      5  C   UNL     1      34.188 -17.212 -23.921  0.00  0.00    -0.075 C 
ATOM      6  C   UNL     1      34.579 -15.807 -21.991  0.00  0.00    -0.075 C 
ATOM      7  H   UNL     1      32.817 -16.064 -22.963  0.00  0.00    -0.080 HD
ENDROOT
BRANCH   2   9
ATOM      8 CL   UNL     1      33.484 -22.850 -17.833  0.00  0.00    -0.082 Cl
ATOM      9  C   UNL     1      34.391 -19.494 -20.704  0.00  0.00    +0.002 C 
ATOM     10  C   UNL     1      35.434 -20.195 -20.101  0.00  0.00    -0.001 C 
ATOM     11  C   UNL     1      33.068 -19.829 -20.420  0.00  0.00    -0.001 C 
ATOM     12  C   UNL     1      35.153 -21.233 -19.212  0.00  0.00    +0.011 C 
ATOM     13  C   UNL     1      32.787 -20.866 -19.532  0.00  0.00    +0.011 C 
ATOM     14  C   UNL     1      33.830 -21.568 -18.928  0.00  0.00    +0.058 C 
ENDBRANCH   2   9
BRANCH   2  15
ATOM     15  O   UNL     1      36.106 -18.453 -21.946  0.00  0.00    -0.383 OA
ATOM     16  H   UNL     1      36.245 -18.615 -22.893  0.00  0.00    +0.211 HD
ENDBRANCH   2  15
BRANCH   1  17
ATOM     17  C   UNL     1      33.958 -14.822 -24.099  0.00  0.00    -0.077 C 
BRANCH  17  18
ATOM     18  C   UNL     1      33.833 -13.529 -23.290  0.00  0.00    -0.015 C 
BRANCH  18  19
ATOM     19  C   UNL     1      32.387 -13.030 -23.212  0.00  0.00    +0.067 C 
BRANCH  19  21
ATOM     20  O   UNL     1      31.899 -13.297 -20.863  0.00  0.00    -0.291 OA
ATOM     21  C   UNL     1      31.992 -12.540 -21.826  0.00  0.00    +0.173 C 
BRANCH  21  23
ATOM     22  F   UNL     1      31.014  -7.092 -21.095  0.00  0.00    -0.204 F 
ATOM     23  C   UNL     1      31.733 -11.085 -21.631  0.00  0.00    +0.035 C 
ATOM     24  C   UNL     1      31.983 -10.223 -22.674  0.00  0.00    +0.005 C 
ATOM     25  C   UNL     1      31.250 -10.657 -20.413  0.00  0.00    +0.005 C 
ATOM     26  C   UNL     1      31.738  -8.862 -22.492  0.00  0.00    +0.030 C 
ATOM     27  C   UNL     1      31.005  -9.296 -20.231  0.00  0.00    +0.030 C 
ATOM     28  C   UNL     1      31.249  -8.398 -21.271  0.00  0.00    +0.140 C 
ENDBRANCH  21  23
ENDBRANCH  19  21
ENDBRANCH  18  19
ENDBRANCH  17  18
ENDBRANCH   1  17
TORSDOF 7
ENDMDL
MODEL 4
REMARK VINA RESULT:     -11.8      4.635      9.582
REMARK  Name = 3559
REMARK  7 active torsions:
REMARK  status: ('A' for Active; 'I' for Inactive)
REMARK    1  A    between atoms: N_1  and  C_17
REMARK    2  A    between atoms: C_2  and  C_9
REMARK    3  A    between atoms: C_2  and  O_15
REMARK    4  A    between atoms: C_17  and  C_18
REMARK    5  A    between atoms: C_18  and  C_19
REMARK    6  A    between atoms: C_19  and  C_21
REMARK    7  A    between atoms: C_21  and  C_23
REMARK                            x       y       z     vdW  Elec       q    Type
REMARK                         _______ _______ _______ _____ _____    ______ ____
ROOT
ATOM      1  N   UNL     1      35.217 -19.995 -19.613  0.00  0.00    +0.387 N 
ATOM      2  C   UNL     1      34.796 -18.073 -21.839  0.00  0.00    +0.103 C 
ATOM      3  C   UNL     1      36.099 -18.162 -21.012  0.00  0.00    +0.008 C 
ATOM      4  C   UNL     1      33.642 -18.674 -21.005  0.00  0.00    +0.008 C 
ATOM      5  C   UNL     1      36.351 -19.560 -20.435  0.00  0.00    -0.075 C 
ATOM      6  C   UNL     1      33.981 -20.044 -20.402  0.00  0.00    -0.075 C 
ATOM      7  H   UNL     1      35.087 -19.312 -18.868  0.00  0.00    -0.080 HD
ENDROOT
BRANCH   2   9
ATOM      8 CL   UNL     1      33.356 -12.527 -23.744  0.00  0.00    -0.082 Cl
ATOM      9  C   UNL     1      34.433 -16.668 -22.321  0.00  0.00    +0.002 C 
ATOM     10  C   UNL     1      34.284 -15.632 -21.400  0.00  0.00    -0.001 C 
ATOM     11  C   UNL     1      34.250 -16.425 -23.682  0.00  0.00    -0.001 C 
ATOM     12  C   UNL     1      33.951 -14.351 -21.840  0.00  0.00    +0.011 C 
ATOM     13  C   UNL     1      33.918 -15.144 -24.122  0.00  0.00    +0.011 C 
ATOM     14  C   UNL     1      33.768 -14.107 -23.201  0.00  0.00    +0.058 C 
ENDBRANCH   2   9
BRANCH   2  15
ATOM     15  O   UNL     1      34.981 -18.850 -23.031  0.00  0.00    -0.383 OA
ATOM     16  H   UNL     1      35.352 -18.288 -23.730  0.00  0.00    +0.211 HD
ENDBRANCH   2  15
BRANCH   1  17
ATOM     17  C   UNL     1      35.492 -21.299 -19.009  0.00  0.00    -0.077 C 
BRANCH  17  18
ATOM     18  C   UNL     1      34.209 -22.130 -18.940  0.00  0.00    -0.015 C 
BRANCH  18  19
ATOM     19  C   UNL     1      33.772 -22.406 -17.499  0.00  0.00    +0.067 C 
BRANCH  19  21
ATOM     20  O   UNL     1      31.546 -21.706 -18.116  0.00  0.00    -0.291 OA
ATOM     21  C   UNL     1      32.278 -22.223 -17.275  0.00  0.00    +0.173 C 
BRANCH  21  23
ATOM     22  F   UNL     1      30.046 -24.058 -12.498  0.00  0.00    -0.204 F 
ATOM     23  C   UNL     1      31.682 -22.711 -15.999  0.00  0.00    +0.035 C 
ATOM     24  C   UNL     1      30.311 -22.727 -15.873  0.00  0.00    +0.005 C 
ATOM     25  C   UNL     1      32.525 -23.131 -14.993  0.00  0.00    +0.005 C 
ATOM     26  C   UNL     1      29.753 -23.185 -14.680  0.00  0.00    +0.030 C 
ATOM     27  C   UNL     1      31.968 -23.590 -13.800  0.00  0.00    +0.030 C 
ATOM     28  C   UNL     1      30.581 -23.618 -13.643  0.00  0.00    +0.140 C 
ENDBRANCH  21  23
ENDBRANCH  19  21
ENDBRANCH  18  19
ENDBRANCH  17  18
ENDBRANCH   1  17
TORSDOF 7
ENDMDL
MODEL 5
REMARK VINA RESULT:     -11.4      5.989     10.875
REMARK  Name = 3559
REMARK  7 active torsions:
REMARK  status: ('A' for Active; 'I' for Inactive)
REMARK    1  A    between atoms: N_1  and  C_17
REMARK    2  A    between atoms: C_2  and  C_9
REMARK    3  A    between atoms: C_2  and  O_15
REMARK    4  A    between atoms: C_17  and  C_18
REMARK    5  A    between atoms: C_18  and  C_19
REMARK    6  A    between atoms: C_19  and  C_21
REMARK    7  A    between atoms: C_21  and  C_23
REMARK                            x       y       z     vdW  Elec       q    Type
REMARK                         _______ _______ _______ _____ _____    ______ ____
ROOT
ATOM      1  N   UNL     1      33.190 -13.103 -21.777  0.00  0.00    +0.387 N 
ATOM      2  C   UNL     1      31.490 -10.669 -21.670  0.00  0.00    +0.103 C 
ATOM      3  C   UNL     1      32.402 -11.031 -22.864  0.00  0.00    +0.008 C 
ATOM      4  C   UNL     1      32.016 -11.395 -20.411  0.00  0.00    +0.008 C 
ATOM      5  C   UNL     1      32.631 -12.540 -23.010  0.00  0.00    -0.075 C 
ATOM      6  C   UNL     1      32.287 -12.888 -20.641  0.00  0.00    -0.075 C 
ATOM      7  H   UNL     1      34.066 -12.619 -21.577  0.00  0.00    -0.080 HD
ENDROOT
BRANCH   2   9
ATOM      8 CL   UNL     1      30.907  -4.753 -20.613  0.00  0.00    -0.082 Cl
ATOM      9  C   UNL     1      31.341  -9.172 -21.402  0.00  0.00    +0.002 C 
ATOM     10  C   UNL     1      31.025  -8.305 -22.448  0.00  0.00    -0.001 C 
ATOM     11  C   UNL     1      31.521  -8.673 -20.113  0.00  0.00    -0.001 C 
ATOM     12  C   UNL     1      30.891  -6.938 -22.203  0.00  0.00    +0.011 C 
ATOM     13  C   UNL     1      31.387  -7.307 -19.869  0.00  0.00    +0.011 C 
ATOM     14  C   UNL     1      31.071  -6.440 -20.914  0.00  0.00    +0.058 C 
ENDBRANCH   2   9
BRANCH   2  15
ATOM     15  O   UNL     1      30.167 -11.136 -21.973  0.00  0.00    -0.383 OA
ATOM     16  H   UNL     1      29.525 -10.432 -21.789  0.00  0.00    +0.211 HD
ENDBRANCH   2  15
BRANCH   1  17
ATOM     17  C   UNL     1      33.472 -14.529 -21.945  0.00  0.00    -0.077 C 
BRANCH  17  18
ATOM     18  C   UNL     1      33.469 -14.896 -23.430  0.00  0.00    -0.015 C 
BRANCH  18  19
ATOM     19  C   UNL     1      34.585 -15.882 -23.787  0.00  0.00    +0.067 C 
BRANCH  19  21
ATOM     20  O   UNL     1      33.443 -17.893 -24.483  0.00  0.00    -0.291 OA
ATOM     21  C   UNL     1      34.166 -17.340 -23.657  0.00  0.00    +0.173 C 
BRANCH  21  23
ATOM     22  F   UNL     1      36.057 -20.283 -19.306  0.00  0.00    -0.204 F 
ATOM     23  C   UNL     1      34.672 -18.127 -22.496  0.00  0.00    +0.035 C 
ATOM     24  C   UNL     1      35.963 -17.917 -22.068  0.00  0.00    +0.005 C 
ATOM     25  C   UNL     1      33.827 -19.034 -21.893  0.00  0.00    +0.005 C 
ATOM     26  C   UNL     1      36.436 -18.652 -20.981  0.00  0.00    +0.030 C 
ATOM     27  C   UNL     1      34.299 -19.769 -20.806  0.00  0.00    +0.030 C 
ATOM     28  C   UNL     1      35.604 -19.578 -20.349  0.00  0.00    +0.140 C 
ENDBRANCH  21  23
ENDBRANCH  19  21
ENDBRANCH  18  19
ENDBRANCH  17  18
ENDBRANCH   1  17
TORSDOF 7
ENDMDL
MODEL 6
REMARK VINA RESULT:     -11.3      5.351     10.223
REMARK  Name = 3559
REMARK  7 active torsions:
REMARK  status: ('A' for Active; 'I' for Inactive)
REMARK    1  A    between atoms: N_1  and  C_17
REMARK    2  A    between atoms: C_2  and  C_9
REMARK    3  A    between atoms: C_2  and  O_15
REMARK    4  A    between atoms: C_17  and  C_18
REMARK    5  A    between atoms: C_18  and  C_19
REMARK    6  A    between atoms: C_19  and  C_21
REMARK    7  A    between atoms: C_21  and  C_23
REMARK                            x       y       z     vdW  Elec       q    Type
REMARK                         _______ _______ _______ _____ _____    ______ ____
ROOT
ATOM      1  N   UNL     1      35.307 -20.083 -19.481  0.00  0.00    +0.387 N 
ATOM      2  C   UNL     1      34.836 -18.220 -21.746  0.00  0.00    +0.103 C 
ATOM      3  C   UNL     1      36.154 -18.283 -20.943  0.00  0.00    +0.008 C 
ATOM      4  C   UNL     1      33.700 -18.805 -20.875  0.00  0.00    +0.008 C 
ATOM      5  C   UNL     1      36.423 -19.665 -20.335  0.00  0.00    -0.075 C 
ATOM      6  C   UNL     1      34.056 -20.157 -20.244  0.00  0.00    -0.075 C 
ATOM      7  H   UNL     1      35.188 -19.382 -18.751  0.00  0.00    -0.080 HD
ENDROOT
BRANCH   2   9
ATOM      8 CL   UNL     1      33.347 -12.728 -23.766  0.00  0.00    -0.082 Cl
ATOM      9  C   UNL     1      34.457 -16.830 -22.257  0.00  0.00    +0.002 C 
ATOM     10  C   UNL     1      34.277 -16.615 -23.623  0.00  0.00    -0.001 C 
ATOM     11  C   UNL     1      34.293 -15.778 -21.358  0.00  0.00    -0.001 C 
ATOM     12  C   UNL     1      33.933 -15.346 -24.090  0.00  0.00    +0.011 C 
ATOM     13  C   UNL     1      33.949 -14.509 -21.824  0.00  0.00    +0.011 C 
ATOM     14  C   UNL     1      33.769 -14.294 -23.190  0.00  0.00    +0.058 C 
ENDBRANCH   2   9
BRANCH   2  15
ATOM     15  O   UNL     1      35.000 -19.027 -22.922  0.00  0.00    -0.383 OA
ATOM     16  H   UNL     1      34.147 -19.418 -23.168  0.00  0.00    +0.211 HD
ENDBRANCH   2  15
BRANCH   1  17
ATOM     17  C   UNL     1      35.599 -21.371 -18.849  0.00  0.00    -0.077 C 
BRANCH  17  18
ATOM     18  C   UNL     1      36.324 -21.154 -17.519  0.00  0.00    -0.015 C 
BRANCH  18  19
ATOM     19  C   UNL     1      35.780 -22.056 -16.408  0.00  0.00    +0.067 C 
BRANCH  19  21
ATOM     20  O   UNL     1      38.055 -22.490 -15.725  0.00  0.00    -0.291 OA
ATOM     21  C   UNL     1      36.858 -22.556 -15.456  0.00  0.00    +0.173 C 
BRANCH  21  23
ATOM     22  F   UNL     1      35.301 -24.671 -10.528  0.00  0.00    -0.204 F 
ATOM     23  C   UNL     1      36.442 -23.123 -14.141  0.00  0.00    +0.035 C 
ATOM     24  C   UNL     1      37.386 -23.760 -13.368  0.00  0.00    +0.005 C 
ATOM     25  C   UNL     1      35.129 -22.985 -13.747  0.00  0.00    +0.005 C 
ATOM     26  C   UNL     1      36.997 -24.288 -12.136  0.00  0.00    +0.030 C 
ATOM     27  C   UNL     1      34.740 -23.512 -12.516  0.00  0.00    +0.030 C 
ATOM     28  C   UNL     1      35.674 -24.164 -11.710  0.00  0.00    +0.140 C 
ENDBRANCH  21  23
ENDBRANCH  19  21
ENDBRANCH  18  19
ENDBRANCH  17  18
ENDBRANCH   1  17
TORSDOF 7
ENDMDL
MODEL 7
REMARK VINA RESULT:     -11.3      4.364      9.291
REMARK  Name = 3559
REMARK  7 active torsions:
REMARK  status: ('A' for Active; 'I' for Inactive)
REMARK    1  A    between atoms: N_1  and  C_17
REMARK    2  A    between atoms: C_2  and  C_9
REMARK    3  A    between atoms: C_2  and  O_15
REMARK    4  A    between atoms: C_17  and  C_18
REMARK    5  A    between atoms: C_18  and  C_19
REMARK    6  A    between atoms: C_19  and  C_21
REMARK    7  A    between atoms: C_21  and  C_23
REMARK                            x       y       z     vdW  Elec       q    Type
REMARK                         _______ _______ _______ _____ _____    ______ ____
ROOT
ATOM      1  N   UNL     1      35.415 -20.002 -19.799  0.00  0.00    +0.387 N 
ATOM      2  C   UNL     1      34.849 -17.986 -21.906  0.00  0.00    +0.103 C 
ATOM      3  C   UNL     1      36.205 -18.109 -21.174  0.00  0.00    +0.008 C 
ATOM      4  C   UNL     1      33.753 -18.624 -21.023  0.00  0.00    +0.008 C 
ATOM      5  C   UNL     1      36.492 -19.530 -20.676  0.00  0.00    -0.075 C 
ATOM      6  C   UNL     1      34.129 -20.018 -20.503  0.00  0.00    -0.075 C 
ATOM      7  H   UNL     1      35.337 -19.351 -19.017  0.00  0.00    -0.080 HD
ENDROOT
BRANCH   2   9
ATOM      8 CL   UNL     1      33.305 -12.362 -23.472  0.00  0.00    -0.082 Cl
ATOM      9  C   UNL     1      34.457 -16.562 -22.302  0.00  0.00    +0.002 C 
ATOM     10  C   UNL     1      34.268 -16.241 -23.646  0.00  0.00    -0.001 C 
ATOM     11  C   UNL     1      34.289 -15.587 -21.320  0.00  0.00    -0.001 C 
ATOM     12  C   UNL     1      33.911 -14.941 -24.007  0.00  0.00    +0.011 C 
ATOM     13  C   UNL     1      33.933 -14.289 -21.682  0.00  0.00    +0.011 C 
ATOM     14  C   UNL     1      33.744 -13.966 -23.025  0.00  0.00    +0.058 C 
ENDBRANCH   2   9
BRANCH   2  15
ATOM     15  O   UNL     1      34.951 -18.711 -23.141  0.00  0.00    -0.383 OA
ATOM     16  H   UNL     1      34.209 -18.472 -23.718  0.00  0.00    +0.211 HD
ENDBRANCH   2  15
BRANCH   1  17
ATOM     17  C   UNL     1      35.728 -21.330 -19.271  0.00  0.00    -0.077 C 
BRANCH  17  18
ATOM     18  C   UNL     1      35.154 -21.487 -17.861  0.00  0.00    -0.015 C 
BRANCH  18  19
ATOM     19  C   UNL     1      33.946 -22.427 -17.827  0.00  0.00    +0.067 C 
BRANCH  19  21
ATOM     20  O   UNL     1      34.509 -23.607 -15.798  0.00  0.00    -0.291 OA
ATOM     21  C   UNL     1      33.662 -22.994 -16.443  0.00  0.00    +0.173 C 
BRANCH  21  23
ATOM     22  F   UNL     1      28.614 -22.181 -14.200  0.00  0.00    -0.204 F 
ATOM     23  C   UNL     1      32.314 -22.775 -15.844  0.00  0.00    +0.035 C 
ATOM     24  C   UNL     1      31.236 -22.614 -16.685  0.00  0.00    +0.005 C 
ATOM     25  C   UNL     1      32.197 -22.745 -14.472  0.00  0.00    +0.005 C 
ATOM     26  C   UNL     1      29.975 -22.411 -16.125  0.00  0.00    +0.030 C 
ATOM     27  C   UNL     1      30.936 -22.543 -13.912  0.00  0.00    +0.030 C 
ATOM     28  C   UNL     1      29.824 -22.376 -14.738  0.00  0.00    +0.140 C 
ENDBRANCH  21  23
ENDBRANCH  19  21
ENDBRANCH  18  19
ENDBRANCH  17  18
ENDBRANCH   1  17
TORSDOF 7
ENDMDL
MODEL 8
REMARK VINA RESULT:     -11.3      5.566     10.252
REMARK  Name = 3559
REMARK  7 active torsions:
REMARK  status: ('A' for Active; 'I' for Inactive)
REMARK    1  A    between atoms: N_1  and  C_17
REMARK    2  A    between atoms: C_2  and  C_9
REMARK    3  A    between atoms: C_2  and  O_15
REMARK    4  A    between atoms: C_17  and  C_18
REMARK    5  A    between atoms: C_18  and  C_19
REMARK    6  A    between atoms: C_19  and  C_21
REMARK    7  A    between atoms: C_21  and  C_23
REMARK                            x       y       z     vdW  Elec       q    Type
REMARK                         _______ _______ _______ _____ _____    ______ ____
ROOT
ATOM      1  N   UNL     1      35.332 -20.014 -19.827  0.00  0.00    +0.387 N 
ATOM      2  C   UNL     1      34.844 -17.984 -21.940  0.00  0.00    +0.103 C 
ATOM      3  C   UNL     1      36.130 -18.045 -21.084  0.00  0.00    +0.008 C 
ATOM      4  C   UNL     1      33.711 -18.707 -21.178  0.00  0.00    +0.008 C 
ATOM      5  C   UNL     1      36.455 -19.459 -20.588  0.00  0.00    -0.075 C 
ATOM      6  C   UNL     1      34.120 -20.089 -20.651  0.00  0.00    -0.075 C 
ATOM      7  H   UNL     1      35.141 -19.389 -19.044  0.00  0.00    -0.080 HD
ENDROOT
BRANCH   2   9
ATOM      8 CL   UNL     1      33.103 -12.427 -23.536  0.00  0.00    -0.082 Cl
ATOM      9  C   UNL     1      34.405 -16.576 -22.344  0.00  0.00    +0.002 C 
ATOM     10  C   UNL     1      34.306 -15.574 -21.381  0.00  0.00    -0.001 C 
ATOM     11  C   UNL     1      34.102 -16.297 -23.676  0.00  0.00    -0.001 C 
ATOM     12  C   UNL     1      33.904 -14.290 -21.749  0.00  0.00    +0.011 C 
ATOM     13  C   UNL     1      33.700 -15.013 -24.045  0.00  0.00    +0.011 C 
ATOM     14  C   UNL     1      33.601 -14.010 -23.081  0.00  0.00    +0.058 C 
ENDBRANCH   2   9
BRANCH   2  15
ATOM     15  O   UNL     1      35.106 -18.671 -23.173  0.00  0.00    -0.383 OA
ATOM     16  H   UNL     1      34.478 -18.371 -23.849  0.00  0.00    +0.211 HD
ENDBRANCH   2  15
BRANCH   1  17
ATOM     17  C   UNL     1      35.674 -21.335 -19.298  0.00  0.00    -0.077 C 
BRANCH  17  18
ATOM     18  C   UNL     1      35.312 -21.418 -17.813  0.00  0.00    -0.015 C 
BRANCH  18  19
ATOM     19  C   UNL     1      36.538 -21.672 -16.931  0.00  0.00    +0.067 C 
BRANCH  19  21
ATOM     20  O   UNL     1      35.146 -21.987 -14.984  0.00  0.00    -0.291 OA
ATOM     21  C   UNL     1      36.191 -22.260 -15.570  0.00  0.00    +0.173 C 
BRANCH  21  23
ATOM     22  F   UNL     1      39.764 -25.845 -13.213  0.00  0.00    -0.204 F 
ATOM     23  C   UNL     1      37.145 -23.218 -14.942  0.00  0.00    +0.035 C 
ATOM     24  C   UNL     1      38.420 -23.311 -15.452  0.00  0.00    +0.005 C 
ATOM     25  C   UNL     1      36.715 -23.974 -13.873  0.00  0.00    +0.005 C 
ATOM     26  C   UNL     1      39.313 -24.207 -14.863  0.00  0.00    +0.030 C 
ATOM     27  C   UNL     1      37.608 -24.869 -13.284  0.00  0.00    +0.030 C 
ATOM     28  C   UNL     1      38.907 -24.985 -13.779  0.00  0.00    +0.140 C 
ENDBRANCH  21  23
ENDBRANCH  19  21
ENDBRANCH  18  19
ENDBRANCH  17  18
ENDBRANCH   1  17
TORSDOF 7
ENDMDL
MODEL 9
REMARK VINA RESULT:     -11.1      5.374      9.892
REMARK  Name = 3559
REMARK  7 active torsions:
REMARK  status: ('A' for Active; 'I' for Inactive)
REMARK    1  A    between atoms: N_1  and  C_17
REMARK    2  A    between atoms: C_2  and  C_9
REMARK    3  A    between atoms: C_2  and  O_15
REMARK    4  A    between atoms: C_17  and  C_18
REMARK    5  A    between atoms: C_18  and  C_19
REMARK    6  A    between atoms: C_19  and  C_21
REMARK    7  A    between atoms: C_21  and  C_23
REMARK                            x       y       z     vdW  Elec       q    Type
REMARK                         _______ _______ _______ _____ _____    ______ ____
ROOT
ATOM      1  N   UNL     1      32.835 -22.974 -15.042  0.00  0.00    +0.387 N 
ATOM      2  C   UNL     1      33.357 -22.356 -17.900  0.00  0.00    +0.103 C 
ATOM      3  C   UNL     1      34.459 -22.427 -16.820  0.00  0.00    +0.008 C 
ATOM      4  C   UNL     1      32.002 -22.087 -17.206  0.00  0.00    +0.008 C 
ATOM      5  C   UNL     1      34.105 -23.366 -15.661  0.00  0.00    -0.075 C 
ATOM      6  C   UNL     1      31.737 -23.018 -16.015  0.00  0.00    -0.075 C 
ATOM      7  H   UNL     1      32.927 -22.012 -14.715  0.00  0.00    -0.080 HD
ENDROOT
BRANCH   2   9
ATOM      8 CL   UNL     1      34.332 -18.302 -22.268  0.00  0.00    -0.082 Cl
ATOM      9  C   UNL     1      33.603 -21.330 -19.008  0.00  0.00    +0.002 C 
ATOM     10  C   UNL     1      34.907 -21.036 -19.405  0.00  0.00    -0.001 C 
ATOM     11  C   UNL     1      32.525 -20.691 -19.617  0.00  0.00    -0.001 C 
ATOM     12  C   UNL     1      35.132 -20.099 -20.415  0.00  0.00    +0.011 C 
ATOM     13  C   UNL     1      32.751 -19.755 -20.626  0.00  0.00    +0.011 C 
ATOM     14  C   UNL     1      34.054 -19.459 -21.024  0.00  0.00    +0.058 C 
ENDBRANCH   2   9
BRANCH   2  15
ATOM     15  O   UNL     1      33.311 -23.629 -18.563  0.00  0.00    -0.383 OA
ATOM     16  H   UNL     1      34.051 -24.178 -18.259  0.00  0.00    +0.211 HD
ENDBRANCH   2  15
BRANCH   1  17
ATOM     17  C   UNL     1      32.537 -23.831 -13.894  0.00  0.00    -0.077 C 
BRANCH  17  18
ATOM     18  C   UNL     1      33.300 -23.344 -12.660  0.00  0.00    -0.015 C 
BRANCH  18  19
ATOM     19  C   UNL     1      34.495 -24.240 -12.326  0.00  0.00    +0.067 C 
BRANCH  19  21
ATOM     20  O   UNL     1      35.955 -22.527 -11.453  0.00  0.00    -0.291 OA
ATOM     21  C   UNL     1      35.809 -23.478 -12.217  0.00  0.00    +0.173 C 
BRANCH  21  23
ATOM     22  F   UNL     1      40.132 -25.132 -15.339  0.00  0.00    -0.204 F 
ATOM     23  C   UNL     1      36.962 -23.921 -13.052  0.00  0.00    +0.035 C 
ATOM     24  C   UNL     1      37.208 -23.268 -14.238  0.00  0.00    +0.005 C 
ATOM     25  C   UNL     1      37.741 -24.966 -12.603  0.00  0.00    +0.005 C 
ATOM     26  C   UNL     1      38.288 -23.681 -15.018  0.00  0.00    +0.030 C 
ATOM     27  C   UNL     1      38.821 -25.378 -13.383  0.00  0.00    +0.030 C 
ATOM     28  C   UNL     1      39.095 -24.735 -14.591  0.00  0.00    +0.140 C 
ENDBRANCH  21  23
ENDBRANCH  19  21
ENDBRANCH  18  19
ENDBRANCH  17  18
ENDBRANCH   1  17
TORSDOF 7
ENDMDL
