MODEL 1
REMARK VINA RESULT:     -12.3      0.000      0.000
REMARK  Name = 25118925
REMARK  3 active torsions:
REMARK  status: ('A' for Active; 'I' for Inactive)
REMARK    1  A    between atoms: C_3  and  C_12
REMARK    2  A    between atoms: C_5  and  C_24
REMARK    3  A    between atoms: C_27  and  C_33
REMARK                            x       y       z     vdW  Elec       q    Type
REMARK                         _______ _______ _______ _____ _____    ______ ____
ROOT
ATOM      1  N   UNL     1      31.493 -10.601 -21.128  0.00  0.00    -0.279 N 
ATOM      2  N   UNL     1      32.537 -10.778 -23.081  0.00  0.00    -0.394 NA
ATOM      3  C   UNL     1      31.978  -9.948 -22.228  0.00  0.00    +0.160 C 
ATOM      4  C   UNL     1      31.760 -11.932 -21.291  0.00  0.00    +0.152 C 
ATOM      5  C   UNL     1      32.404 -12.016 -22.503  0.00  0.00    +0.130 C 
ATOM      6  C   UNL     1      30.820 -10.010 -19.997  0.00  0.00    +0.115 C 
ENDROOT
BRANCH   3  12
ATOM      7  N   UNL     1      31.506  -5.983 -23.874  0.00  0.00    -0.296 N 
ATOM      8  N   UNL     1      30.469  -3.838 -24.009  0.00  0.00    -0.233 NA
ATOM      9  N   UNL     1      32.482  -3.205 -27.434  0.00  0.00    -0.223 N 
ATOM     10  N   UNL     1      30.907  -2.287 -25.840  0.00  0.00    -0.232 NA
ATOM     11  N   UNL     1      33.208  -4.319 -27.638  0.00  0.00    -0.183 NA
ATOM     12  C   UNL     1      31.860  -8.445 -22.394  0.00  0.00    +0.070 C 
ATOM     13  C   UNL     1      30.491  -8.032 -22.954  0.00  0.00    +0.030 C 
ATOM     14  C   UNL     1      32.973  -7.872 -23.283  0.00  0.00    +0.030 C 
ATOM     15  C   UNL     1      30.383  -6.513 -23.088  0.00  0.00    +0.092 C 
ATOM     16  C   UNL     1      32.851  -6.354 -23.421  0.00  0.00    +0.092 C 
ATOM     17  C   UNL     1      31.312  -4.762 -24.530  0.00  0.00    +0.118 C 
ATOM     18  C   UNL     1      31.977  -4.476 -25.719  0.00  0.00    +0.152 C 
ATOM     19  C   UNL     1      31.727  -3.246 -26.300  0.00  0.00    +0.133 C 
ATOM     20  C   UNL     1      32.897  -5.090 -26.590  0.00  0.00    +0.105 C 
ATOM     21  C   UNL     1      30.321  -2.675 -24.686  0.00  0.00    +0.252 C 
ATOM     22  H   UNL     1      32.495  -2.433 -28.045  0.00  0.00    +0.176 HD
ENDBRANCH   3  12
BRANCH   5  24
ATOM     23  F   UNL     1      34.238 -16.728 -24.815  0.00  0.00    -0.204 F 
ATOM     24  C   UNL     1      32.878 -13.229 -23.095  0.00  0.00    +0.027 C 
ATOM     25  C   UNL     1      33.480 -14.204 -22.301  0.00  0.00    +0.008 C 
ATOM     26  C   UNL     1      32.734 -13.437 -24.467  0.00  0.00    +0.005 C 
ATOM     27  C   UNL     1      33.941 -15.387 -22.878  0.00  0.00    +0.099 C 
ATOM     28  C   UNL     1      33.195 -14.619 -25.045  0.00  0.00    +0.030 C 
ATOM     29  C   UNL     1      33.799 -15.594 -24.250  0.00  0.00    +0.144 C 
BRANCH  27  33
ATOM     30  F   UNL     1      33.980 -17.650 -22.105  0.00  0.00    -0.166 F 
ATOM     31  F   UNL     1      35.894 -16.661 -22.346  0.00  0.00    -0.166 F 
ATOM     32  F   UNL     1      34.583 -16.101 -20.703  0.00  0.00    -0.166 F 
ATOM     33  C   UNL     1      34.586 -16.428 -22.028  0.00  0.00    +0.421 C 
ENDBRANCH  27  33
ENDBRANCH   5  24
TORSDOF 3
ENDMDL
MODEL 2
REMARK VINA RESULT:     -11.9      3.429      6.035
REMARK  Name = 25118925
REMARK  3 active torsions:
REMARK  status: ('A' for Active; 'I' for Inactive)
REMARK    1  A    between atoms: C_3  and  C_12
REMARK    2  A    between atoms: C_5  and  C_24
REMARK    3  A    between atoms: C_27  and  C_33
REMARK                            x       y       z     vdW  Elec       q    Type
REMARK                         _______ _______ _______ _____ _____    ______ ____
ROOT
ATOM      1  N   UNL     1      33.634 -15.122 -24.436  0.00  0.00    -0.279 N 
ATOM      2  N   UNL     1      33.563 -15.258 -22.220  0.00  0.00    -0.394 NA
ATOM      3  C   UNL     1      33.246 -14.529 -23.267  0.00  0.00    +0.160 C 
ATOM      4  C   UNL     1      34.237 -16.306 -24.113  0.00  0.00    +0.152 C 
ATOM      5  C   UNL     1      34.181 -16.368 -22.741  0.00  0.00    +0.130 C 
ATOM      6  C   UNL     1      33.450 -14.608 -25.772  0.00  0.00    +0.115 C 
ENDROOT
BRANCH   3  12
ATOM      7  N   UNL     1      32.036 -10.500 -22.287  0.00  0.00    -0.296 N 
ATOM      8  N   UNL     1      31.569  -8.222 -22.823  0.00  0.00    -0.233 NA
ATOM      9  N   UNL     1      31.394  -7.446 -18.880  0.00  0.00    -0.223 N 
ATOM     10  N   UNL     1      31.213  -6.522 -21.111  0.00  0.00    -0.232 NA
ATOM     11  N   UNL     1      31.634  -8.621 -18.269  0.00  0.00    -0.183 NA
ATOM     12  C   UNL     1      32.538 -13.188 -23.237  0.00  0.00    +0.070 C 
ATOM     13  C   UNL     1      33.485 -12.026 -23.569  0.00  0.00    +0.030 C 
ATOM     14  C   UNL     1      31.855 -12.924 -21.886  0.00  0.00    +0.030 C 
ATOM     15  C   UNL     1      32.746 -10.688 -23.560  0.00  0.00    +0.092 C 
ATOM     16  C   UNL     1      31.128 -11.579 -21.881  0.00  0.00    +0.092 C 
ATOM     17  C   UNL     1      31.764  -9.185 -21.890  0.00  0.00    +0.118 C 
ATOM     18  C   UNL     1      31.688  -8.847 -20.543  0.00  0.00    +0.152 C 
ATOM     19  C   UNL     1      31.415  -7.524 -20.241  0.00  0.00    +0.133 C 
ATOM     20  C   UNL     1      31.812  -9.470 -19.287  0.00  0.00    +0.105 C 
ATOM     21  C   UNL     1      31.309  -6.968 -22.381  0.00  0.00    +0.252 C 
ATOM     22  H   UNL     1      31.220  -6.610 -18.391  0.00  0.00    +0.176 HD
ENDBRANCH   3  12
BRANCH   5  24
ATOM     23  F   UNL     1      36.197 -20.537 -19.666  0.00  0.00    -0.204 F 
ATOM     24  C   UNL     1      34.696 -17.441 -21.949  0.00  0.00    +0.027 C 
ATOM     25  C   UNL     1      33.831 -18.402 -21.427  0.00  0.00    +0.008 C 
ATOM     26  C   UNL     1      36.066 -17.528 -21.700  0.00  0.00    +0.005 C 
ATOM     27  C   UNL     1      34.334 -19.449 -20.656  0.00  0.00    +0.099 C 
ATOM     28  C   UNL     1      36.571 -18.573 -20.929  0.00  0.00    +0.030 C 
ATOM     29  C   UNL     1      35.704 -19.535 -20.406  0.00  0.00    +0.144 C 
BRANCH  27  33
ATOM     30  F   UNL     1      33.835 -21.759 -20.286  0.00  0.00    -0.166 F 
ATOM     31  F   UNL     1      33.211 -20.360 -18.751  0.00  0.00    -0.166 F 
ATOM     32  F   UNL     1      32.164 -20.418 -20.656  0.00  0.00    -0.166 F 
ATOM     33  C   UNL     1      33.407 -20.475 -20.098  0.00  0.00    +0.421 C 
ENDBRANCH  27  33
ENDBRANCH   5  24
TORSDOF 3
ENDMDL
MODEL 3
REMARK VINA RESULT:     -11.4      1.565      2.621
REMARK  Name = 25118925
REMARK  3 active torsions:
REMARK  status: ('A' for Active; 'I' for Inactive)
REMARK    1  A    between atoms: C_3  and  C_12
REMARK    2  A    between atoms: C_5  and  C_24
REMARK    3  A    between atoms: C_27  and  C_33
REMARK                            x       y       z     vdW  Elec       q    Type
REMARK                         _______ _______ _______ _____ _____    ______ ____
ROOT
ATOM      1  N   UNL     1      32.024 -11.065 -21.908  0.00  0.00    -0.279 N 
ATOM      2  N   UNL     1      32.966 -11.768 -23.793  0.00  0.00    -0.394 NA
ATOM      3  C   UNL     1      32.440 -10.737 -23.169  0.00  0.00    +0.160 C 
ATOM      4  C   UNL     1      32.302 -12.390 -21.717  0.00  0.00    +0.152 C 
ATOM      5  C   UNL     1      32.882 -12.801 -22.894  0.00  0.00    +0.130 C 
ATOM      6  C   UNL     1      31.404 -10.188 -20.944  0.00  0.00    +0.115 C 
ENDROOT
BRANCH   3  12
ATOM      7  N   UNL     1      31.978  -6.462 -23.581  0.00  0.00    -0.296 N 
ATOM      8  N   UNL     1      32.625  -4.315 -24.396  0.00  0.00    -0.233 NA
ATOM      9  N   UNL     1      29.947  -2.677 -21.880  0.00  0.00    -0.223 N 
ATOM     10  N   UNL     1      31.624  -2.248 -23.573  0.00  0.00    -0.232 NA
ATOM     11  N   UNL     1      29.379  -3.712 -21.233  0.00  0.00    -0.183 NA
ATOM     12  C   UNL     1      32.290  -9.336 -23.730  0.00  0.00    +0.070 C 
ATOM     13  C   UNL     1      33.452  -8.420 -23.318  0.00  0.00    +0.030 C 
ATOM     14  C   UNL     1      30.958  -8.690 -23.324  0.00  0.00    +0.030 C 
ATOM     15  C   UNL     1      33.295  -7.023 -23.917  0.00  0.00    +0.092 C 
ATOM     16  C   UNL     1      30.813  -7.288 -23.917  0.00  0.00    +0.092 C 
ATOM     17  C   UNL     1      31.856  -5.068 -23.573  0.00  0.00    +0.118 C 
ATOM     18  C   UNL     1      30.949  -4.435 -22.728  0.00  0.00    +0.152 C 
ATOM     19  C   UNL     1      30.894  -3.054 -22.785  0.00  0.00    +0.133 C 
ATOM     20  C   UNL     1      29.994  -4.780 -21.754  0.00  0.00    +0.105 C 
ATOM     21  C   UNL     1      32.463  -2.971 -24.346  0.00  0.00    +0.252 C 
ATOM     22  H   UNL     1      29.703  -1.738 -21.715  0.00  0.00    +0.176 HD
ENDBRANCH   3  12
BRANCH   5  24
ATOM     23  F   UNL     1      34.663 -17.964 -23.934  0.00  0.00    -0.204 F 
ATOM     24  C   UNL     1      33.342 -14.129 -23.159  0.00  0.00    +0.027 C 
ATOM     25  C   UNL     1      33.865 -14.906 -22.125  0.00  0.00    +0.008 C 
ATOM     26  C   UNL     1      33.264 -14.649 -24.451  0.00  0.00    +0.005 C 
ATOM     27  C   UNL     1      34.313 -16.202 -22.384  0.00  0.00    +0.099 C 
ATOM     28  C   UNL     1      33.711 -15.944 -24.710  0.00  0.00    +0.030 C 
ATOM     29  C   UNL     1      34.236 -16.720 -23.676  0.00  0.00    +0.144 C 
BRANCH  27  33
ATOM     30  F   UNL     1      34.210 -18.209 -21.088  0.00  0.00    -0.166 F 
ATOM     31  F   UNL     1      36.179 -17.382 -21.467  0.00  0.00    -0.166 F 
ATOM     32  F   UNL     1      34.835 -16.392 -20.072  0.00  0.00    -0.166 F 
ATOM     33  C   UNL     1      34.873 -17.030 -21.278  0.00  0.00    +0.421 C 
ENDBRANCH  27  33
ENDBRANCH   5  24
TORSDOF 3
ENDMDL
MODEL 4
REMARK VINA RESULT:     -11.2      7.582     13.848
REMARK  Name = 25118925
REMARK  3 active torsions:
REMARK  status: ('A' for Active; 'I' for Inactive)
REMARK    1  A    between atoms: C_3  and  C_12
REMARK    2  A    between atoms: C_5  and  C_24
REMARK    3  A    between atoms: C_27  and  C_33
REMARK                            x       y       z     vdW  Elec       q    Type
REMARK                         _______ _______ _______ _____ _____    ______ ____
ROOT
ATOM      1  N   UNL     1      34.344 -18.651 -23.169  0.00  0.00    -0.279 N 
ATOM      2  N   UNL     1      33.975 -17.425 -21.353  0.00  0.00    -0.394 NA
ATOM      3  C   UNL     1      34.176 -18.641 -21.812  0.00  0.00    +0.160 C 
ATOM      4  C   UNL     1      34.244 -17.359 -23.603  0.00  0.00    +0.152 C 
ATOM      5  C   UNL     1      34.017 -16.622 -22.465  0.00  0.00    +0.130 C 
ATOM      6  C   UNL     1      34.583 -19.803 -24.004  0.00  0.00    +0.115 C 
ENDROOT
BRANCH   3  12
ATOM      7  N   UNL     1      34.510 -21.450 -18.548  0.00  0.00    -0.296 N 
ATOM      8  N   UNL     1      33.723 -23.249 -17.191  0.00  0.00    -0.233 NA
ATOM      9  N   UNL     1      36.701 -22.454 -14.606  0.00  0.00    -0.223 N 
ATOM     10  N   UNL     1      34.797 -23.870 -15.091  0.00  0.00    -0.232 NA
ATOM     11  N   UNL     1      37.369 -21.412 -15.134  0.00  0.00    -0.183 NA
ATOM     12  C   UNL     1      34.225 -19.910 -20.982  0.00  0.00    +0.070 C 
ATOM     13  C   UNL     1      33.118 -19.947 -19.918  0.00  0.00    +0.030 C 
ATOM     14  C   UNL     1      35.591 -20.109 -20.309  0.00  0.00    +0.030 C 
ATOM     15  C   UNL     1      33.168 -21.245 -19.112  0.00  0.00    +0.092 C 
ATOM     16  C   UNL     1      35.629 -21.403 -19.495  0.00  0.00    +0.092 C 
ATOM     17  C   UNL     1      34.611 -22.247 -17.402  0.00  0.00    +0.118 C 
ATOM     18  C   UNL     1      35.617 -22.028 -16.466  0.00  0.00    +0.152 C 
ATOM     19  C   UNL     1      35.642 -22.863 -15.362  0.00  0.00    +0.133 C 
ATOM     20  C   UNL     1      36.705 -21.158 -16.266  0.00  0.00    +0.105 C 
ATOM     21  C   UNL     1      33.869 -23.987 -16.066  0.00  0.00    +0.252 C 
ATOM     22  H   UNL     1      36.951 -22.880 -13.755  0.00  0.00    +0.176 HD
ENDBRANCH   3  12
BRANCH   5  24
ATOM     23  F   UNL     1      33.339 -11.105 -22.321  0.00  0.00    -0.204 F 
ATOM     24  C   UNL     1      33.843 -15.202 -22.432  0.00  0.00    +0.027 C 
ATOM     25  C   UNL     1      33.546 -14.507 -23.604  0.00  0.00    +0.008 C 
ATOM     26  C   UNL     1      33.967 -14.513 -21.225  0.00  0.00    +0.005 C 
ATOM     27  C   UNL     1      33.375 -13.123 -23.570  0.00  0.00    +0.099 C 
ATOM     28  C   UNL     1      33.798 -13.130 -21.190  0.00  0.00    +0.030 C 
ATOM     29  C   UNL     1      33.501 -12.435 -22.364  0.00  0.00    +0.144 C 
BRANCH  27  33
ATOM     30  F   UNL     1      32.857 -13.195 -25.904  0.00  0.00    -0.166 F 
ATOM     31  F   UNL     1      31.931 -11.617 -24.738  0.00  0.00    -0.166 F 
ATOM     32  F   UNL     1      34.056 -11.526 -25.194  0.00  0.00    -0.166 F 
ATOM     33  C   UNL     1      33.060 -12.382 -24.825  0.00  0.00    +0.421 C 
ENDBRANCH  27  33
ENDBRANCH   5  24
TORSDOF 3
ENDMDL
MODEL 5
REMARK VINA RESULT:     -11.2      8.766     14.996
REMARK  Name = 25118925
REMARK  3 active torsions:
REMARK  status: ('A' for Active; 'I' for Inactive)
REMARK    1  A    between atoms: C_3  and  C_12
REMARK    2  A    between atoms: C_5  and  C_24
REMARK    3  A    between atoms: C_27  and  C_33
REMARK                            x       y       z     vdW  Elec       q    Type
REMARK                         _______ _______ _______ _____ _____    ______ ____
ROOT
ATOM      1  N   UNL     1      35.277 -20.230 -19.924  0.00  0.00    -0.279 N 
ATOM      2  N   UNL     1      33.367 -19.348 -20.636  0.00  0.00    -0.394 NA
ATOM      3  C   UNL     1      33.912 -20.310 -19.924  0.00  0.00    +0.160 C 
ATOM      4  C   UNL     1      35.624 -19.148 -20.684  0.00  0.00    +0.152 C 
ATOM      5  C   UNL     1      34.429 -18.621 -21.112  0.00  0.00    +0.130 C 
ATOM      6  C   UNL     1      36.197 -21.116 -19.252  0.00  0.00    +0.115 C 
ENDROOT
BRANCH   3  12
ATOM      7  N   UNL     1      32.109 -22.728 -16.832  0.00  0.00    -0.296 N 
ATOM      8  N   UNL     1      30.277 -23.862 -15.807  0.00  0.00    -0.233 NA
ATOM      9  N   UNL     1      32.563 -24.361 -12.535  0.00  0.00    -0.223 N 
ATOM     10  N   UNL     1      30.400 -24.766 -13.545  0.00  0.00    -0.232 NA
ATOM     11  N   UNL     1      33.743 -23.784 -12.827  0.00  0.00    -0.183 NA
ATOM     12  C   UNL     1      33.165 -21.398 -19.176  0.00  0.00    +0.070 C 
ATOM     13  C   UNL     1      31.948 -20.848 -18.418  0.00  0.00    +0.030 C 
ATOM     14  C   UNL     1      34.076 -22.160 -18.202  0.00  0.00    +0.030 C 
ATOM     15  C   UNL     1      31.195 -21.964 -17.695  0.00  0.00    +0.092 C 
ATOM     16  C   UNL     1      33.313 -23.267 -17.474  0.00  0.00    +0.092 C 
ATOM     17  C   UNL     1      31.549 -23.401 -15.741  0.00  0.00    +0.118 C 
ATOM     18  C   UNL     1      32.284 -23.610 -14.577  0.00  0.00    +0.152 C 
ATOM     19  C   UNL     1      31.653 -24.285 -13.547  0.00  0.00    +0.133 C 
ATOM     20  C   UNL     1      33.567 -23.329 -14.072  0.00  0.00    +0.105 C 
ATOM     21  C   UNL     1      29.789 -24.507 -14.721  0.00  0.00    +0.252 C 
ATOM     22  H   UNL     1      32.374 -24.796 -11.672  0.00  0.00    +0.176 HD
ENDBRANCH   3  12
BRANCH   5  24
ATOM     23  F   UNL     1      33.919 -14.139 -24.363  0.00  0.00    -0.204 F 
ATOM     24  C   UNL     1      34.297 -17.466 -21.946  0.00  0.00    +0.027 C 
ATOM     25  C   UNL     1      34.090 -16.211 -21.374  0.00  0.00    +0.008 C 
ATOM     26  C   UNL     1      34.378 -17.595 -23.333  0.00  0.00    +0.005 C 
ATOM     27  C   UNL     1      33.962 -15.086 -22.187  0.00  0.00    +0.099 C 
ATOM     28  C   UNL     1      34.249 -16.471 -24.147  0.00  0.00    +0.030 C 
ATOM     29  C   UNL     1      34.041 -15.215 -23.573  0.00  0.00    +0.144 C 
BRANCH  27  33
ATOM     30  F   UNL     1      34.268 -12.717 -22.299  0.00  0.00    -0.166 F 
ATOM     31  F   UNL     1      32.420 -13.428 -21.416  0.00  0.00    -0.166 F 
ATOM     32  F   UNL     1      34.294 -13.638 -20.330  0.00  0.00    -0.166 F 
ATOM     33  C   UNL     1      33.739 -13.745 -21.573  0.00  0.00    +0.421 C 
ENDBRANCH  27  33
ENDBRANCH   5  24
TORSDOF 3
ENDMDL
MODEL 6
REMARK VINA RESULT:     -11.0      1.348      2.916
REMARK  Name = 25118925
REMARK  3 active torsions:
REMARK  status: ('A' for Active; 'I' for Inactive)
REMARK    1  A    between atoms: C_3  and  C_12
REMARK    2  A    between atoms: C_5  and  C_24
REMARK    3  A    between atoms: C_27  and  C_33
REMARK                            x       y       z     vdW  Elec       q    Type
REMARK                         _______ _______ _______ _____ _____    ______ ____
ROOT
ATOM      1  N   UNL     1      31.523 -10.342 -21.337  0.00  0.00    -0.279 N 
ATOM      2  N   UNL     1      32.786 -11.254 -22.921  0.00  0.00    -0.394 NA
ATOM      3  C   UNL     1      32.117 -10.182 -22.558  0.00  0.00    +0.160 C 
ATOM      4  C   UNL     1      31.834 -11.597 -20.893  0.00  0.00    +0.152 C 
ATOM      5  C   UNL     1      32.613 -12.140 -21.887  0.00  0.00    +0.130 C 
ATOM      6  C   UNL     1      30.714  -9.377 -20.633  0.00  0.00    +0.115 C 
ENDROOT
BRANCH   3  12
ATOM      7  N   UNL     1      31.807  -6.033 -23.721  0.00  0.00    -0.296 N 
ATOM      8  N   UNL     1      32.486  -4.107 -24.954  0.00  0.00    -0.233 NA
ATOM      9  N   UNL     1      30.058  -1.900 -22.626  0.00  0.00    -0.223 N 
ATOM     10  N   UNL     1      31.631  -1.875 -24.467  0.00  0.00    -0.232 NA
ATOM     11  N   UNL     1      29.493  -2.769 -21.768  0.00  0.00    -0.183 NA
ATOM     12  C   UNL     1      31.988  -8.900 -23.358  0.00  0.00    +0.070 C 
ATOM     13  C   UNL     1      33.212  -7.988 -23.191  0.00  0.00    +0.030 C 
ATOM     14  C   UNL     1      30.714  -8.120 -22.999  0.00  0.00    +0.030 C 
ATOM     15  C   UNL     1      33.073  -6.715 -24.026  0.00  0.00    +0.092 C 
ATOM     16  C   UNL     1      30.589  -6.842 -23.830  0.00  0.00    +0.092 C 
ATOM     17  C   UNL     1      31.744  -4.656 -23.962  0.00  0.00    +0.118 C 
ATOM     18  C   UNL     1      30.925  -3.833 -23.196  0.00  0.00    +0.152 C 
ATOM     19  C   UNL     1      30.924  -2.484 -23.502  0.00  0.00    +0.133 C 
ATOM     20  C   UNL     1      30.024  -3.944 -22.120  0.00  0.00    +0.105 C 
ATOM     21  C   UNL     1      32.385  -2.769 -25.142  0.00  0.00    +0.252 C 
ATOM     22  H   UNL     1      29.865  -0.935 -22.623  0.00  0.00    +0.176 HD
ENDBRANCH   3  12
BRANCH   5  24
ATOM     23  F   UNL     1      34.803 -17.249 -21.767  0.00  0.00    -0.204 F 
ATOM     24  C   UNL     1      33.175 -13.455 -21.859  0.00  0.00    +0.027 C 
ATOM     25  C   UNL     1      33.304 -14.184 -23.040  0.00  0.00    +0.008 C 
ATOM     26  C   UNL     1      33.598 -14.007 -20.649  0.00  0.00    +0.005 C 
ATOM     27  C   UNL     1      33.853 -15.466 -23.013  0.00  0.00    +0.099 C 
ATOM     28  C   UNL     1      34.146 -15.288 -20.621  0.00  0.00    +0.030 C 
ATOM     29  C   UNL     1      34.274 -16.018 -21.803  0.00  0.00    +0.144 C 
BRANCH  27  33
ATOM     30  F   UNL     1      34.613 -17.449 -24.114  0.00  0.00    -0.166 F 
ATOM     31  F   UNL     1      32.793 -16.542 -24.867  0.00  0.00    -0.166 F 
ATOM     32  F   UNL     1      34.713 -15.583 -25.227  0.00  0.00    -0.166 F 
ATOM     33  C   UNL     1      33.989 -16.245 -24.278  0.00  0.00    +0.421 C 
ENDBRANCH  27  33
ENDBRANCH   5  24
TORSDOF 3
ENDMDL
MODEL 7
REMARK VINA RESULT:     -11.0      1.338      2.160
REMARK  Name = 25118925
REMARK  3 active torsions:
REMARK  status: ('A' for Active; 'I' for Inactive)
REMARK    1  A    between atoms: C_3  and  C_12
REMARK    2  A    between atoms: C_5  and  C_24
REMARK    3  A    between atoms: C_27  and  C_33
REMARK                            x       y       z     vdW  Elec       q    Type
REMARK                         _______ _______ _______ _____ _____    ______ ____
ROOT
ATOM      1  N   UNL     1      31.204 -10.101 -20.347  0.00  0.00    -0.279 N 
ATOM      2  N   UNL     1      32.408 -10.513 -22.168  0.00  0.00    -0.394 NA
ATOM      3  C   UNL     1      31.733  -9.600 -21.504  0.00  0.00    +0.160 C 
ATOM      4  C   UNL     1      31.564 -11.417 -20.268  0.00  0.00    +0.152 C 
ATOM      5  C   UNL     1      32.305 -11.648 -21.402  0.00  0.00    +0.130 C 
ATOM      6  C   UNL     1      30.409  -9.386 -19.377  0.00  0.00    +0.115 C 
ENDROOT
BRANCH   3  12
ATOM      7  N   UNL     1      31.823  -5.863 -23.667  0.00  0.00    -0.296 N 
ATOM      8  N   UNL     1      30.801  -3.970 -24.700  0.00  0.00    -0.233 NA
ATOM      9  N   UNL     1      34.371  -3.068 -26.322  0.00  0.00    -0.223 N 
ATOM     10  N   UNL     1      32.044  -2.426 -26.121  0.00  0.00    -0.232 NA
ATOM     11  N   UNL     1      35.215  -4.024 -25.892  0.00  0.00    -0.183 NA
ATOM     12  C   UNL     1      31.536  -8.156 -21.925  0.00  0.00    +0.070 C 
ATOM     13  C   UNL     1      30.749  -8.039 -23.238  0.00  0.00    +0.030 C 
ATOM     14  C   UNL     1      32.869  -7.405 -22.056  0.00  0.00    +0.030 C 
ATOM     15  C   UNL     1      30.539  -6.577 -23.630  0.00  0.00    +0.092 C 
ATOM     16  C   UNL     1      32.651  -5.946 -22.459  0.00  0.00    +0.092 C 
ATOM     17  C   UNL     1      31.904  -4.727 -24.481  0.00  0.00    +0.118 C 
ATOM     18  C   UNL     1      33.107  -4.356 -25.073  0.00  0.00    +0.152 C 
ATOM     19  C   UNL     1      33.096  -3.219 -25.862  0.00  0.00    +0.133 C 
ATOM     20  C   UNL     1      34.439  -4.805 -25.132  0.00  0.00    +0.105 C 
ATOM     21  C   UNL     1      30.938  -2.882 -25.495  0.00  0.00    +0.252 C 
ATOM     22  H   UNL     1      34.647  -2.330 -26.911  0.00  0.00    +0.176 HD
ENDBRANCH   3  12
BRANCH   5  24
ATOM     23  F   UNL     1      34.612 -16.525 -22.747  0.00  0.00    -0.204 F 
ATOM     24  C   UNL     1      32.897 -12.902 -21.751  0.00  0.00    +0.027 C 
ATOM     25  C   UNL     1      32.867 -13.346 -23.073  0.00  0.00    +0.008 C 
ATOM     26  C   UNL     1      33.508 -13.682 -20.768  0.00  0.00    +0.005 C 
ATOM     27  C   UNL     1      33.445 -14.568 -23.413  0.00  0.00    +0.099 C 
ATOM     28  C   UNL     1      34.086 -14.905 -21.107  0.00  0.00    +0.030 C 
ATOM     29  C   UNL     1      34.054 -15.348 -22.430  0.00  0.00    +0.144 C 
BRANCH  27  33
ATOM     30  F   UNL     1      32.635 -16.150 -25.014  0.00  0.00    -0.166 F 
ATOM     31  F   UNL     1      32.919 -14.113 -25.701  0.00  0.00    -0.166 F 
ATOM     32  F   UNL     1      34.646 -15.374 -25.300  0.00  0.00    -0.166 F 
ATOM     33  C   UNL     1      33.410 -15.041 -24.827  0.00  0.00    +0.421 C 
ENDBRANCH  27  33
ENDBRANCH   5  24
TORSDOF 3
ENDMDL
MODEL 8
REMARK VINA RESULT:     -10.8      1.998      3.600
REMARK  Name = 25118925
REMARK  3 active torsions:
REMARK  status: ('A' for Active; 'I' for Inactive)
REMARK    1  A    between atoms: C_3  and  C_12
REMARK    2  A    between atoms: C_5  and  C_24
REMARK    3  A    between atoms: C_27  and  C_33
REMARK                            x       y       z     vdW  Elec       q    Type
REMARK                         _______ _______ _______ _____ _____    ______ ____
ROOT
ATOM      1  N   UNL     1      32.783 -13.112 -24.880  0.00  0.00    -0.279 N 
ATOM      2  N   UNL     1      33.485 -13.995 -22.966  0.00  0.00    -0.394 NA
ATOM      3  C   UNL     1      33.093 -12.893 -23.566  0.00  0.00    +0.160 C 
ATOM      4  C   UNL     1      32.990 -14.439 -25.133  0.00  0.00    +0.152 C 
ATOM      5  C   UNL     1      33.423 -14.963 -23.938  0.00  0.00    +0.130 C 
ATOM      6  C   UNL     1      32.321 -12.135 -25.836  0.00  0.00    +0.115 C 
ENDROOT
BRANCH   3  12
ATOM      7  N   UNL     1      32.020  -8.801 -22.690  0.00  0.00    -0.296 N 
ATOM      8  N   UNL     1      31.181  -7.072 -21.277  0.00  0.00    -0.233 NA
ATOM      9  N   UNL     1      31.093  -4.647 -24.486  0.00  0.00    -0.223 N 
ATOM     10  N   UNL     1      30.656  -4.841 -22.112  0.00  0.00    -0.232 NA
ATOM     11  N   UNL     1      31.542  -5.391 -25.513  0.00  0.00    -0.183 NA
ATOM     12  C   UNL     1      32.981 -11.522 -22.927  0.00  0.00    +0.070 C 
ATOM     13  C   UNL     1      31.547 -11.210 -22.474  0.00  0.00    +0.030 C 
ATOM     14  C   UNL     1      33.478 -10.407 -23.859  0.00  0.00    +0.030 C 
ATOM     15  C   UNL     1      31.462  -9.837 -21.808  0.00  0.00    +0.092 C 
ATOM     16  C   UNL     1      33.379  -9.035 -23.190  0.00  0.00    +0.092 C 
ATOM     17  C   UNL     1      31.569  -7.489 -22.506  0.00  0.00    +0.118 C 
ATOM     18  C   UNL     1      31.514  -6.597 -23.572  0.00  0.00    +0.152 C 
ATOM     19  C   UNL     1      31.056  -5.320 -23.300  0.00  0.00    +0.133 C 
ATOM     20  C   UNL     1      31.796  -6.578 -24.951  0.00  0.00    +0.105 C 
ATOM     21  C   UNL     1      30.755  -5.792 -21.158  0.00  0.00    +0.252 C 
ATOM     22  H   UNL     1      30.818  -3.707 -24.580  0.00  0.00    +0.176 HD
ENDBRANCH   3  12
BRANCH   5  24
ATOM     23  F   UNL     1      34.755 -20.297 -23.109  0.00  0.00    -0.204 F 
ATOM     24  C   UNL     1      33.768 -16.334 -23.723  0.00  0.00    +0.027 C 
ATOM     25  C   UNL     1      34.628 -16.682 -22.682  0.00  0.00    +0.008 C 
ATOM     26  C   UNL     1      33.241 -17.323 -24.553  0.00  0.00    +0.005 C 
ATOM     27  C   UNL     1      34.964 -18.019 -22.472  0.00  0.00    +0.099 C 
ATOM     28  C   UNL     1      33.577 -18.660 -24.345  0.00  0.00    +0.030 C 
ATOM     29  C   UNL     1      34.438 -19.008 -23.303  0.00  0.00    +0.144 C 
BRANCH  27  33
ATOM     30  F   UNL     1      35.593 -19.595 -20.787  0.00  0.00    -0.166 F 
ATOM     31  F   UNL     1      37.193 -18.485 -21.741  0.00  0.00    -0.166 F 
ATOM     32  F   UNL     1      35.865 -17.485 -20.338  0.00  0.00    -0.166 F 
ATOM     33  C   UNL     1      35.885 -18.390 -21.359  0.00  0.00    +0.421 C 
ENDBRANCH  27  33
ENDBRANCH   5  24
TORSDOF 3
ENDMDL
MODEL 9
REMARK VINA RESULT:     -10.6      7.471     13.534
REMARK  Name = 25118925
REMARK  3 active torsions:
REMARK  status: ('A' for Active; 'I' for Inactive)
REMARK    1  A    between atoms: C_3  and  C_12
REMARK    2  A    between atoms: C_5  and  C_24
REMARK    3  A    between atoms: C_27  and  C_33
REMARK                            x       y       z     vdW  Elec       q    Type
REMARK                         _______ _______ _______ _____ _____    ______ ____
ROOT
ATOM      1  N   UNL     1      34.309 -18.410 -23.515  0.00  0.00    -0.279 N 
ATOM      2  N   UNL     1      33.866 -17.185 -21.715  0.00  0.00    -0.394 NA
ATOM      3  C   UNL     1      34.124 -18.396 -22.160  0.00  0.00    +0.160 C 
ATOM      4  C   UNL     1      34.160 -17.127 -23.962  0.00  0.00    +0.152 C 
ATOM      5  C   UNL     1      33.888 -16.390 -22.834  0.00  0.00    +0.130 C 
ATOM      6  C   UNL     1      34.606 -19.559 -24.336  0.00  0.00    +0.115 C 
ENDROOT
BRANCH   3  12
ATOM      7  N   UNL     1      34.574 -21.161 -18.873  0.00  0.00    -0.296 N 
ATOM      8  N   UNL     1      33.849 -22.962 -17.486  0.00  0.00    -0.233 NA
ATOM      9  N   UNL     1      36.847 -22.070 -14.955  0.00  0.00    -0.223 N 
ATOM     10  N   UNL     1      34.970 -23.536 -15.396  0.00  0.00    -0.232 NA
ATOM     11  N   UNL     1      37.483 -21.019 -15.504  0.00  0.00    -0.183 NA
ATOM     12  C   UNL     1      34.215 -19.654 -21.318  0.00  0.00    +0.070 C 
ATOM     13  C   UNL     1      33.125 -19.706 -20.236  0.00  0.00    +0.030 C 
ATOM     14  C   UNL     1      35.595 -19.814 -20.664  0.00  0.00    +0.030 C 
ATOM     15  C   UNL     1      33.219 -20.993 -19.418  0.00  0.00    +0.092 C 
ATOM     16  C   UNL     1      35.677 -21.098 -19.838  0.00  0.00    +0.092 C 
ATOM     17  C   UNL     1      34.711 -21.943 -17.720  0.00  0.00    +0.118 C 
ATOM     18  C   UNL     1      35.726 -21.691 -16.802  0.00  0.00    +0.152 C 
ATOM     19  C   UNL     1      35.787 -22.512 -15.690  0.00  0.00    +0.133 C 
ATOM     20  C   UNL     1      36.795 -20.792 -16.629  0.00  0.00    +0.105 C 
ATOM     21  C   UNL     1      34.031 -23.685 -16.355  0.00  0.00    +0.252 C 
ATOM     22  H   UNL     1      37.121 -22.482 -14.104  0.00  0.00    +0.176 HD
ENDBRANCH   3  12
BRANCH   5  24
ATOM     23  F   UNL     1      32.988 -10.904 -22.772  0.00  0.00    -0.204 F 
ATOM     24  C   UNL     1      33.654 -14.979 -22.816  0.00  0.00    +0.027 C 
ATOM     25  C   UNL     1      32.996 -14.394 -21.734  0.00  0.00    +0.008 C 
ATOM     26  C   UNL     1      34.088 -14.187 -23.879  0.00  0.00    +0.005 C 
ATOM     27  C   UNL     1      32.769 -13.019 -21.716  0.00  0.00    +0.099 C 
ATOM     28  C   UNL     1      33.861 -12.812 -23.862  0.00  0.00    +0.030 C 
ATOM     29  C   UNL     1      33.202 -12.227 -22.780  0.00  0.00    +0.144 C 
BRANCH  27  33
ATOM     30  F   UNL     1      30.903 -11.762 -20.903  0.00  0.00    -0.166 F 
ATOM     31  F   UNL     1      31.707 -13.290 -19.590  0.00  0.00    -0.166 F 
ATOM     32  F   UNL     1      32.822 -11.452 -19.928  0.00  0.00    -0.166 F 
ATOM     33  C   UNL     1      32.064 -12.396 -20.559  0.00  0.00    +0.421 C 
ENDBRANCH  27  33
ENDBRANCH   5  24
TORSDOF 3
ENDMDL
