MODEL 1
REMARK VINA RESULT:     -11.4      0.000      0.000
REMARK  Name = 5463984
REMARK  10 active torsions:
REMARK  status: ('A' for Active; 'I' for Inactive)
REMARK    1  A    between atoms: N_2  and  C_29
REMARK    2  A    between atoms: C_3  and  N_13
REMARK    3  A    between atoms: N_13  and  CA_16
REMARK    4  A    between atoms: CA_16  and  C_18
REMARK    5  A    between atoms: CA_16  and  C_21
REMARK    6  A    between atoms: C_18  and  O_19
REMARK    7  A    between atoms: C_21  and  C_22
REMARK    8  A    between atoms: C_22  and  C_23
REMARK    9  A    between atoms: C_29  and  C_31
REMARK   10  A    between atoms: C_31  and  O_32
REMARK                            x       y       z     vdW  Elec       q    Type
REMARK                         _______ _______ _______ _____ _____    ______ ____
ROOT
ATOM      1  O   UNL     1      33.704 -23.650 -12.813  0.00  0.00    -0.277 OA
ATOM      2  N   UNL     1      35.940 -24.299 -12.811  0.00  0.00    -0.250 N 
ATOM      3  C   UNL     1      34.735 -23.991 -14.962  0.00  0.00    +0.018 C 
ATOM      4  C   UNL     1      35.378 -22.755 -15.582  0.00  0.00    -0.008 C 
ATOM      5  C   UNL     1      36.675 -22.338 -14.899  0.00  0.00    +0.026 C 
ATOM      6  C   UNL     1      34.731 -23.933 -13.436  0.00  0.00    +0.210 C 
ATOM      7  C   UNL     1      37.555 -23.505 -14.531  0.00  0.00    -0.009 C 
ATOM      8  C   UNL     1      37.204 -24.394 -13.489  0.00  0.00    +0.050 C 
ATOM      9  C   UNL     1      38.791 -23.650 -15.184  0.00  0.00    -0.003 C 
ATOM     10  C   UNL     1      38.140 -25.366 -13.094  0.00  0.00    +0.015 C 
ATOM     11  C   UNL     1      39.689 -24.643 -14.799  0.00  0.00    -0.000 C 
ATOM     12  C   UNL     1      39.367 -25.495 -13.749  0.00  0.00    +0.001 C 
ENDROOT
BRANCH   3  13
ATOM     13  N   UNL     1      33.354 -24.122 -15.432  0.00  0.00    +0.399 N 
ATOM     14  H1  UNL     1      32.757 -24.383 -14.645  0.00  0.00    -0.083 HD
ATOM     15  H2  UNL     1      33.320 -24.842 -16.154  0.00  0.00    -0.083 HD
BRANCH  13  16
ATOM     16  CA  UNL     1      32.881 -22.870 -15.997  0.00  0.00    +0.041 C 
BRANCH  16  18
ATOM     17  OXT UNL     1      30.451 -22.785 -15.875  0.00  0.00    -0.253 OA
ATOM     18  C   UNL     1      31.538 -22.572 -15.353  0.00  0.00    +0.293 C 
BRANCH  18  19
ATOM     19  O   UNL     1      31.664 -22.058 -14.102  0.00  0.00    -0.482 OA
ATOM     20  H   UNL     1      31.339 -21.200 -13.914  0.00  0.00    +0.295 HD
ENDBRANCH  18  19
ENDBRANCH  16  18
BRANCH  16  21
ATOM     21  C   UNL     1      32.745 -23.020 -17.518  0.00  0.00    -0.006 C 
BRANCH  21  22
ATOM     22  C   UNL     1      32.268 -21.752 -18.242  0.00  0.00    +0.025 C 
BRANCH  22  23
ATOM     23  C   UNL     1      33.325 -21.072 -19.077  0.00  0.00    -0.022 C 
ATOM     24  C   UNL     1      32.942 -20.168 -20.056  0.00  0.00    -0.004 C 
ATOM     25  C   UNL     1      34.661 -21.362 -18.850  0.00  0.00    -0.004 C 
ATOM     26  C   UNL     1      33.919 -19.539 -20.827  0.00  0.00    -0.000 C 
ATOM     27  C   UNL     1      35.638 -20.733 -19.622  0.00  0.00    -0.000 C 
ATOM     28  C   UNL     1      35.267 -19.821 -20.610  0.00  0.00    -0.000 C 
ENDBRANCH  22  23
ENDBRANCH  21  22
ENDBRANCH  16  21
ENDBRANCH  13  16
ENDBRANCH   3  13
BRANCH   2  29
ATOM     29  C   UNL     1      35.911 -24.629 -11.386  0.00  0.00    +0.208 C 
BRANCH  29  31
ATOM     30  O   UNL     1      36.049 -23.468  -9.282  0.00  0.00    -0.248 OA
ATOM     31  C   UNL     1      36.157 -23.434 -10.502  0.00  0.00    +0.335 C 
BRANCH  31  32
ATOM     32  O   UNL     1      36.507 -22.318 -11.183  0.00  0.00    -0.479 OA
ATOM     33  H   UNL     1      37.124 -21.719 -10.812  0.00  0.00    +0.295 HD
ENDBRANCH  31  32
ENDBRANCH  29  31
ENDBRANCH   2  29
TORSDOF 10
ENDMDL
MODEL 2
REMARK VINA RESULT:     -10.6      2.070      3.344
REMARK  Name = 5463984
REMARK  10 active torsions:
REMARK  status: ('A' for Active; 'I' for Inactive)
REMARK    1  A    between atoms: N_2  and  C_29
REMARK    2  A    between atoms: C_3  and  N_13
REMARK    3  A    between atoms: N_13  and  CA_16
REMARK    4  A    between atoms: CA_16  and  C_18
REMARK    5  A    between atoms: CA_16  and  C_21
REMARK    6  A    between atoms: C_18  and  O_19
REMARK    7  A    between atoms: C_21  and  C_22
REMARK    8  A    between atoms: C_22  and  C_23
REMARK    9  A    between atoms: C_29  and  C_31
REMARK   10  A    between atoms: C_31  and  O_32
REMARK                            x       y       z     vdW  Elec       q    Type
REMARK                         _______ _______ _______ _____ _____    ______ ____
ROOT
ATOM      1  O   UNL     1      32.571 -22.734 -16.054  0.00  0.00    -0.277 OA
ATOM      2  N   UNL     1      34.421 -23.734 -15.055  0.00  0.00    -0.250 N 
ATOM      3  C   UNL     1      34.607 -22.772 -17.339  0.00  0.00    +0.018 C 
ATOM      4  C   UNL     1      35.512 -21.557 -17.164  0.00  0.00    -0.008 C 
ATOM      5  C   UNL     1      36.228 -21.520 -15.819  0.00  0.00    +0.026 C 
ATOM      6  C   UNL     1      33.765 -23.045 -16.094  0.00  0.00    +0.210 C 
ATOM      7  C   UNL     1      36.734 -22.870 -15.379  0.00  0.00    -0.009 C 
ATOM      8  C   UNL     1      35.848 -23.891 -14.965  0.00  0.00    +0.050 C 
ATOM      9  C   UNL     1      38.122 -23.076 -15.296  0.00  0.00    -0.003 C 
ATOM     10  C   UNL     1      36.390 -25.069 -14.419  0.00  0.00    +0.015 C 
ATOM     11  C   UNL     1      38.637 -24.265 -14.785  0.00  0.00    -0.000 C 
ATOM     12  C   UNL     1      37.772 -25.257 -14.340  0.00  0.00    +0.001 C 
ENDROOT
BRANCH   3  13
ATOM     13  N   UNL     1      33.710 -22.565 -18.478  0.00  0.00    +0.399 N 
ATOM     14  H1  UNL     1      32.761 -22.826 -18.208  0.00  0.00    -0.083 HD
ATOM     15  H2  UNL     1      34.028 -23.145 -19.255  0.00  0.00    -0.083 HD
BRANCH  13  16
ATOM     16  CA  UNL     1      33.723 -21.174 -18.897  0.00  0.00    +0.041 C 
BRANCH  16  18
ATOM     17  OXT UNL     1      31.907 -20.082 -20.095  0.00  0.00    -0.253 OA
ATOM     18  C   UNL     1      32.281 -20.777 -19.159  0.00  0.00    +0.293 C 
BRANCH  18  19
ATOM     19  O   UNL     1      31.424 -21.300 -18.245  0.00  0.00    -0.482 OA
ATOM     20  H   UNL     1      31.503 -21.067 -17.341  0.00  0.00    +0.295 HD
ENDBRANCH  18  19
ENDBRANCH  16  18
BRANCH  16  21
ATOM     21  C   UNL     1      34.575 -21.035 -20.166  0.00  0.00    -0.006 C 
BRANCH  21  22
ATOM     22  C   UNL     1      35.406 -19.745 -20.237  0.00  0.00    +0.025 C 
BRANCH  22  23
ATOM     23  C   UNL     1      34.989 -18.790 -21.328  0.00  0.00    -0.022 C 
ATOM     24  C   UNL     1      34.350 -19.282 -22.456  0.00  0.00    -0.004 C 
ATOM     25  C   UNL     1      35.250 -17.436 -21.183  0.00  0.00    -0.004 C 
ATOM     26  C   UNL     1      33.964 -18.400 -23.464  0.00  0.00    -0.000 C 
ATOM     27  C   UNL     1      34.863 -16.554 -22.192  0.00  0.00    -0.000 C 
ATOM     28  C   UNL     1      34.220 -17.035 -23.332  0.00  0.00    -0.000 C 
ENDBRANCH  22  23
ENDBRANCH  21  22
ENDBRANCH  16  21
ENDBRANCH  13  16
ENDBRANCH   3  13
BRANCH   2  29
ATOM     29  C   UNL     1      33.606 -24.355 -14.011  0.00  0.00    +0.208 C 
BRANCH  29  31
ATOM     30  O   UNL     1      34.230 -23.465 -11.863  0.00  0.00    -0.248 OA
ATOM     31  C   UNL     1      33.438 -23.477 -12.798  0.00  0.00    +0.335 C 
BRANCH  31  32
ATOM     32  O   UNL     1      32.329 -22.703 -12.839  0.00  0.00    -0.479 OA
ATOM     33  H   UNL     1      31.644 -22.836 -12.214  0.00  0.00    +0.295 HD
ENDBRANCH  31  32
ENDBRANCH  29  31
ENDBRANCH   2  29
TORSDOF 10
ENDMDL
MODEL 3
REMARK VINA RESULT:      -9.5     13.149     17.685
REMARK  Name = 5463984
REMARK  10 active torsions:
REMARK  status: ('A' for Active; 'I' for Inactive)
REMARK    1  A    between atoms: N_2  and  C_29
REMARK    2  A    between atoms: C_3  and  N_13
REMARK    3  A    between atoms: N_13  and  CA_16
REMARK    4  A    between atoms: CA_16  and  C_18
REMARK    5  A    between atoms: CA_16  and  C_21
REMARK    6  A    between atoms: C_18  and  O_19
REMARK    7  A    between atoms: C_21  and  C_22
REMARK    8  A    between atoms: C_22  and  C_23
REMARK    9  A    between atoms: C_29  and  C_31
REMARK   10  A    between atoms: C_31  and  O_32
REMARK                            x       y       z     vdW  Elec       q    Type
REMARK                         _______ _______ _______ _____ _____    ______ ____
ROOT
ATOM      1  O   UNL     1      31.305  -7.065 -21.015  0.00  0.00    -0.277 OA
ATOM      2  N   UNL     1      31.997  -5.603 -22.690  0.00  0.00    -0.250 N 
ATOM      3  C   UNL     1      32.289  -8.054 -22.977  0.00  0.00    +0.018 C 
ATOM      4  C   UNL     1      31.308  -8.424 -24.084  0.00  0.00    -0.008 C 
ATOM      5  C   UNL     1      30.751  -7.218 -24.832  0.00  0.00    +0.026 C 
ATOM      6  C   UNL     1      31.789  -6.882 -22.135  0.00  0.00    +0.210 C 
ATOM      7  C   UNL     1      31.789  -6.160 -25.108  0.00  0.00    -0.009 C 
ATOM      8  C   UNL     1      32.325  -5.364 -24.069  0.00  0.00    +0.050 C 
ATOM      9  C   UNL     1      32.157  -5.907 -26.440  0.00  0.00    -0.003 C 
ATOM     10  C   UNL     1      33.170  -4.294 -24.414  0.00  0.00    +0.015 C 
ATOM     11  C   UNL     1      33.023  -4.863 -26.755  0.00  0.00    -0.000 C 
ATOM     12  C   UNL     1      33.523  -4.052 -25.743  0.00  0.00    +0.001 C 
ENDROOT
BRANCH   3  13
ATOM     13  N   UNL     1      32.507  -9.206 -22.099  0.00  0.00    +0.399 N 
ATOM     14  H1  UNL     1      32.066  -9.025 -21.196  0.00  0.00    -0.083 HD
ATOM     15  H2  UNL     1      33.511  -9.343 -21.981  0.00  0.00    -0.083 HD
BRANCH  13  16
ATOM     16  CA  UNL     1      31.934 -10.409 -22.678  0.00  0.00    +0.041 C 
BRANCH  16  18
ATOM     17  OXT UNL     1      31.620 -11.833 -20.728  0.00  0.00    -0.253 OA
ATOM     18  C   UNL     1      31.141 -11.095 -21.579  0.00  0.00    +0.293 C 
BRANCH  18  19
ATOM     19  O   UNL     1      29.820 -10.782 -21.620  0.00  0.00    -0.482 OA
ATOM     20  H   UNL     1      29.518 -10.097 -22.183  0.00  0.00    +0.295 HD
ENDBRANCH  18  19
ENDBRANCH  16  18
BRANCH  16  21
ATOM     21  C   UNL     1      33.065 -11.312 -23.190  0.00  0.00    -0.006 C 
BRANCH  21  22
ATOM     22  C   UNL     1      32.595 -12.500 -24.042  0.00  0.00    +0.025 C 
BRANCH  22  23
ATOM     23  C   UNL     1      33.235 -13.819 -23.686  0.00  0.00    -0.022 C 
ATOM     24  C   UNL     1      33.715 -14.018 -22.401  0.00  0.00    -0.004 C 
ATOM     25  C   UNL     1      33.331 -14.811 -24.650  0.00  0.00    -0.004 C 
ATOM     26  C   UNL     1      34.306 -15.237 -22.071  0.00  0.00    -0.000 C 
ATOM     27  C   UNL     1      33.921 -16.030 -24.320  0.00  0.00    -0.000 C 
ATOM     28  C   UNL     1      34.409 -16.244 -23.030  0.00  0.00    -0.000 C 
ENDBRANCH  22  23
ENDBRANCH  21  22
ENDBRANCH  16  21
ENDBRANCH  13  16
ENDBRANCH   3  13
BRANCH   2  29
ATOM     29  C   UNL     1      31.897  -4.440 -21.808  0.00  0.00    +0.208 C 
BRANCH  29  31
ATOM     30  O   UNL     1      29.742  -3.512 -22.344  0.00  0.00    -0.248 OA
ATOM     31  C   UNL     1      30.473  -4.044 -21.517  0.00  0.00    +0.335 C 
BRANCH  31  32
ATOM     32  O   UNL     1      30.078  -4.331 -20.255  0.00  0.00    -0.479 OA
ATOM     33  H   UNL     1      30.611  -4.073 -19.529  0.00  0.00    +0.295 HD
ENDBRANCH  31  32
ENDBRANCH  29  31
ENDBRANCH   2  29
TORSDOF 10
ENDMDL
MODEL 4
REMARK VINA RESULT:      -8.7     13.970     18.383
REMARK  Name = 5463984
REMARK  10 active torsions:
REMARK  status: ('A' for Active; 'I' for Inactive)
REMARK    1  A    between atoms: N_2  and  C_29
REMARK    2  A    between atoms: C_3  and  N_13
REMARK    3  A    between atoms: N_13  and  CA_16
REMARK    4  A    between atoms: CA_16  and  C_18
REMARK    5  A    between atoms: CA_16  and  C_21
REMARK    6  A    between atoms: C_18  and  O_19
REMARK    7  A    between atoms: C_21  and  C_22
REMARK    8  A    between atoms: C_22  and  C_23
REMARK    9  A    between atoms: C_29  and  C_31
REMARK   10  A    between atoms: C_31  and  O_32
REMARK                            x       y       z     vdW  Elec       q    Type
REMARK                         _______ _______ _______ _____ _____    ______ ____
ROOT
ATOM      1  O   UNL     1      31.291  -5.860 -21.160  0.00  0.00    -0.277 OA
ATOM      2  N   UNL     1      32.028  -4.846 -23.122  0.00  0.00    -0.250 N 
ATOM      3  C   UNL     1      32.254  -7.303 -22.830  0.00  0.00    +0.018 C 
ATOM      4  C   UNL     1      31.266  -7.894 -23.830  0.00  0.00    -0.008 C 
ATOM      5  C   UNL     1      30.746  -6.881 -24.843  0.00  0.00    +0.026 C 
ATOM      6  C   UNL     1      31.784  -5.954 -22.288  0.00  0.00    +0.210 C 
ATOM      7  C   UNL     1      31.813  -5.943 -25.347  0.00  0.00    -0.009 C 
ATOM      8  C   UNL     1      32.367  -4.942 -24.516  0.00  0.00    +0.050 C 
ATOM      9  C   UNL     1      32.192  -6.016 -26.698  0.00  0.00    -0.003 C 
ATOM     10  C   UNL     1      33.243  -4.003 -25.092  0.00  0.00    +0.015 C 
ATOM     11  C   UNL     1      33.088  -5.096 -27.238  0.00  0.00    -0.000 C 
ATOM     12  C   UNL     1      33.606  -4.087 -26.437  0.00  0.00    +0.001 C 
ENDROOT
BRANCH   3  13
ATOM     13  N   UNL     1      32.437  -8.224 -21.707  0.00  0.00    +0.399 N 
ATOM     14  H1  UNL     1      32.760  -7.699 -20.893  0.00  0.00    -0.083 HD
ATOM     15  H2  UNL     1      33.126  -8.929 -21.970  0.00  0.00    -0.083 HD
BRANCH  13  16
ATOM     16  CA  UNL     1      31.188  -8.891 -21.380  0.00  0.00    +0.041 C 
BRANCH  16  18
ATOM     17  OXT UNL     1      30.218  -9.509 -19.234  0.00  0.00    -0.253 OA
ATOM     18  C   UNL     1      31.080  -8.912 -19.865  0.00  0.00    +0.293 C 
BRANCH  18  19
ATOM     19  O   UNL     1      32.074  -8.208 -19.264  0.00  0.00    -0.482 OA
ATOM     20  H   UNL     1      32.216  -8.293 -18.342  0.00  0.00    +0.295 HD
ENDBRANCH  18  19
ENDBRANCH  16  18
BRANCH  16  21
ATOM     21  C   UNL     1      31.208 -10.315 -21.953  0.00  0.00    -0.006 C 
BRANCH  21  22
ATOM     22  C   UNL     1      31.543 -11.409 -20.928  0.00  0.00    +0.025 C 
BRANCH  22  23
ATOM     23  C   UNL     1      32.413 -12.521 -21.461  0.00  0.00    -0.022 C 
ATOM     24  C   UNL     1      32.625 -12.625 -22.826  0.00  0.00    -0.004 C 
ATOM     25  C   UNL     1      32.988 -13.418 -20.573  0.00  0.00    -0.004 C 
ATOM     26  C   UNL     1      33.429 -13.652 -23.318  0.00  0.00    -0.000 C 
ATOM     27  C   UNL     1      33.793 -14.445 -21.066  0.00  0.00    -0.000 C 
ATOM     28  C   UNL     1      34.014 -14.562 -22.438  0.00  0.00    -0.000 C 
ENDBRANCH  22  23
ENDBRANCH  21  22
ENDBRANCH  16  21
ENDBRANCH  13  16
ENDBRANCH   3  13
BRANCH   2  29
ATOM     29  C   UNL     1      31.959  -3.507 -22.536  0.00  0.00    +0.208 C 
BRANCH  29  31
ATOM     30  O   UNL     1      30.056  -2.426 -23.537  0.00  0.00    -0.248 OA
ATOM     31  C   UNL     1      30.565  -2.934 -22.545  0.00  0.00    +0.335 C 
BRANCH  31  32
ATOM     32  O   UNL     1      29.931  -3.033 -21.354  0.00  0.00    -0.479 OA
ATOM     33  H   UNL     1      30.429  -3.110 -20.564  0.00  0.00    +0.295 HD
ENDBRANCH  31  32
ENDBRANCH  29  31
ENDBRANCH   2  29
TORSDOF 10
ENDMDL
MODEL 5
REMARK VINA RESULT:      -8.7      2.345      3.524
REMARK  Name = 5463984
REMARK  10 active torsions:
REMARK  status: ('A' for Active; 'I' for Inactive)
REMARK    1  A    between atoms: N_2  and  C_29
REMARK    2  A    between atoms: C_3  and  N_13
REMARK    3  A    between atoms: N_13  and  CA_16
REMARK    4  A    between atoms: CA_16  and  C_18
REMARK    5  A    between atoms: CA_16  and  C_21
REMARK    6  A    between atoms: C_18  and  O_19
REMARK    7  A    between atoms: C_21  and  C_22
REMARK    8  A    between atoms: C_22  and  C_23
REMARK    9  A    between atoms: C_29  and  C_31
REMARK   10  A    between atoms: C_31  and  O_32
REMARK                            x       y       z     vdW  Elec       q    Type
REMARK                         _______ _______ _______ _____ _____    ______ ____
ROOT
ATOM      1  O   UNL     1      35.532 -26.080 -15.819  0.00  0.00    -0.277 OA
ATOM      2  N   UNL     1      36.270 -25.343 -13.737  0.00  0.00    -0.250 N 
ATOM      3  C   UNL     1      34.802 -23.893 -15.122  0.00  0.00    +0.018 C 
ATOM      4  C   UNL     1      33.481 -23.857 -14.362  0.00  0.00    -0.008 C 
ATOM      5  C   UNL     1      33.582 -24.401 -12.941  0.00  0.00    +0.026 C 
ATOM      6  C   UNL     1      35.538 -25.219 -14.934  0.00  0.00    +0.210 C 
ATOM      7  C   UNL     1      34.839 -23.972 -12.230  0.00  0.00    -0.009 C 
ATOM      8  C   UNL     1      36.106 -24.483 -12.596  0.00  0.00    +0.050 C 
ATOM      9  C   UNL     1      34.729 -23.114 -11.121  0.00  0.00    -0.003 C 
ATOM     10  C   UNL     1      37.216 -24.163 -11.793  0.00  0.00    +0.015 C 
ATOM     11  C   UNL     1      35.848 -22.783 -10.361  0.00  0.00    -0.000 C 
ATOM     12  C   UNL     1      37.088 -23.314 -10.692  0.00  0.00    +0.001 C 
ENDROOT
BRANCH   3  13
ATOM     13  N   UNL     1      34.560 -23.688 -16.552  0.00  0.00    +0.399 N 
ATOM     14  H1  UNL     1      33.937 -24.421 -16.894  0.00  0.00    -0.083 HD
ATOM     15  H2  UNL     1      35.453 -23.725 -17.044  0.00  0.00    -0.083 HD
BRANCH  13  16
ATOM     16  CA  UNL     1      33.948 -22.391 -16.789  0.00  0.00    +0.041 C 
BRANCH  16  18
ATOM     17  OXT UNL     1      31.863 -21.868 -17.932  0.00  0.00    -0.253 OA
ATOM     18  C   UNL     1      32.831 -22.606 -17.795  0.00  0.00    +0.293 C 
BRANCH  18  19
ATOM     19  O   UNL     1      33.028 -23.708 -18.563  0.00  0.00    -0.482 OA
ATOM     20  H   UNL     1      32.967 -23.646 -19.496  0.00  0.00    +0.295 HD
ENDBRANCH  18  19
ENDBRANCH  16  18
BRANCH  16  21
ATOM     21  C   UNL     1      35.008 -21.424 -17.335  0.00  0.00    -0.006 C 
BRANCH  21  22
ATOM     22  C   UNL     1      35.411 -21.681 -18.795  0.00  0.00    +0.025 C 
BRANCH  22  23
ATOM     23  C   UNL     1      35.196 -20.508 -19.720  0.00  0.00    -0.022 C 
ATOM     24  C   UNL     1      36.266 -19.688 -20.040  0.00  0.00    -0.004 C 
ATOM     25  C   UNL     1      33.930 -20.271 -20.235  0.00  0.00    -0.004 C 
ATOM     26  C   UNL     1      36.068 -18.604 -20.895  0.00  0.00    -0.000 C 
ATOM     27  C   UNL     1      33.732 -19.188 -21.090  0.00  0.00    -0.000 C 
ATOM     28  C   UNL     1      34.801 -18.354 -21.420  0.00  0.00    -0.000 C 
ENDBRANCH  22  23
ENDBRANCH  21  22
ENDBRANCH  16  21
ENDBRANCH  13  16
ENDBRANCH   3  13
BRANCH   2  29
ATOM     29  C   UNL     1      37.283 -26.395 -13.649  0.00  0.00    +0.208 C 
BRANCH  29  31
ATOM     30  O   UNL     1      39.660 -26.075 -13.446  0.00  0.00    -0.248 OA
ATOM     31  C   UNL     1      38.642 -25.942 -14.115  0.00  0.00    +0.335 C 
BRANCH  31  32
ATOM     32  O   UNL     1      38.632 -25.373 -15.343  0.00  0.00    -0.479 OA
ATOM     33  H   UNL     1      38.387 -25.882 -16.091  0.00  0.00    +0.295 HD
ENDBRANCH  31  32
ENDBRANCH  29  31
ENDBRANCH   2  29
TORSDOF 10
ENDMDL
MODEL 6
REMARK VINA RESULT:      -8.6      6.592     11.553
REMARK  Name = 5463984
REMARK  10 active torsions:
REMARK  status: ('A' for Active; 'I' for Inactive)
REMARK    1  A    between atoms: N_2  and  C_29
REMARK    2  A    between atoms: C_3  and  N_13
REMARK    3  A    between atoms: N_13  and  CA_16
REMARK    4  A    between atoms: CA_16  and  C_18
REMARK    5  A    between atoms: CA_16  and  C_21
REMARK    6  A    between atoms: C_18  and  O_19
REMARK    7  A    between atoms: C_21  and  C_22
REMARK    8  A    between atoms: C_22  and  C_23
REMARK    9  A    between atoms: C_29  and  C_31
REMARK   10  A    between atoms: C_31  and  O_32
REMARK                            x       y       z     vdW  Elec       q    Type
REMARK                         _______ _______ _______ _____ _____    ______ ____
ROOT
ATOM      1  O   UNL     1      34.370 -16.156 -20.835  0.00  0.00    -0.277 OA
ATOM      2  N   UNL     1      33.752 -14.234 -21.996  0.00  0.00    -0.250 N 
ATOM      3  C   UNL     1      34.908 -16.088 -23.181  0.00  0.00    +0.018 C 
ATOM      4  C   UNL     1      33.845 -16.661 -24.112  0.00  0.00    -0.008 C 
ATOM      5  C   UNL     1      32.615 -15.772 -24.252  0.00  0.00    +0.026 C 
ATOM      6  C   UNL     1      34.303 -15.527 -21.895  0.00  0.00    +0.210 C 
ATOM      7  C   UNL     1      32.951 -14.306 -24.352  0.00  0.00    -0.009 C 
ATOM      8  C   UNL     1      33.440 -13.584 -23.240  0.00  0.00    +0.050 C 
ATOM      9  C   UNL     1      32.683 -13.633 -25.557  0.00  0.00    -0.003 C 
ATOM     10  C   UNL     1      33.585 -12.189 -23.357  0.00  0.00    +0.015 C 
ATOM     11  C   UNL     1      32.867 -12.256 -25.661  0.00  0.00    -0.000 C 
ATOM     12  C   UNL     1      33.310 -11.534 -24.559  0.00  0.00    +0.001 C 
ENDROOT
BRANCH   3  13
ATOM     13  N   UNL     1      35.878 -17.128 -22.831  0.00  0.00    +0.399 N 
ATOM     14  H1  UNL     1      36.777 -16.691 -22.625  0.00  0.00    -0.083 HD
ATOM     15  H2  UNL     1      35.969 -17.769 -23.619  0.00  0.00    -0.083 HD
BRANCH  13  16
ATOM     16  CA  UNL     1      35.432 -17.876 -21.667  0.00  0.00    +0.041 C 
BRANCH  16  18
ATOM     17  OXT UNL     1      36.700 -18.663 -19.744  0.00  0.00    -0.253 OA
ATOM     18  C   UNL     1      36.679 -18.311 -20.917  0.00  0.00    +0.293 C 
BRANCH  18  19
ATOM     19  O   UNL     1      37.789 -18.294 -21.699  0.00  0.00    -0.482 OA
ATOM     20  H   UNL     1      38.621 -18.080 -21.326  0.00  0.00    +0.295 HD
ENDBRANCH  18  19
ENDBRANCH  16  18
BRANCH  16  21
ATOM     21  C   UNL     1      34.611 -19.088 -22.128  0.00  0.00    -0.006 C 
BRANCH  21  22
ATOM     22  C   UNL     1      33.295 -19.293 -21.364  0.00  0.00    +0.025 C 
BRANCH  22  23
ATOM     23  C   UNL     1      33.381 -20.274 -20.220  0.00  0.00    -0.022 C 
ATOM     24  C   UNL     1      34.600 -20.858 -19.915  0.00  0.00    -0.004 C 
ATOM     25  C   UNL     1      32.238 -20.573 -19.494  0.00  0.00    -0.004 C 
ATOM     26  C   UNL     1      34.680 -21.764 -18.858  0.00  0.00    -0.000 C 
ATOM     27  C   UNL     1      32.318 -21.479 -18.437  0.00  0.00    -0.000 C 
ATOM     28  C   UNL     1      33.539 -22.074 -18.118  0.00  0.00    -0.000 C 
ENDBRANCH  22  23
ENDBRANCH  21  22
ENDBRANCH  16  21
ENDBRANCH  13  16
ENDBRANCH   3  13
BRANCH   2  29
ATOM     29  C   UNL     1      33.501 -13.489 -20.762  0.00  0.00    +0.208 C 
BRANCH  29  31
ATOM     30  O   UNL     1      31.624 -14.391 -19.556  0.00  0.00    -0.248 OA
ATOM     31  C   UNL     1      32.060 -13.544 -20.327  0.00  0.00    +0.335 C 
BRANCH  31  32
ATOM     32  O   UNL     1      31.292 -12.570 -20.868  0.00  0.00    -0.479 OA
ATOM     33  H   UNL     1      30.364 -12.585 -20.745  0.00  0.00    +0.295 HD
ENDBRANCH  31  32
ENDBRANCH  29  31
ENDBRANCH   2  29
TORSDOF 10
ENDMDL
MODEL 7
REMARK VINA RESULT:      -8.6     13.273     17.653
REMARK  Name = 5463984
REMARK  10 active torsions:
REMARK  status: ('A' for Active; 'I' for Inactive)
REMARK    1  A    between atoms: N_2  and  C_29
REMARK    2  A    between atoms: C_3  and  N_13
REMARK    3  A    between atoms: N_13  and  CA_16
REMARK    4  A    between atoms: CA_16  and  C_18
REMARK    5  A    between atoms: CA_16  and  C_21
REMARK    6  A    between atoms: C_18  and  O_19
REMARK    7  A    between atoms: C_21  and  C_22
REMARK    8  A    between atoms: C_22  and  C_23
REMARK    9  A    between atoms: C_29  and  C_31
REMARK   10  A    between atoms: C_31  and  O_32
REMARK                            x       y       z     vdW  Elec       q    Type
REMARK                         _______ _______ _______ _____ _____    ______ ____
ROOT
ATOM      1  O   UNL     1      34.620  -7.656 -23.192  0.00  0.00    -0.277 OA
ATOM      2  N   UNL     1      33.148  -5.853 -23.218  0.00  0.00    -0.250 N 
ATOM      3  C   UNL     1      32.491  -7.980 -22.116  0.00  0.00    +0.018 C 
ATOM      4  C   UNL     1      32.451  -7.639 -20.630  0.00  0.00    -0.008 C 
ATOM      5  C   UNL     1      32.494  -6.142 -20.349  0.00  0.00    +0.026 C 
ATOM      6  C   UNL     1      33.538  -7.159 -22.866  0.00  0.00    +0.210 C 
ATOM      7  C   UNL     1      31.648  -5.334 -21.300  0.00  0.00    -0.009 C 
ATOM      8  C   UNL     1      32.017  -5.167 -22.654  0.00  0.00    +0.050 C 
ATOM      9  C   UNL     1      30.520  -4.664 -20.797  0.00  0.00    -0.003 C 
ATOM     10  C   UNL     1      31.271  -4.276 -23.447  0.00  0.00    +0.015 C 
ATOM     11  C   UNL     1      29.775  -3.813 -21.610  0.00  0.00    -0.000 C 
ATOM     12  C   UNL     1      30.155  -3.614 -22.932  0.00  0.00    +0.001 C 
ENDROOT
BRANCH   3  13
ATOM     13  N   UNL     1      32.791  -9.402 -22.292  0.00  0.00    +0.399 N 
ATOM     14  H1  UNL     1      33.151  -9.780 -21.415  0.00  0.00    -0.083 HD
ATOM     15  H2  UNL     1      33.488  -9.501 -23.031  0.00  0.00    -0.083 HD
BRANCH  13  16
ATOM     16  CA  UNL     1      31.597 -10.137 -22.674  0.00  0.00    +0.041 C 
BRANCH  16  18
ATOM     17  OXT UNL     1      31.467 -10.776 -20.329  0.00  0.00    -0.253 OA
ATOM     18  C   UNL     1      30.900 -10.548 -21.389  0.00  0.00    +0.293 C 
BRANCH  18  19
ATOM     19  O   UNL     1      29.550 -10.614 -21.528  0.00  0.00    -0.482 OA
ATOM     20  H   UNL     1      28.997 -10.522 -20.778  0.00  0.00    +0.295 HD
ENDBRANCH  18  19
ENDBRANCH  16  18
BRANCH  16  21
ATOM     21  C   UNL     1      32.001 -11.364 -23.502  0.00  0.00    -0.006 C 
BRANCH  21  22
ATOM     22  C   UNL     1      33.483 -11.750 -23.387  0.00  0.00    +0.025 C 
BRANCH  22  23
ATOM     23  C   UNL     1      33.735 -13.073 -22.707  0.00  0.00    -0.022 C 
ATOM     24  C   UNL     1      34.104 -14.171 -23.468  0.00  0.00    -0.004 C 
ATOM     25  C   UNL     1      33.595 -13.167 -21.331  0.00  0.00    -0.004 C 
ATOM     26  C   UNL     1      34.337 -15.394 -22.840  0.00  0.00    -0.000 C 
ATOM     27  C   UNL     1      33.829 -14.390 -20.702  0.00  0.00    -0.000 C 
ATOM     28  C   UNL     1      34.200 -15.504 -21.456  0.00  0.00    -0.000 C 
ENDBRANCH  22  23
ENDBRANCH  21  22
ENDBRANCH  16  21
ENDBRANCH  13  16
ENDBRANCH   3  13
BRANCH   2  29
ATOM     29  C   UNL     1      33.924  -5.149 -24.240  0.00  0.00    +0.208 C 
BRANCH  29  31
ATOM     30  O   UNL     1      32.742  -5.825 -26.225  0.00  0.00    -0.248 OA
ATOM     31  C   UNL     1      33.798  -5.773 -25.606  0.00  0.00    +0.335 C 
BRANCH  31  32
ATOM     32  O   UNL     1      34.962  -6.273 -26.082  0.00  0.00    -0.479 OA
ATOM     33  H   UNL     1      35.709  -5.714 -26.169  0.00  0.00    +0.295 HD
ENDBRANCH  31  32
ENDBRANCH  29  31
ENDBRANCH   2  29
TORSDOF 10
ENDMDL
MODEL 8
REMARK VINA RESULT:      -8.5      2.133      4.276
REMARK  Name = 5463984
REMARK  10 active torsions:
REMARK  status: ('A' for Active; 'I' for Inactive)
REMARK    1  A    between atoms: N_2  and  C_29
REMARK    2  A    between atoms: C_3  and  N_13
REMARK    3  A    between atoms: N_13  and  CA_16
REMARK    4  A    between atoms: CA_16  and  C_18
REMARK    5  A    between atoms: CA_16  and  C_21
REMARK    6  A    between atoms: C_18  and  O_19
REMARK    7  A    between atoms: C_21  and  C_22
REMARK    8  A    between atoms: C_22  and  C_23
REMARK    9  A    between atoms: C_29  and  C_31
REMARK   10  A    between atoms: C_31  and  O_32
REMARK                            x       y       z     vdW  Elec       q    Type
REMARK                         _______ _______ _______ _____ _____    ______ ____
ROOT
ATOM      1  O   UNL     1      33.738 -21.966 -14.138  0.00  0.00    -0.277 OA
ATOM      2  N   UNL     1      35.251 -23.692 -13.749  0.00  0.00    -0.250 N 
ATOM      3  C   UNL     1      35.252 -22.504 -15.931  0.00  0.00    +0.018 C 
ATOM      4  C   UNL     1      36.563 -21.724 -15.936  0.00  0.00    -0.008 C 
ATOM      5  C   UNL     1      37.529 -22.153 -14.838  0.00  0.00    +0.026 C 
ATOM      6  C   UNL     1      34.682 -22.661 -14.523  0.00  0.00    +0.210 C 
ATOM      7  C   UNL     1      37.576 -23.646 -14.638  0.00  0.00    -0.009 C 
ATOM      8  C   UNL     1      36.492 -24.348 -14.062  0.00  0.00    +0.050 C 
ATOM      9  C   UNL     1      38.762 -24.333 -14.951  0.00  0.00    -0.003 C 
ATOM     10  C   UNL     1      36.660 -25.711 -13.760  0.00  0.00    +0.015 C 
ATOM     11  C   UNL     1      38.893 -25.691 -14.676  0.00  0.00    -0.000 C 
ATOM     12  C   UNL     1      37.846 -26.378 -14.074  0.00  0.00    +0.001 C 
ENDROOT
BRANCH   3  13
ATOM     13  N   UNL     1      34.263 -21.820 -16.766  0.00  0.00    +0.399 N 
ATOM     14  H1  UNL     1      34.696 -21.001 -17.195  0.00  0.00    -0.083 HD
ATOM     15  H2  UNL     1      33.478 -21.538 -16.179  0.00  0.00    -0.083 HD
BRANCH  13  16
ATOM     16  CA  UNL     1      33.773 -22.703 -17.811  0.00  0.00    +0.041 C 
BRANCH  16  18
ATOM     17  OXT UNL     1      32.403 -21.775 -19.596  0.00  0.00    -0.253 OA
ATOM     18  C   UNL     1      33.483 -21.837 -19.024  0.00  0.00    +0.293 C 
BRANCH  18  19
ATOM     19  O   UNL     1      34.559 -21.102 -19.406  0.00  0.00    -0.482 OA
ATOM     20  H   UNL     1      34.505 -20.551 -20.162  0.00  0.00    +0.295 HD
ENDBRANCH  18  19
ENDBRANCH  16  18
BRANCH  16  21
ATOM     21  C   UNL     1      32.502 -23.412 -17.320  0.00  0.00    -0.006 C 
BRANCH  21  22
ATOM     22  C   UNL     1      31.559 -22.525 -16.492  0.00  0.00    +0.025 C 
BRANCH  22  23
ATOM     23  C   UNL     1      30.541 -23.284 -15.677  0.00  0.00    -0.022 C 
ATOM     24  C   UNL     1      30.966 -24.067 -14.615  0.00  0.00    -0.004 C 
ATOM     25  C   UNL     1      29.197 -23.183 -16.003  0.00  0.00    -0.004 C 
ATOM     26  C   UNL     1      30.025 -24.768 -13.861  0.00  0.00    -0.000 C 
ATOM     27  C   UNL     1      28.257 -23.884 -15.249  0.00  0.00    -0.000 C 
ATOM     28  C   UNL     1      28.670 -24.676 -14.178  0.00  0.00    -0.000 C 
ENDBRANCH  22  23
ENDBRANCH  21  22
ENDBRANCH  16  21
ENDBRANCH  13  16
ENDBRANCH   3  13
BRANCH   2  29
ATOM     29  C   UNL     1      34.527 -24.148 -12.562  0.00  0.00    +0.208 C 
BRANCH  29  31
ATOM     30  O   UNL     1      35.858 -22.730 -11.144  0.00  0.00    -0.248 OA
ATOM     31  C   UNL     1      35.207 -23.760 -11.275  0.00  0.00    +0.335 C 
BRANCH  31  32
ATOM     32  O   UNL     1      35.033 -24.658 -10.278  0.00  0.00    -0.479 OA
ATOM     33  H   UNL     1      34.496 -24.441  -9.542  0.00  0.00    +0.295 HD
ENDBRANCH  31  32
ENDBRANCH  29  31
ENDBRANCH   2  29
TORSDOF 10
ENDMDL
