MODEL 1
REMARK VINA RESULT:     -12.0      0.000      0.000
REMARK  Name = 16048422
REMARK  11 active torsions:
REMARK  status: ('A' for Active; 'I' for Inactive)
REMARK    1  A    between atoms: C_1  and  C_4
REMARK    2  A    between atoms: C_1  and  N_18
REMARK    3  A    between atoms: C_1  and  C_33
REMARK    4  A    between atoms: N_3  and  C_6
REMARK    5  A    between atoms: C_6  and  C_9
REMARK    6  A    between atoms: C_9  and  C_11
REMARK    7  A    between atoms: C_19  and  C_21
REMARK    8  A    between atoms: C_24  and  C_27
REMARK    9  A    between atoms: C_33  and  C_34
REMARK   10  A    between atoms: C_34  and  C_36
REMARK   11  A    between atoms: C_36  and  O_37
REMARK                            x       y       z     vdW  Elec       q    Type
REMARK                         _______ _______ _______ _____ _____    ______ ____
ROOT
ATOM      1  C   UNL     1      35.978 -23.234 -15.742  0.00  0.00    +0.149 C 
ENDROOT
BRANCH   1   4
ATOM      2  O   UNL     1      35.138 -21.858 -13.939  0.00  0.00    -0.273 OA
ATOM      3  N   UNL     1      33.941 -23.754 -14.544  0.00  0.00    -0.306 N 
ATOM      4  C   UNL     1      34.987 -22.850 -14.651  0.00  0.00    +0.240 C 
ATOM      5  H   UNL     1      33.916 -24.517 -15.166  0.00  0.00    +0.149 HD
BRANCH   3   6
ATOM      6  C   UNL     1      32.887 -23.633 -13.563  0.00  0.00    +0.061 C 
ATOM      7  C   UNL     1      31.951 -24.846 -13.673  0.00  0.00    +0.020 C 
ATOM      8  C   UNL     1      33.533 -23.637 -12.167  0.00  0.00    +0.020 C 
BRANCH   6   9
ATOM      9  C   UNL     1      32.122 -22.296 -13.746  0.00  0.00    +0.044 C 
BRANCH   9  11
ATOM     10  F   UNL     1      27.612 -22.477 -17.129  0.00  0.00    -0.204 F 
ATOM     11  C   UNL     1      30.913 -22.345 -14.653  0.00  0.00    -0.020 C 
ATOM     12  C   UNL     1      29.630 -22.341 -14.105  0.00  0.00    -0.002 C 
ATOM     13  C   UNL     1      31.081 -22.393 -16.036  0.00  0.00    -0.002 C 
ATOM     14  C   UNL     1      28.515 -22.385 -14.942  0.00  0.00    +0.029 C 
ATOM     15  C   UNL     1      29.966 -22.436 -16.873  0.00  0.00    +0.029 C 
ATOM     16  C   UNL     1      28.683 -22.433 -16.325  0.00  0.00    +0.140 C 
ENDBRANCH   9  11
ENDBRANCH   6   9
ENDBRANCH   3   6
ENDBRANCH   1   4
BRANCH   1  18
ATOM     17  O   UNL     1      33.741 -23.204 -17.541  0.00  0.00    -0.270 OA
ATOM     18  N   UNL     1      35.751 -22.301 -16.818  0.00  0.00    -0.295 N 
ATOM     19  C   UNL     1      34.634 -22.367 -17.638  0.00  0.00    +0.246 C 
ATOM     20  H   UNL     1      36.413 -21.591 -16.977  0.00  0.00    +0.150 HD
BRANCH  19  21
ATOM     21  C   UNL     1      34.560 -21.350 -18.719  0.00  0.00    +0.053 C 
ATOM     22  C   UNL     1      35.731 -20.799 -19.239  0.00  0.00    +0.005 C 
ATOM     23  C   UNL     1      33.320 -20.947 -19.213  0.00  0.00    +0.005 C 
ATOM     24  C   UNL     1      34.422 -19.441 -20.748  0.00  0.00    +0.000 C 
ATOM     25  C   UNL     1      35.662 -19.844 -20.254  0.00  0.00    +0.000 C 
ATOM     26  C   UNL     1      33.250 -19.992 -20.228  0.00  0.00    +0.000 C 
BRANCH  24  27
ATOM     27  C   UNL     1      34.349 -18.451 -21.800  0.00  0.00    +0.000 C 
ATOM     28  C   UNL     1      33.876 -18.808 -23.063  0.00  0.00    +0.000 C 
ATOM     29  C   UNL     1      34.750 -17.138 -21.552  0.00  0.00    +0.000 C 
ATOM     30  C   UNL     1      33.805 -17.853 -24.077  0.00  0.00    +0.000 C 
ATOM     31  C   UNL     1      34.680 -16.183 -22.567  0.00  0.00    +0.000 C 
ATOM     32  C   UNL     1      34.207 -16.541 -23.829  0.00  0.00    +0.000 C 
ENDBRANCH  24  27
ENDBRANCH  19  21
ENDBRANCH   1  18
BRANCH   1  33
ATOM     33  C   UNL     1      37.428 -23.151 -15.249  0.00  0.00    +0.041 C 
BRANCH  33  34
ATOM     34  C   UNL     1      37.937 -24.425 -14.571  0.00  0.00    +0.112 C 
BRANCH  34  36
ATOM     35  O   UNL     1      40.260 -24.162 -13.884  0.00  0.00    -0.250 OA
ATOM     36  C   UNL     1      39.436 -24.600 -14.676  0.00  0.00    +0.314 C 
BRANCH  36  37
ATOM     37  O   UNL     1      39.775 -25.344 -15.761  0.00  0.00    -0.480 OA
ATOM     38  H   UNL     1      39.486 -26.232 -15.831  0.00  0.00    +0.295 HD
ENDBRANCH  36  37
ENDBRANCH  34  36
ENDBRANCH  33  34
ENDBRANCH   1  33
TORSDOF 11
ENDMDL
MODEL 2
REMARK VINA RESULT:     -11.8      1.624      2.567
REMARK  Name = 16048422
REMARK  11 active torsions:
REMARK  status: ('A' for Active; 'I' for Inactive)
REMARK    1  A    between atoms: C_1  and  C_4
REMARK    2  A    between atoms: C_1  and  N_18
REMARK    3  A    between atoms: C_1  and  C_33
REMARK    4  A    between atoms: N_3  and  C_6
REMARK    5  A    between atoms: C_6  and  C_9
REMARK    6  A    between atoms: C_9  and  C_11
REMARK    7  A    between atoms: C_19  and  C_21
REMARK    8  A    between atoms: C_24  and  C_27
REMARK    9  A    between atoms: C_33  and  C_34
REMARK   10  A    between atoms: C_34  and  C_36
REMARK   11  A    between atoms: C_36  and  O_37
REMARK                            x       y       z     vdW  Elec       q    Type
REMARK                         _______ _______ _______ _____ _____    ______ ____
ROOT
ATOM      1  C   UNL     1      33.849 -23.347 -15.238  0.00  0.00    +0.149 C 
ENDROOT
BRANCH   1   4
ATOM      2  O   UNL     1      32.267 -22.045 -13.953  0.00  0.00    -0.273 OA
ATOM      3  N   UNL     1      31.624 -24.141 -14.717  0.00  0.00    -0.306 N 
ATOM      4  C   UNL     1      32.506 -23.080 -14.571  0.00  0.00    +0.240 C 
ATOM      5  H   UNL     1      31.917 -24.926 -15.234  0.00  0.00    +0.149 HD
BRANCH   3   6
ATOM      6  C   UNL     1      30.296 -24.149 -14.147  0.00  0.00    +0.061 C 
ATOM      7  C   UNL     1      29.404 -25.103 -14.957  0.00  0.00    +0.020 C 
ATOM      8  C   UNL     1      30.399 -24.678 -12.707  0.00  0.00    +0.020 C 
BRANCH   6   9
ATOM      9  C   UNL     1      29.711 -22.713 -14.103  0.00  0.00    +0.044 C 
BRANCH   9  11
ATOM     10  F   UNL     1      25.572 -21.619 -17.775  0.00  0.00    -0.204 F 
ATOM     11  C   UNL     1      28.601 -22.420 -15.088  0.00  0.00    -0.020 C 
ATOM     12  C   UNL     1      28.800 -22.645 -16.450  0.00  0.00    -0.002 C 
ATOM     13  C   UNL     1      27.379 -21.924 -14.633  0.00  0.00    -0.002 C 
ATOM     14  C   UNL     1      27.776 -22.375 -17.358  0.00  0.00    +0.029 C 
ATOM     15  C   UNL     1      26.355 -21.655 -15.541  0.00  0.00    +0.029 C 
ATOM     16  C   UNL     1      26.554 -21.879 -16.903  0.00  0.00    +0.140 C 
ENDBRANCH   9  11
ENDBRANCH   6   9
ENDBRANCH   3   6
ENDBRANCH   1   4
BRANCH   1  18
ATOM     17  O   UNL     1      33.043 -23.832 -17.951  0.00  0.00    -0.270 OA
ATOM     18  N   UNL     1      33.927 -22.417 -16.339  0.00  0.00    -0.295 N 
ATOM     19  C   UNL     1      33.510 -22.745 -17.621  0.00  0.00    +0.246 C 
ATOM     20  H   UNL     1      34.289 -21.518 -16.175  0.00  0.00    +0.150 HD
BRANCH  19  21
ATOM     21  C   UNL     1      33.681 -21.686 -18.650  0.00  0.00    +0.053 C 
ATOM     22  C   UNL     1      32.561 -21.086 -19.226  0.00  0.00    +0.005 C 
ATOM     23  C   UNL     1      34.961 -21.293 -19.038  0.00  0.00    +0.005 C 
ATOM     24  C   UNL     1      34.002 -19.699 -20.581  0.00  0.00    +0.000 C 
ATOM     25  C   UNL     1      32.722 -20.093 -20.192  0.00  0.00    +0.000 C 
ATOM     26  C   UNL     1      35.122 -20.299 -20.004  0.00  0.00    +0.000 C 
BRANCH  24  27
ATOM     27  C   UNL     1      34.170 -18.669 -21.582  0.00  0.00    +0.000 C 
ATOM     28  C   UNL     1      34.723 -17.437 -21.231  0.00  0.00    +0.000 C 
ATOM     29  C   UNL     1      33.780 -18.907 -22.901  0.00  0.00    +0.000 C 
ATOM     30  C   UNL     1      34.886 -16.444 -22.197  0.00  0.00    +0.000 C 
ATOM     31  C   UNL     1      33.942 -17.913 -23.866  0.00  0.00    +0.000 C 
ATOM     32  C   UNL     1      34.495 -16.682 -23.514  0.00  0.00    +0.000 C 
ENDBRANCH  24  27
ENDBRANCH  19  21
ENDBRANCH   1  18
BRANCH   1  33
ATOM     33  C   UNL     1      35.018 -23.136 -14.268  0.00  0.00    +0.041 C 
BRANCH  33  34
ATOM     34  C   UNL     1      35.627 -24.431 -13.725  0.00  0.00    +0.112 C 
BRANCH  34  36
ATOM     35  O   UNL     1      35.696 -26.192 -15.407  0.00  0.00    -0.250 OA
ATOM     36  C   UNL     1      36.257 -25.292 -14.797  0.00  0.00    +0.314 C 
BRANCH  36  37
ATOM     37  O   UNL     1      37.544 -24.926 -15.036  0.00  0.00    -0.480 OA
ATOM     38  H   UNL     1      37.887 -24.143 -14.653  0.00  0.00    +0.295 HD
ENDBRANCH  36  37
ENDBRANCH  34  36
ENDBRANCH  33  34
ENDBRANCH   1  33
TORSDOF 11
ENDMDL
MODEL 3
REMARK VINA RESULT:     -11.7      3.319      6.465
REMARK  Name = 16048422
REMARK  11 active torsions:
REMARK  status: ('A' for Active; 'I' for Inactive)
REMARK    1  A    between atoms: C_1  and  C_4
REMARK    2  A    between atoms: C_1  and  N_18
REMARK    3  A    between atoms: C_1  and  C_33
REMARK    4  A    between atoms: N_3  and  C_6
REMARK    5  A    between atoms: C_6  and  C_9
REMARK    6  A    between atoms: C_9  and  C_11
REMARK    7  A    between atoms: C_19  and  C_21
REMARK    8  A    between atoms: C_24  and  C_27
REMARK    9  A    between atoms: C_33  and  C_34
REMARK   10  A    between atoms: C_34  and  C_36
REMARK   11  A    between atoms: C_36  and  O_37
REMARK                            x       y       z     vdW  Elec       q    Type
REMARK                         _______ _______ _______ _____ _____    ______ ____
ROOT
ATOM      1  C   UNL     1      30.908 -22.991 -14.846  0.00  0.00    +0.149 C 
ENDROOT
BRANCH   1   4
ATOM      2  O   UNL     1      31.841 -24.951 -13.779  0.00  0.00    -0.273 OA
ATOM      3  N   UNL     1      33.203 -23.096 -14.086  0.00  0.00    -0.306 N 
ATOM      4  C   UNL     1      32.015 -23.805 -14.189  0.00  0.00    +0.240 C 
ATOM      5  H   UNL     1      33.235 -22.181 -14.449  0.00  0.00    +0.149 HD
BRANCH   3   6
ATOM      6  C   UNL     1      34.395 -23.633 -13.472  0.00  0.00    +0.061 C 
ATOM      7  C   UNL     1      34.135 -23.858 -11.975  0.00  0.00    +0.020 C 
ATOM      8  C   UNL     1      34.696 -24.992 -14.126  0.00  0.00    +0.020 C 
BRANCH   6   9
ATOM      9  C   UNL     1      35.605 -22.693 -13.711  0.00  0.00    +0.044 C 
BRANCH   9  11
ATOM     10  F   UNL     1      40.600 -25.223 -14.393  0.00  0.00    -0.204 F 
ATOM     11  C   UNL     1      36.944 -23.371 -13.894  0.00  0.00    -0.020 C 
ATOM     12  C   UNL     1      37.511 -24.090 -12.842  0.00  0.00    -0.002 C 
ATOM     13  C   UNL     1      37.612 -23.277 -15.115  0.00  0.00    -0.002 C 
ATOM     14  C   UNL     1      38.746 -24.716 -13.011  0.00  0.00    +0.029 C 
ATOM     15  C   UNL     1      38.847 -23.904 -15.284  0.00  0.00    +0.029 C 
ATOM     16  C   UNL     1      39.414 -24.623 -14.231  0.00  0.00    +0.140 C 
ENDBRANCH   9  11
ENDBRANCH   6   9
ENDBRANCH   3   6
ENDBRANCH   1   4
BRANCH   1  18
ATOM     17  O   UNL     1      32.606 -24.099 -16.878  0.00  0.00    -0.270 OA
ATOM     18  N   UNL     1      31.541 -22.273 -15.924  0.00  0.00    -0.295 N 
ATOM     19  C   UNL     1      32.349 -22.898 -16.863  0.00  0.00    +0.246 C 
ATOM     20  H   UNL     1      31.396 -21.302 -15.997  0.00  0.00    +0.150 HD
BRANCH  19  21
ATOM     21  C   UNL     1      32.950 -22.014 -17.895  0.00  0.00    +0.053 C 
ATOM     22  C   UNL     1      34.336 -21.950 -18.037  0.00  0.00    +0.005 C 
ATOM     23  C   UNL     1      32.128 -21.250 -18.722  0.00  0.00    +0.005 C 
ATOM     24  C   UNL     1      34.078 -20.355 -19.833  0.00  0.00    +0.000 C 
ATOM     25  C   UNL     1      34.900 -21.119 -19.006  0.00  0.00    +0.000 C 
ATOM     26  C   UNL     1      32.692 -20.420 -19.692  0.00  0.00    +0.000 C 
BRANCH  24  27
ATOM     27  C   UNL     1      34.663 -19.494 -20.838  0.00  0.00    +0.000 C 
ATOM     28  C   UNL     1      35.963 -19.016 -20.677  0.00  0.00    +0.000 C 
ATOM     29  C   UNL     1      33.926 -19.142 -21.970  0.00  0.00    +0.000 C 
ATOM     30  C   UNL     1      36.527 -18.187 -21.646  0.00  0.00    +0.000 C 
ATOM     31  C   UNL     1      34.491 -18.313 -22.939  0.00  0.00    +0.000 C 
ATOM     32  C   UNL     1      35.791 -17.835 -22.777  0.00  0.00    +0.000 C 
ENDBRANCH  24  27
ENDBRANCH  19  21
ENDBRANCH   1  18
BRANCH   1  33
ATOM     33  C   UNL     1      29.783 -23.887 -15.378  0.00  0.00    +0.041 C 
BRANCH  33  34
ATOM     34  C   UNL     1      28.380 -23.296 -15.222  0.00  0.00    +0.112 C 
BRANCH  34  36
ATOM     35  O   UNL     1      27.173 -23.689 -17.302  0.00  0.00    -0.250 OA
ATOM     36  C   UNL     1      27.739 -22.918 -16.539  0.00  0.00    +0.314 C 
BRANCH  36  37
ATOM     37  O   UNL     1      27.839 -21.583 -16.775  0.00  0.00    -0.480 OA
ATOM     38  H   UNL     1      27.602 -20.970 -16.109  0.00  0.00    +0.295 HD
ENDBRANCH  36  37
ENDBRANCH  34  36
ENDBRANCH  33  34
ENDBRANCH   1  33
TORSDOF 11
ENDMDL
MODEL 4
REMARK VINA RESULT:     -11.2      3.229      6.477
REMARK  Name = 16048422
REMARK  11 active torsions:
REMARK  status: ('A' for Active; 'I' for Inactive)
REMARK    1  A    between atoms: C_1  and  C_4
REMARK    2  A    between atoms: C_1  and  N_18
REMARK    3  A    between atoms: C_1  and  C_33
REMARK    4  A    between atoms: N_3  and  C_6
REMARK    5  A    between atoms: C_6  and  C_9
REMARK    6  A    between atoms: C_9  and  C_11
REMARK    7  A    between atoms: C_19  and  C_21
REMARK    8  A    between atoms: C_24  and  C_27
REMARK    9  A    between atoms: C_33  and  C_34
REMARK   10  A    between atoms: C_34  and  C_36
REMARK   11  A    between atoms: C_36  and  O_37
REMARK                            x       y       z     vdW  Elec       q    Type
REMARK                         _______ _______ _______ _____ _____    ______ ____
ROOT
ATOM      1  C   UNL     1      31.655 -22.835 -15.122  0.00  0.00    +0.149 C 
ENDROOT
BRANCH   1   4
ATOM      2  O   UNL     1      33.011 -24.545 -14.079  0.00  0.00    -0.273 OA
ATOM      3  N   UNL     1      34.032 -22.572 -14.754  0.00  0.00    -0.306 N 
ATOM      4  C   UNL     1      32.956 -23.433 -14.601  0.00  0.00    +0.240 C 
ATOM      5  H   UNL     1      33.878 -21.701 -15.187  0.00  0.00    +0.149 HD
BRANCH   3   6
ATOM      6  C   UNL     1      35.370 -22.891 -14.310  0.00  0.00    +0.061 C 
ATOM      7  C   UNL     1      36.327 -21.770 -14.741  0.00  0.00    +0.020 C 
ATOM      8  C   UNL     1      35.357 -22.961 -12.773  0.00  0.00    +0.020 C 
BRANCH   6   9
ATOM      9  C   UNL     1      35.815 -24.271 -14.861  0.00  0.00    +0.044 C 
BRANCH   9  11
ATOM     10  F   UNL     1      41.031 -25.916 -13.481  0.00  0.00    -0.204 F 
ATOM     11  C   UNL     1      37.213 -24.712 -14.491  0.00  0.00    -0.020 C 
ATOM     12  C   UNL     1      38.310 -24.219 -15.198  0.00  0.00    -0.002 C 
ATOM     13  C   UNL     1      37.406 -25.612 -13.443  0.00  0.00    -0.002 C 
ATOM     14  C   UNL     1      39.600 -24.625 -14.856  0.00  0.00    +0.029 C 
ATOM     15  C   UNL     1      38.696 -26.018 -13.101  0.00  0.00    +0.029 C 
ATOM     16  C   UNL     1      39.792 -25.524 -13.808  0.00  0.00    +0.140 C 
ENDBRANCH   9  11
ENDBRANCH   6   9
ENDBRANCH   3   6
ENDBRANCH   1   4
BRANCH   1  18
ATOM     17  O   UNL     1      33.108 -23.731 -17.431  0.00  0.00    -0.270 OA
ATOM     18  N   UNL     1      32.026 -22.041 -16.268  0.00  0.00    -0.295 N 
ATOM     19  C   UNL     1      32.731 -22.566 -17.342  0.00  0.00    +0.246 C 
ATOM     20  H   UNL     1      31.768 -21.092 -16.290  0.00  0.00    +0.150 HD
BRANCH  19  21
ATOM     21  C   UNL     1      33.060 -21.611 -18.432  0.00  0.00    +0.053 C 
ATOM     22  C   UNL     1      32.041 -20.903 -19.069  0.00  0.00    +0.005 C 
ATOM     23  C   UNL     1      34.387 -21.423 -18.816  0.00  0.00    +0.005 C 
ATOM     24  C   UNL     1      33.677 -19.819 -20.478  0.00  0.00    +0.000 C 
ATOM     25  C   UNL     1      32.350 -20.007 -20.093  0.00  0.00    +0.000 C 
ATOM     26  C   UNL     1      34.696 -20.526 -19.840  0.00  0.00    +0.000 C 
BRANCH  24  27
ATOM     27  C   UNL     1      33.998 -18.890 -21.539  0.00  0.00    +0.000 C 
ATOM     28  C   UNL     1      33.544 -19.129 -22.837  0.00  0.00    +0.000 C 
ATOM     29  C   UNL     1      34.759 -17.753 -21.266  0.00  0.00    +0.000 C 
ATOM     30  C   UNL     1      33.852 -18.232 -23.860  0.00  0.00    +0.000 C 
ATOM     31  C   UNL     1      35.068 -16.857 -22.290  0.00  0.00    +0.000 C 
ATOM     32  C   UNL     1      34.614 -17.097 -23.586  0.00  0.00    +0.000 C 
ENDBRANCH  24  27
ENDBRANCH  19  21
ENDBRANCH   1  18
BRANCH   1  33
ATOM     33  C   UNL     1      30.648 -23.922 -15.518  0.00  0.00    +0.041 C 
BRANCH  33  34
ATOM     34  C   UNL     1      29.225 -23.676 -15.012  0.00  0.00    +0.112 C 
BRANCH  34  36
ATOM     35  O   UNL     1      28.838 -22.059 -16.793  0.00  0.00    -0.250 OA
ATOM     36  C   UNL     1      28.395 -22.826 -15.950  0.00  0.00    +0.314 C 
BRANCH  36  37
ATOM     37  O   UNL     1      27.066 -23.038 -15.767  0.00  0.00    -0.480 OA
ATOM     38  H   UNL     1      26.527 -22.359 -15.412  0.00  0.00    +0.295 HD
ENDBRANCH  36  37
ENDBRANCH  34  36
ENDBRANCH  33  34
ENDBRANCH   1  33
TORSDOF 11
ENDMDL
MODEL 5
REMARK VINA RESULT:     -11.1      1.690      2.329
REMARK  Name = 16048422
REMARK  11 active torsions:
REMARK  status: ('A' for Active; 'I' for Inactive)
REMARK    1  A    between atoms: C_1  and  C_4
REMARK    2  A    between atoms: C_1  and  N_18
REMARK    3  A    between atoms: C_1  and  C_33
REMARK    4  A    between atoms: N_3  and  C_6
REMARK    5  A    between atoms: C_6  and  C_9
REMARK    6  A    between atoms: C_9  and  C_11
REMARK    7  A    between atoms: C_19  and  C_21
REMARK    8  A    between atoms: C_24  and  C_27
REMARK    9  A    between atoms: C_33  and  C_34
REMARK   10  A    between atoms: C_34  and  C_36
REMARK   11  A    between atoms: C_36  and  O_37
REMARK                            x       y       z     vdW  Elec       q    Type
REMARK                         _______ _______ _______ _____ _____    ______ ____
ROOT
ATOM      1  C   UNL     1      36.248 -22.032 -17.145  0.00  0.00    +0.149 C 
ENDROOT
BRANCH   1   4
ATOM      2  O   UNL     1      33.868 -22.461 -17.093  0.00  0.00    -0.273 OA
ATOM      3  N   UNL     1      35.111 -22.847 -15.170  0.00  0.00    -0.306 N 
ATOM      4  C   UNL     1      34.943 -22.473 -16.495  0.00  0.00    +0.240 C 
ATOM      5  H   UNL     1      36.018 -22.820 -14.788  0.00  0.00    +0.149 HD
BRANCH   3   6
ATOM      6  C   UNL     1      34.021 -23.274 -14.324  0.00  0.00    +0.061 C 
ATOM      7  C   UNL     1      33.785 -24.778 -14.523  0.00  0.00    +0.020 C 
ATOM      8  C   UNL     1      34.430 -23.030 -12.861  0.00  0.00    +0.020 C 
BRANCH   6   9
ATOM      9  C   UNL     1      32.742 -22.447 -14.621  0.00  0.00    +0.044 C 
BRANCH   9  11
ATOM     10  F   UNL     1      27.854 -25.234 -14.235  0.00  0.00    -0.204 F 
ATOM     11  C   UNL     1      31.432 -23.194 -14.517  0.00  0.00    -0.020 C 
ATOM     12  C   UNL     1      30.620 -23.337 -15.643  0.00  0.00    -0.002 C 
ATOM     13  C   UNL     1      31.035 -23.739 -13.297  0.00  0.00    -0.002 C 
ATOM     14  C   UNL     1      29.412 -24.027 -15.547  0.00  0.00    +0.029 C 
ATOM     15  C   UNL     1      29.827 -24.429 -13.201  0.00  0.00    +0.029 C 
ATOM     16  C   UNL     1      29.015 -24.573 -14.327  0.00  0.00    +0.140 C 
ENDBRANCH   9  11
ENDBRANCH   6   9
ENDBRANCH   3   6
ENDBRANCH   1   4
BRANCH   1  18
ATOM     17  O   UNL     1      35.576 -22.266 -19.926  0.00  0.00    -0.270 OA
ATOM     18  N   UNL     1      35.893 -20.957 -18.038  0.00  0.00    -0.295 N 
ATOM     19  C   UNL     1      35.582 -21.169 -19.373  0.00  0.00    +0.246 C 
ATOM     20  H   UNL     1      35.871 -20.038 -17.688  0.00  0.00    +0.150 HD
BRANCH  19  21
ATOM     21  C   UNL     1      35.264 -19.955 -20.168  0.00  0.00    +0.053 C 
ATOM     22  C   UNL     1      36.279 -19.063 -20.515  0.00  0.00    +0.005 C 
ATOM     23  C   UNL     1      33.951 -19.707 -20.567  0.00  0.00    +0.005 C 
ATOM     24  C   UNL     1      34.667 -17.675 -21.660  0.00  0.00    +0.000 C 
ATOM     25  C   UNL     1      35.981 -17.922 -21.261  0.00  0.00    +0.000 C 
ATOM     26  C   UNL     1      33.652 -18.566 -21.313  0.00  0.00    +0.000 C 
BRANCH  24  27
ATOM     27  C   UNL     1      34.357 -16.492 -22.433  0.00  0.00    +0.000 C 
ATOM     28  C   UNL     1      34.162 -16.591 -23.811  0.00  0.00    +0.000 C 
ATOM     29  C   UNL     1      34.251 -15.253 -21.802  0.00  0.00    +0.000 C 
ATOM     30  C   UNL     1      33.862 -15.451 -24.557  0.00  0.00    +0.000 C 
ATOM     31  C   UNL     1      33.951 -14.113 -22.548  0.00  0.00    +0.000 C 
ATOM     32  C   UNL     1      33.757 -14.212 -23.925  0.00  0.00    +0.000 C 
ENDBRANCH  24  27
ENDBRANCH  19  21
ENDBRANCH   1  18
BRANCH   1  33
ATOM     33  C   UNL     1      37.270 -21.557 -16.104  0.00  0.00    +0.041 C 
BRANCH  33  34
ATOM     34  C   UNL     1      38.324 -22.602 -15.733  0.00  0.00    +0.112 C 
BRANCH  34  36
ATOM     35  O   UNL     1      37.803 -23.184 -13.426  0.00  0.00    -0.250 OA
ATOM     36  C   UNL     1      37.895 -23.509 -14.601  0.00  0.00    +0.314 C 
BRANCH  36  37
ATOM     37  O   UNL     1      37.587 -24.754 -15.051  0.00  0.00    -0.480 OA
ATOM     38  H   UNL     1      38.263 -25.319 -15.368  0.00  0.00    +0.295 HD
ENDBRANCH  36  37
ENDBRANCH  34  36
ENDBRANCH  33  34
ENDBRANCH   1  33
TORSDOF 11
ENDMDL
MODEL 6
REMARK VINA RESULT:     -11.0      9.707     14.877
REMARK  Name = 16048422
REMARK  11 active torsions:
REMARK  status: ('A' for Active; 'I' for Inactive)
REMARK    1  A    between atoms: C_1  and  C_4
REMARK    2  A    between atoms: C_1  and  N_18
REMARK    3  A    between atoms: C_1  and  C_33
REMARK    4  A    between atoms: N_3  and  C_6
REMARK    5  A    between atoms: C_6  and  C_9
REMARK    6  A    between atoms: C_9  and  C_11
REMARK    7  A    between atoms: C_19  and  C_21
REMARK    8  A    between atoms: C_24  and  C_27
REMARK    9  A    between atoms: C_33  and  C_34
REMARK   10  A    between atoms: C_34  and  C_36
REMARK   11  A    between atoms: C_36  and  O_37
REMARK                            x       y       z     vdW  Elec       q    Type
REMARK                         _______ _______ _______ _____ _____    ______ ____
ROOT
ATOM      1  C   UNL     1      31.642 -10.514 -22.943  0.00  0.00    +0.149 C 
ENDROOT
BRANCH   1   4
ATOM      2  O   UNL     1      33.976  -9.928 -23.188  0.00  0.00    -0.273 OA
ATOM      3  N   UNL     1      32.391  -8.232 -23.233  0.00  0.00    -0.306 N 
ATOM      4  C   UNL     1      32.806  -9.552 -23.144  0.00  0.00    +0.240 C 
ATOM      5  H   UNL     1      31.426  -8.040 -23.185  0.00  0.00    +0.149 HD
BRANCH   3   6
ATOM      6  C   UNL     1      33.305  -7.124 -23.391  0.00  0.00    +0.061 C 
ATOM      7  C   UNL     1      33.700  -6.592 -22.005  0.00  0.00    +0.020 C 
ATOM      8  C   UNL     1      34.569  -7.646 -24.095  0.00  0.00    +0.020 C 
BRANCH   6   9
ATOM      9  C   UNL     1      32.673  -6.015 -24.274  0.00  0.00    +0.044 C 
BRANCH   9  11
ATOM     10  F   UNL     1      29.501  -2.215 -21.570  0.00  0.00    -0.204 F 
ATOM     11  C   UNL     1      31.823  -4.996 -23.549  0.00  0.00    -0.020 C 
ATOM     12  C   UNL     1      32.150  -3.642 -23.614  0.00  0.00    -0.002 C 
ATOM     13  C   UNL     1      30.712  -5.411 -22.815  0.00  0.00    -0.002 C 
ATOM     14  C   UNL     1      31.365  -2.702 -22.947  0.00  0.00    +0.029 C 
ATOM     15  C   UNL     1      29.927  -4.471 -22.147  0.00  0.00    +0.029 C 
ATOM     16  C   UNL     1      30.254  -3.117 -22.213  0.00  0.00    +0.140 C 
ENDBRANCH   9  11
ENDBRANCH   6   9
ENDBRANCH   3   6
ENDBRANCH   1   4
BRANCH   1  18
ATOM     17  O   UNL     1      32.710 -12.476 -24.748  0.00  0.00    -0.270 OA
ATOM     18  N   UNL     1      32.241 -11.777 -22.587  0.00  0.00    -0.295 N 
ATOM     19  C   UNL     1      32.731 -12.664 -23.534  0.00  0.00    +0.246 C 
ATOM     20  H   UNL     1      32.303 -12.020 -21.635  0.00  0.00    +0.150 HD
BRANCH  19  21
ATOM     21  C   UNL     1      33.292 -13.935 -23.007  0.00  0.00    +0.053 C 
ATOM     22  C   UNL     1      33.602 -14.977 -23.880  0.00  0.00    +0.005 C 
ATOM     23  C   UNL     1      33.509 -14.085 -21.637  0.00  0.00    +0.005 C 
ATOM     24  C   UNL     1      34.345 -16.320 -22.015  0.00  0.00    +0.000 C 
ATOM     25  C   UNL     1      34.128 -16.170 -23.385  0.00  0.00    +0.000 C 
ATOM     26  C   UNL     1      34.036 -15.278 -21.141  0.00  0.00    +0.000 C 
BRANCH  24  27
ATOM     27  C   UNL     1      34.890 -17.557 -21.501  0.00  0.00    +0.000 C 
ATOM     28  C   UNL     1      34.036 -18.552 -21.024  0.00  0.00    +0.000 C 
ATOM     29  C   UNL     1      36.271 -17.756 -21.482  0.00  0.00    +0.000 C 
ATOM     30  C   UNL     1      34.563 -19.745 -20.529  0.00  0.00    +0.000 C 
ATOM     31  C   UNL     1      36.797 -18.950 -20.986  0.00  0.00    +0.000 C 
ATOM     32  C   UNL     1      35.943 -19.944 -20.510  0.00  0.00    +0.000 C 
ENDBRANCH  24  27
ENDBRANCH  19  21
ENDBRANCH   1  18
BRANCH   1  33
ATOM     33  C   UNL     1      30.690 -10.035 -21.841  0.00  0.00    +0.041 C 
BRANCH  33  34
ATOM     34  C   UNL     1      31.139 -10.390 -20.422  0.00  0.00    +0.112 C 
BRANCH  34  36
ATOM     35  O   UNL     1      31.748  -9.203 -18.384  0.00  0.00    -0.250 OA
ATOM     36  C   UNL     1      31.393  -9.177 -19.554  0.00  0.00    +0.314 C 
BRANCH  36  37
ATOM     37  O   UNL     1      31.205  -8.023 -20.245  0.00  0.00    -0.480 OA
ATOM     38  H   UNL     1      31.926  -7.445 -20.398  0.00  0.00    +0.295 HD
ENDBRANCH  36  37
ENDBRANCH  34  36
ENDBRANCH  33  34
ENDBRANCH   1  33
TORSDOF 11
ENDMDL
MODEL 7
REMARK VINA RESULT:     -10.9      1.633      2.286
REMARK  Name = 16048422
REMARK  11 active torsions:
REMARK  status: ('A' for Active; 'I' for Inactive)
REMARK    1  A    between atoms: C_1  and  C_4
REMARK    2  A    between atoms: C_1  and  N_18
REMARK    3  A    between atoms: C_1  and  C_33
REMARK    4  A    between atoms: N_3  and  C_6
REMARK    5  A    between atoms: C_6  and  C_9
REMARK    6  A    between atoms: C_9  and  C_11
REMARK    7  A    between atoms: C_19  and  C_21
REMARK    8  A    between atoms: C_24  and  C_27
REMARK    9  A    between atoms: C_33  and  C_34
REMARK   10  A    between atoms: C_34  and  C_36
REMARK   11  A    between atoms: C_36  and  O_37
REMARK                            x       y       z     vdW  Elec       q    Type
REMARK                         _______ _______ _______ _____ _____    ______ ____
ROOT
ATOM      1  C   UNL     1      33.784 -22.896 -16.694  0.00  0.00    +0.149 C 
ENDROOT
BRANCH   1   4
ATOM      2  O   UNL     1      31.422 -22.382 -16.780  0.00  0.00    -0.273 OA
ATOM      3  N   UNL     1      32.228 -23.620 -14.988  0.00  0.00    -0.306 N 
ATOM      4  C   UNL     1      32.348 -22.933 -16.187  0.00  0.00    +0.240 C 
ATOM      5  H   UNL     1      33.036 -24.025 -14.598  0.00  0.00    +0.149 HD
BRANCH   3   6
ATOM      6  C   UNL     1      30.975 -23.770 -14.284  0.00  0.00    +0.061 C 
ATOM      7  C   UNL     1      31.199 -24.628 -13.030  0.00  0.00    +0.020 C 
ATOM      8  C   UNL     1      30.506 -22.372 -13.845  0.00  0.00    +0.020 C 
BRANCH   6   9
ATOM      9  C   UNL     1      29.894 -24.381 -15.214  0.00  0.00    +0.044 C 
BRANCH   9  11
ATOM     10  F   UNL     1      25.569 -21.005 -16.524  0.00  0.00    -0.204 F 
ATOM     11  C   UNL     1      28.735 -23.476 -15.565  0.00  0.00    -0.020 C 
ATOM     12  C   UNL     1      28.270 -22.546 -14.636  0.00  0.00    -0.002 C 
ATOM     13  C   UNL     1      28.130 -23.571 -16.819  0.00  0.00    -0.002 C 
ATOM     14  C   UNL     1      27.201 -21.710 -14.960  0.00  0.00    +0.029 C 
ATOM     15  C   UNL     1      27.061 -22.736 -17.143  0.00  0.00    +0.029 C 
ATOM     16  C   UNL     1      26.597 -21.806 -16.213  0.00  0.00    +0.140 C 
ENDBRANCH   9  11
ENDBRANCH   6   9
ENDBRANCH   3   6
ENDBRANCH   1   4
BRANCH   1  18
ATOM     17  O   UNL     1      36.061 -22.057 -18.228  0.00  0.00    -0.270 OA
ATOM     18  N   UNL     1      33.791 -21.933 -17.767  0.00  0.00    -0.295 N 
ATOM     19  C   UNL     1      34.948 -21.591 -18.454  0.00  0.00    +0.246 C 
ATOM     20  H   UNL     1      32.945 -21.501 -18.023  0.00  0.00    +0.150 HD
BRANCH  19  21
ATOM     21  C   UNL     1      34.794 -20.562 -19.515  0.00  0.00    +0.053 C 
ATOM     22  C   UNL     1      35.893 -19.804 -19.917  0.00  0.00    +0.005 C 
ATOM     23  C   UNL     1      33.549 -20.355 -20.109  0.00  0.00    +0.005 C 
ATOM     24  C   UNL     1      34.504 -18.631 -21.507  0.00  0.00    +0.000 C 
ATOM     25  C   UNL     1      35.748 -18.838 -20.913  0.00  0.00    +0.000 C 
ATOM     26  C   UNL     1      33.403 -19.389 -21.105  0.00  0.00    +0.000 C 
BRANCH  24  27
ATOM     27  C   UNL     1      34.353 -17.630 -22.540  0.00  0.00    +0.000 C 
ATOM     28  C   UNL     1      33.800 -17.977 -23.773  0.00  0.00    +0.000 C 
ATOM     29  C   UNL     1      34.758 -16.316 -22.303  0.00  0.00    +0.000 C 
ATOM     30  C   UNL     1      33.653 -17.011 -24.768  0.00  0.00    +0.000 C 
ATOM     31  C   UNL     1      34.612 -15.351 -23.300  0.00  0.00    +0.000 C 
ATOM     32  C   UNL     1      34.059 -15.698 -24.532  0.00  0.00    +0.000 C 
ENDBRANCH  24  27
ENDBRANCH  19  21
ENDBRANCH   1  18
BRANCH   1  33
ATOM     33  C   UNL     1      34.766 -22.485 -15.590  0.00  0.00    +0.041 C 
BRANCH  33  34
ATOM     34  C   UNL     1      35.663 -23.620 -15.091  0.00  0.00    +0.112 C 
BRANCH  34  36
ATOM     35  O   UNL     1      37.820 -23.571 -13.960  0.00  0.00    -0.250 OA
ATOM     36  C   UNL     1      37.099 -23.196 -14.874  0.00  0.00    +0.314 C 
BRANCH  36  37
ATOM     37  O   UNL     1      37.521 -22.352 -15.851  0.00  0.00    -0.480 OA
ATOM     38  H   UNL     1      37.873 -21.513 -15.627  0.00  0.00    +0.295 HD
ENDBRANCH  36  37
ENDBRANCH  34  36
ENDBRANCH  33  34
ENDBRANCH   1  33
TORSDOF 11
ENDMDL
MODEL 8
REMARK VINA RESULT:     -10.7      9.757     15.343
REMARK  Name = 16048422
REMARK  11 active torsions:
REMARK  status: ('A' for Active; 'I' for Inactive)
REMARK    1  A    between atoms: C_1  and  C_4
REMARK    2  A    between atoms: C_1  and  N_18
REMARK    3  A    between atoms: C_1  and  C_33
REMARK    4  A    between atoms: N_3  and  C_6
REMARK    5  A    between atoms: C_6  and  C_9
REMARK    6  A    between atoms: C_9  and  C_11
REMARK    7  A    between atoms: C_19  and  C_21
REMARK    8  A    between atoms: C_24  and  C_27
REMARK    9  A    between atoms: C_33  and  C_34
REMARK   10  A    between atoms: C_34  and  C_36
REMARK   11  A    between atoms: C_36  and  O_37
REMARK                            x       y       z     vdW  Elec       q    Type
REMARK                         _______ _______ _______ _____ _____    ______ ____
ROOT
ATOM      1  C   UNL     1      31.758 -10.342 -23.096  0.00  0.00    +0.149 C 
ENDROOT
BRANCH   1   4
ATOM      2  O   UNL     1      34.102  -9.767 -23.251  0.00  0.00    -0.273 OA
ATOM      3  N   UNL     1      32.535  -8.054 -23.209  0.00  0.00    -0.306 N 
ATOM      4  C   UNL     1      32.935  -9.382 -23.205  0.00  0.00    +0.240 C 
ATOM      5  H   UNL     1      31.572  -7.855 -23.168  0.00  0.00    +0.149 HD
BRANCH   3   6
ATOM      6  C   UNL     1      33.464  -6.948 -23.271  0.00  0.00    +0.061 C 
ATOM      7  C   UNL     1      33.995  -6.655 -21.860  0.00  0.00    +0.020 C 
ATOM      8  C   UNL     1      34.644  -7.367 -24.162  0.00  0.00    +0.020 C 
BRANCH   6   9
ATOM      9  C   UNL     1      32.789  -5.702 -23.902  0.00  0.00    +0.044 C 
BRANCH   9  11
ATOM     10  F   UNL     1      34.760  -4.115 -28.943  0.00  0.00    -0.204 F 
ATOM     11  C   UNL     1      33.317  -5.276 -25.254  0.00  0.00    -0.020 C 
ATOM     12  C   UNL     1      34.409  -4.412 -25.334  0.00  0.00    -0.002 C 
ATOM     13  C   UNL     1      32.713  -5.748 -26.418  0.00  0.00    -0.002 C 
ATOM     14  C   UNL     1      34.897  -4.020 -26.581  0.00  0.00    +0.029 C 
ATOM     15  C   UNL     1      33.201  -5.357 -27.665  0.00  0.00    +0.029 C 
ATOM     16  C   UNL     1      34.293  -4.492 -27.746  0.00  0.00    +0.140 C 
ENDBRANCH   9  11
ENDBRANCH   6   9
ENDBRANCH   3   6
ENDBRANCH   1   4
BRANCH   1  18
ATOM     17  O   UNL     1      32.748 -12.364 -24.878  0.00  0.00    -0.270 OA
ATOM     18  N   UNL     1      32.328 -11.614 -22.724  0.00  0.00    -0.295 N 
ATOM     19  C   UNL     1      32.782 -12.530 -23.662  0.00  0.00    +0.246 C 
ATOM     20  H   UNL     1      32.398 -11.841 -21.769  0.00  0.00    +0.150 HD
BRANCH  19  21
ATOM     21  C   UNL     1      33.317 -13.806 -23.118  0.00  0.00    +0.053 C 
ATOM     22  C   UNL     1      33.620 -13.913 -21.761  0.00  0.00    +0.005 C 
ATOM     23  C   UNL     1      33.514 -14.895 -23.966  0.00  0.00    +0.005 C 
ATOM     24  C   UNL     1      34.320 -16.200 -22.099  0.00  0.00    +0.000 C 
ATOM     25  C   UNL     1      34.122 -15.111 -21.252  0.00  0.00    +0.000 C 
ATOM     26  C   UNL     1      34.016 -16.093 -23.456  0.00  0.00    +0.000 C 
BRANCH  24  27
ATOM     27  C   UNL     1      34.841 -17.442 -21.571  0.00  0.00    +0.000 C 
ATOM     28  C   UNL     1      36.219 -17.647 -21.499  0.00  0.00    +0.000 C 
ATOM     29  C   UNL     1      33.965 -18.436 -21.131  0.00  0.00    +0.000 C 
ATOM     30  C   UNL     1      36.721 -18.844 -20.989  0.00  0.00    +0.000 C 
ATOM     31  C   UNL     1      34.468 -19.633 -20.621  0.00  0.00    +0.000 C 
ATOM     32  C   UNL     1      35.846 -19.837 -20.550  0.00  0.00    +0.000 C 
ENDBRANCH  24  27
ENDBRANCH  19  21
ENDBRANCH   1  18
BRANCH   1  33
ATOM     33  C   UNL     1      30.739  -9.878 -22.048  0.00  0.00    +0.041 C 
BRANCH  33  34
ATOM     34  C   UNL     1      31.119 -10.219 -20.606  0.00  0.00    +0.112 C 
BRANCH  34  36
ATOM     35  O   UNL     1      31.911  -9.021 -18.638  0.00  0.00    -0.250 OA
ATOM     36  C   UNL     1      31.447  -9.002 -19.770  0.00  0.00    +0.314 C 
BRANCH  36  37
ATOM     37  O   UNL     1      31.191  -7.851 -20.445  0.00  0.00    -0.480 OA
ATOM     38  H   UNL     1      31.224  -7.028 -19.999  0.00  0.00    +0.295 HD
ENDBRANCH  36  37
ENDBRANCH  34  36
ENDBRANCH  33  34
ENDBRANCH   1  33
TORSDOF 11
ENDMDL
MODEL 9
REMARK VINA RESULT:     -10.7     11.776     17.479
REMARK  Name = 16048422
REMARK  11 active torsions:
REMARK  status: ('A' for Active; 'I' for Inactive)
REMARK    1  A    between atoms: C_1  and  C_4
REMARK    2  A    between atoms: C_1  and  N_18
REMARK    3  A    between atoms: C_1  and  C_33
REMARK    4  A    between atoms: N_3  and  C_6
REMARK    5  A    between atoms: C_6  and  C_9
REMARK    6  A    between atoms: C_9  and  C_11
REMARK    7  A    between atoms: C_19  and  C_21
REMARK    8  A    between atoms: C_24  and  C_27
REMARK    9  A    between atoms: C_33  and  C_34
REMARK   10  A    between atoms: C_34  and  C_36
REMARK   11  A    between atoms: C_36  and  O_37
REMARK                            x       y       z     vdW  Elec       q    Type
REMARK                         _______ _______ _______ _____ _____    ______ ____
ROOT
ATOM      1  C   UNL     1      31.874  -7.362 -22.291  0.00  0.00    +0.149 C 
ENDROOT
BRANCH   1   4
ATOM      2  O   UNL     1      33.625  -7.098 -23.939  0.00  0.00    -0.273 OA
ATOM      3  N   UNL     1      31.876  -5.570 -23.918  0.00  0.00    -0.306 N 
ATOM      4  C   UNL     1      32.563  -6.690 -23.472  0.00  0.00    +0.240 C 
ATOM      5  H   UNL     1      31.032  -5.330 -23.472  0.00  0.00    +0.149 HD
BRANCH   3   6
ATOM      6  C   UNL     1      32.339  -4.739 -25.005  0.00  0.00    +0.061 C 
ATOM      7  C   UNL     1      32.163  -5.495 -26.331  0.00  0.00    +0.020 C 
ATOM      8  C   UNL     1      31.466  -3.474 -25.042  0.00  0.00    +0.020 C 
BRANCH   6   9
ATOM      9  C   UNL     1      33.813  -4.313 -24.777  0.00  0.00    +0.044 C 
BRANCH   9  11
ATOM     10  F   UNL     1      36.850  -3.337 -29.430  0.00  0.00    -0.204 F 
ATOM     11  C   UNL     1      34.627  -4.051 -26.025  0.00  0.00    -0.020 C 
ATOM     12  C   UNL     1      34.649  -2.775 -26.588  0.00  0.00    -0.002 C 
ATOM     13  C   UNL     1      35.356  -5.086 -26.611  0.00  0.00    -0.002 C 
ATOM     14  C   UNL     1      35.400  -2.534 -27.738  0.00  0.00    +0.029 C 
ATOM     15  C   UNL     1      36.107  -4.844 -27.761  0.00  0.00    +0.029 C 
ATOM     16  C   UNL     1      36.129  -3.568 -28.324  0.00  0.00    +0.140 C 
ENDBRANCH   9  11
ENDBRANCH   6   9
ENDBRANCH   3   6
ENDBRANCH   1   4
BRANCH   1  18
ATOM     17  O   UNL     1      30.254  -9.705 -21.934  0.00  0.00    -0.270 OA
ATOM     18  N   UNL     1      32.326  -8.731 -22.306  0.00  0.00    -0.295 N 
ATOM     19  C   UNL     1      31.463  -9.803 -22.123  0.00  0.00    +0.246 C 
ATOM     20  H   UNL     1      33.282  -8.913 -22.451  0.00  0.00    +0.150 HD
BRANCH  19  21
ATOM     21  C   UNL     1      32.089 -11.150 -22.138  0.00  0.00    +0.053 C 
ATOM     22  C   UNL     1      31.834 -12.049 -21.103  0.00  0.00    +0.005 C 
ATOM     23  C   UNL     1      32.931 -11.515 -23.188  0.00  0.00    +0.005 C 
ATOM     24  C   UNL     1      33.264 -13.680 -22.167  0.00  0.00    +0.000 C 
ATOM     25  C   UNL     1      32.422 -13.314 -21.118  0.00  0.00    +0.000 C 
ATOM     26  C   UNL     1      33.519 -12.781 -23.203  0.00  0.00    +0.000 C 
BRANCH  24  27
ATOM     27  C   UNL     1      33.873 -14.992 -22.183  0.00  0.00    +0.000 C 
ATOM     28  C   UNL     1      34.228 -15.610 -20.984  0.00  0.00    +0.000 C 
ATOM     29  C   UNL     1      34.104 -15.640 -23.397  0.00  0.00    +0.000 C 
ATOM     30  C   UNL     1      34.815 -16.876 -20.999  0.00  0.00    +0.000 C 
ATOM     31  C   UNL     1      34.692 -16.905 -23.411  0.00  0.00    +0.000 C 
ATOM     32  C   UNL     1      35.047 -17.523 -22.212  0.00  0.00    +0.000 C 
ENDBRANCH  24  27
ENDBRANCH  19  21
ENDBRANCH   1  18
BRANCH   1  33
ATOM     33  C   UNL     1      32.234  -6.686 -20.962  0.00  0.00    +0.041 C 
BRANCH  33  34
ATOM     34  C   UNL     1      31.111  -5.840 -20.360  0.00  0.00    +0.112 C 
BRANCH  34  36
ATOM     35  O   UNL     1      29.555  -4.672 -21.827  0.00  0.00    -0.250 OA
ATOM     36  C   UNL     1      30.644  -4.728 -21.274  0.00  0.00    +0.314 C 
BRANCH  36  37
ATOM     37  O   UNL     1      31.585  -3.754 -21.392  0.00  0.00    -0.480 OA
ATOM     38  H   UNL     1      32.352  -3.903 -21.909  0.00  0.00    +0.295 HD
ENDBRANCH  36  37
ENDBRANCH  34  36
ENDBRANCH  33  34
ENDBRANCH   1  33
TORSDOF 11
ENDMDL
