MODEL 1
REMARK VINA RESULT:     -11.8      0.000      0.000
REMARK  Name = 8969
REMARK  3 active torsions:
REMARK  status: ('A' for Active; 'I' for Inactive)
REMARK    1  A    between atoms: C_7  and  C_27
REMARK    2  A    between atoms: C_10  and  O_24
REMARK    3  A    between atoms: C_27  and  O_28
REMARK                            x       y       z     vdW  Elec       q    Type
REMARK                         _______ _______ _______ _____ _____    ______ ____
ROOT
ATOM      1  N   UNL     1      33.898 -22.631 -16.054  0.00  0.00    +0.392 N 
ATOM      2  N   UNL     1      32.837 -21.214 -19.351  0.00  0.00    -0.358 N 
ATOM      3  C   UNL     1      31.060 -23.262 -15.707  0.00  0.00    +0.009 C 
ATOM      4  C   UNL     1      32.073 -23.297 -14.542  0.00  0.00    -0.020 C 
ATOM      5  C   UNL     1      31.559 -22.276 -16.781  0.00  0.00    -0.015 C 
ATOM      6  C   UNL     1      32.984 -22.640 -17.230  0.00  0.00    -0.019 C 
ATOM      7  C   UNL     1      29.656 -22.908 -15.178  0.00  0.00    +0.126 C 
ATOM      8  C   UNL     1      33.484 -23.625 -15.055  0.00  0.00    -0.077 C 
ATOM      9  C   UNL     1      31.631 -24.284 -13.455  0.00  0.00    +0.000 C 
ATOM     10  C   UNL     1      29.205 -23.885 -14.079  0.00  0.00    +0.121 C 
ATOM     11  C   UNL     1      30.227 -23.950 -12.943  0.00  0.00    +0.030 C 
ATOM     12  C   UNL     1      33.516 -21.704 -18.272  0.00  0.00    +0.010 A 
ATOM     13  C   UNL     1      35.310 -22.819 -16.453  0.00  0.00    -0.072 C 
ATOM     14  C   UNL     1      34.817 -21.250 -18.336  0.00  0.00    -0.013 A 
ATOM     15  C   UNL     1      35.816 -21.629 -17.300  0.00  0.00    +0.005 C 
ATOM     16  C   UNL     1      34.929 -20.421 -19.484  0.00  0.00    +0.013 A 
ATOM     17  C   UNL     1      33.674 -20.415 -20.102  0.00  0.00    +0.056 A 
ATOM     18  C   UNL     1      35.974 -19.675 -20.065  0.00  0.00    +0.001 C 
ATOM     19  C   UNL     1      33.416 -19.697 -21.277  0.00  0.00    +0.017 C 
ATOM     20  C   UNL     1      35.728 -18.952 -21.238  0.00  0.00    +0.000 C 
ATOM     21  C   UNL     1      34.469 -18.964 -21.833  0.00  0.00    +0.001 C 
ATOM     22  H   UNL     1      33.831 -21.709 -15.623  0.00  0.00    -0.079 HD
ATOM     23  H   UNL     1      31.893 -21.400 -19.561  0.00  0.00    +0.166 HD
ENDROOT
BRANCH  10  24
ATOM     24  O   UNL     1      29.049 -25.193 -14.632  0.00  0.00    -0.384 OA
ATOM     25  H   UNL     1      28.355 -25.668 -14.150  0.00  0.00    +0.210 HD
ENDBRANCH  10  24
BRANCH   7  27
ATOM     26  O   UNL     1      28.385 -23.889 -16.976  0.00  0.00    -0.250 OA
ATOM     27  C   UNL     1      28.636 -22.913 -16.280  0.00  0.00    +0.319 C 
BRANCH  27  28
ATOM     28  O   UNL     1      28.055 -21.684 -16.369  0.00  0.00    -0.444 OA
ATOM     29  C   UNL     1      26.625 -21.680 -16.399  0.00  0.00    +0.256 C 
ENDBRANCH  27  28
ENDBRANCH   7  27
TORSDOF 3
ENDMDL
MODEL 2
REMARK VINA RESULT:      -9.7     12.004     15.686
REMARK  Name = 8969
REMARK  3 active torsions:
REMARK  status: ('A' for Active; 'I' for Inactive)
REMARK    1  A    between atoms: C_7  and  C_27
REMARK    2  A    between atoms: C_10  and  O_24
REMARK    3  A    between atoms: C_27  and  O_28
REMARK                            x       y       z     vdW  Elec       q    Type
REMARK                         _______ _______ _______ _____ _____    ______ ____
ROOT
ATOM      1  N   UNL     1      31.529  -8.853 -20.742  0.00  0.00    +0.392 N 
ATOM      2  N   UNL     1      32.489 -11.272 -23.432  0.00  0.00    -0.358 N 
ATOM      3  C   UNL     1      31.514  -6.869 -22.895  0.00  0.00    +0.009 C 
ATOM      4  C   UNL     1      31.505  -6.481 -21.400  0.00  0.00    -0.020 C 
ATOM      5  C   UNL     1      32.175  -8.251 -23.054  0.00  0.00    -0.015 C 
ATOM      6  C   UNL     1      31.475  -9.292 -22.164  0.00  0.00    -0.019 C 
ATOM      7  C   UNL     1      32.215  -5.773 -23.721  0.00  0.00    +0.126 C 
ATOM      8  C   UNL     1      30.831  -7.575 -20.556  0.00  0.00    -0.077 C 
ATOM      9  C   UNL     1      30.835  -5.119 -21.186  0.00  0.00    +0.000 C 
ATOM     10  C   UNL     1      31.559  -4.398 -23.508  0.00  0.00    +0.121 C 
ATOM     11  C   UNL     1      31.514  -4.031 -22.024  0.00  0.00    +0.030 C 
ATOM     12  C   UNL     1      32.087 -10.655 -22.281  0.00  0.00    +0.010 A 
ATOM     13  C   UNL     1      31.010  -9.892 -19.826  0.00  0.00    -0.072 C 
ATOM     14  C   UNL     1      32.271 -11.530 -21.232  0.00  0.00    -0.013 A 
ATOM     15  C   UNL     1      31.909 -11.150 -19.839  0.00  0.00    +0.005 C 
ATOM     16  C   UNL     1      32.839 -12.722 -21.758  0.00  0.00    +0.013 A 
ATOM     17  C   UNL     1      32.966 -12.533 -23.139  0.00  0.00    +0.056 A 
ATOM     18  C   UNL     1      33.256 -13.946 -21.200  0.00  0.00    +0.001 C 
ATOM     19  C   UNL     1      33.491 -13.515 -23.988  0.00  0.00    +0.017 C 
ATOM     20  C   UNL     1      33.785 -14.935 -22.038  0.00  0.00    +0.000 C 
ATOM     21  C   UNL     1      33.899 -14.721 -23.410  0.00  0.00    +0.001 C 
ATOM     22  H   UNL     1      32.510  -8.710 -20.505  0.00  0.00    -0.079 HD
ATOM     23  H   UNL     1      32.447 -10.878 -24.333  0.00  0.00    +0.166 HD
ENDROOT
BRANCH  10  24
ATOM     24  O   UNL     1      30.224  -4.418 -24.017  0.00  0.00    -0.384 OA
ATOM     25  H   UNL     1      29.943  -3.514 -24.225  0.00  0.00    +0.210 HD
ENDBRANCH  10  24
BRANCH   7  27
ATOM     26  O   UNL     1      31.205  -6.480 -25.793  0.00  0.00    -0.250 OA
ATOM     27  C   UNL     1      32.198  -6.096 -25.188  0.00  0.00    +0.319 C 
BRANCH  27  28
ATOM     28  O   UNL     1      33.439  -5.893 -25.714  0.00  0.00    -0.444 OA
ATOM     29  C   UNL     1      33.466  -5.468 -27.080  0.00  0.00    +0.256 C 
ENDBRANCH  27  28
ENDBRANCH   7  27
TORSDOF 3
ENDMDL
MODEL 3
REMARK VINA RESULT:      -9.0      3.742      5.681
REMARK  Name = 8969
REMARK  3 active torsions:
REMARK  status: ('A' for Active; 'I' for Inactive)
REMARK    1  A    between atoms: C_7  and  C_27
REMARK    2  A    between atoms: C_10  and  O_24
REMARK    3  A    between atoms: C_27  and  O_28
REMARK                            x       y       z     vdW  Elec       q    Type
REMARK                         _______ _______ _______ _____ _____    ______ ____
ROOT
ATOM      1  N   UNL     1      33.458 -22.350 -17.470  0.00  0.00    +0.392 N 
ATOM      2  N   UNL     1      35.986 -20.094 -19.060  0.00  0.00    -0.358 N 
ATOM      3  C   UNL     1      35.620 -23.032 -15.616  0.00  0.00    +0.009 C 
ATOM      4  C   UNL     1      34.324 -23.864 -15.733  0.00  0.00    -0.020 C 
ATOM      5  C   UNL     1      35.878 -22.310 -16.952  0.00  0.00    -0.015 C 
ATOM      6  C   UNL     1      34.656 -21.471 -17.361  0.00  0.00    -0.019 C 
ATOM      7  C   UNL     1      36.793 -23.936 -15.189  0.00  0.00    +0.126 C 
ATOM      8  C   UNL     1      33.147 -22.984 -16.183  0.00  0.00    -0.077 C 
ATOM      9  C   UNL     1      34.011 -24.586 -14.417  0.00  0.00    +0.000 C 
ATOM     10  C   UNL     1      36.487 -24.674 -13.874  0.00  0.00    +0.121 C 
ATOM     11  C   UNL     1      35.183 -25.467 -13.976  0.00  0.00    +0.030 C 
ATOM     12  C   UNL     1      34.858 -20.753 -18.660  0.00  0.00    +0.010 A 
ATOM     13  C   UNL     1      32.290 -21.624 -18.013  0.00  0.00    -0.072 C 
ATOM     14  C   UNL     1      33.892 -20.587 -19.629  0.00  0.00    -0.013 A 
ATOM     15  C   UNL     1      32.536 -21.181 -19.474  0.00  0.00    +0.005 C 
ATOM     16  C   UNL     1      34.462 -19.822 -20.682  0.00  0.00    +0.013 A 
ATOM     17  C   UNL     1      35.776 -19.526 -20.300  0.00  0.00    +0.056 A 
ATOM     18  C   UNL     1      33.994 -19.346 -21.922  0.00  0.00    +0.001 C 
ATOM     19  C   UNL     1      36.642 -18.774 -21.103  0.00  0.00    +0.017 C 
ATOM     20  C   UNL     1      34.851 -18.595 -22.735  0.00  0.00    +0.000 C 
ATOM     21  C   UNL     1      36.154 -18.315 -22.329  0.00  0.00    +0.001 C 
ATOM     22  H   UNL     1      33.684 -23.090 -18.135  0.00  0.00    -0.079 HD
ATOM     23  H   UNL     1      36.822 -20.033 -18.544  0.00  0.00    +0.166 HD
ENDROOT
BRANCH  10  24
ATOM     24  O   UNL     1      36.367 -23.730 -12.809  0.00  0.00    -0.384 OA
ATOM     25  H   UNL     1      36.031 -24.176 -12.016  0.00  0.00    +0.210 HD
ENDBRANCH  10  24
BRANCH   7  27
ATOM     26  O   UNL     1      38.310 -22.114 -15.625  0.00  0.00    -0.250 OA
ATOM     27  C   UNL     1      38.059 -23.147 -15.017  0.00  0.00    +0.319 C 
BRANCH  27  28
ATOM     28  O   UNL     1      38.857 -23.760 -14.098  0.00  0.00    -0.444 OA
ATOM     29  C   UNL     1      39.852 -24.638 -14.635  0.00  0.00    +0.256 C 
ENDBRANCH  27  28
ENDBRANCH   7  27
TORSDOF 3
ENDMDL
