MODEL 1
REMARK VINA RESULT:      -9.6      0.000      0.000
REMARK  Name = 11691442
REMARK  5 active torsions:
REMARK  status: ('A' for Active; 'I' for Inactive)
REMARK    1  A    between atoms: C_10  and  C_19
REMARK    2  A    between atoms: C_11  and  C_27
REMARK    3  A    between atoms: N_26  and  C_29
REMARK    4  A    between atoms: C_29  and  C_30
REMARK    5  A    between atoms: C_30  and  O_31
REMARK                            x       y       z     vdW  Elec       q    Type
REMARK                         _______ _______ _______ _____ _____    ______ ____
ROOT
ATOM      1 BR   UNL     1      31.227 -21.781 -18.032  0.00  0.00    -0.047 Br
ATOM      2  O   UNL     1      34.182 -21.318 -18.279  0.00  0.00    -0.270 OA
ATOM      3  O   UNL     1      37.703 -22.484 -15.567  0.00  0.00    -0.270 OA
ATOM      4  N   UNL     1      31.449 -23.764 -14.521  0.00  0.00    -0.321 N 
ATOM      5  N   UNL     1      36.169 -21.738 -17.163  0.00  0.00    -0.248 N 
ATOM      6  C   UNL     1      32.973 -22.832 -15.858  0.00  0.00    +0.028 A 
ATOM      7  C   UNL     1      32.800 -23.538 -14.658  0.00  0.00    +0.061 A 
ATOM      8  C   UNL     1      34.283 -22.498 -16.191  0.00  0.00    +0.060 C 
ATOM      9  C   UNL     1      35.351 -22.850 -15.373  0.00  0.00    +0.058 C 
ATOM     10  C   UNL     1      35.180 -23.543 -14.193  0.00  0.00    +0.007 C 
ATOM     11  C   UNL     1      30.770 -23.230 -15.584  0.00  0.00    +0.120 A 
ATOM     12  C   UNL     1      33.878 -23.900 -13.817  0.00  0.00    +0.017 C 
ATOM     13  C   UNL     1      31.687 -22.647 -16.429  0.00  0.00    +0.056 A 
ATOM     14  C   UNL     1      34.807 -21.782 -17.346  0.00  0.00    +0.252 C 
ATOM     15  C   UNL     1      36.575 -22.357 -16.004  0.00  0.00    +0.252 C 
ATOM     16  C   UNL     1      30.836 -24.468 -13.412  0.00  0.00    +0.131 C 
ATOM     17  H   UNL     1      36.789 -21.309 -17.797  0.00  0.00    +0.158 HD
ENDROOT
BRANCH  10  19
ATOM     18 CL   UNL     1      36.554 -26.250 -14.735  0.00  0.00    -0.082 Cl
ATOM     19  C   UNL     1      36.289 -23.910 -13.341  0.00  0.00    +0.011 C 
ATOM     20  C   UNL     1      36.980 -25.113 -13.503  0.00  0.00    +0.058 C 
ATOM     21  C   UNL     1      36.672 -23.023 -12.331  0.00  0.00    +0.001 C 
ATOM     22  C   UNL     1      38.045 -25.429 -12.661  0.00  0.00    +0.011 C 
ATOM     23  C   UNL     1      37.737 -23.339 -11.489  0.00  0.00    +0.000 C 
ATOM     24  C   UNL     1      38.424 -24.542 -11.653  0.00  0.00    +0.001 C 
ENDBRANCH  10  19
BRANCH  11  27
ATOM     25  O   UNL     1      28.783 -24.360 -16.109  0.00  0.00    -0.269 OA
ATOM     26  N   UNL     1      28.593 -22.156 -15.413  0.00  0.00    -0.297 N 
ATOM     27  C   UNL     1      29.346 -23.304 -15.730  0.00  0.00    +0.262 C 
ATOM     28  H   UNL     1      29.081 -21.352 -15.121  0.00  0.00    +0.150 HD
BRANCH  26  29
ATOM     29  C   UNL     1      27.151 -22.080 -15.487  0.00  0.00    +0.122 C 
BRANCH  29  30
ATOM     30  C   UNL     1      26.683 -21.720 -16.886  0.00  0.00    +0.158 C 
BRANCH  30  31
ATOM     31  O   UNL     1      26.801 -22.858 -17.730  0.00  0.00    -0.380 OA
ATOM     32  H   UNL     1      27.041 -22.572 -18.626  0.00  0.00    +0.211 HD
ENDBRANCH  30  31
ENDBRANCH  29  30
ENDBRANCH  26  29
ENDBRANCH  11  27
TORSDOF 5
ENDMDL
MODEL 2
REMARK VINA RESULT:      -8.9     13.573     16.394
REMARK  Name = 11691442
REMARK  5 active torsions:
REMARK  status: ('A' for Active; 'I' for Inactive)
REMARK    1  A    between atoms: C_10  and  C_19
REMARK    2  A    between atoms: C_11  and  C_27
REMARK    3  A    between atoms: N_26  and  C_29
REMARK    4  A    between atoms: C_29  and  C_30
REMARK    5  A    between atoms: C_30  and  O_31
REMARK                            x       y       z     vdW  Elec       q    Type
REMARK                         _______ _______ _______ _____ _____    ______ ____
ROOT
ATOM      1 BR   UNL     1      32.207 -13.487 -20.255  0.00  0.00    -0.047 Br
ATOM      2  O   UNL     1      31.379 -10.898 -18.983  0.00  0.00    -0.270 OA
ATOM      3  O   UNL     1      31.047  -6.631 -20.655  0.00  0.00    -0.270 OA
ATOM      4  N   UNL     1      32.913 -11.905 -23.903  0.00  0.00    -0.321 N 
ATOM      5  N   UNL     1      31.101  -8.653 -19.486  0.00  0.00    -0.248 N 
ATOM      6  C   UNL     1      32.224 -11.046 -21.963  0.00  0.00    +0.028 A 
ATOM      7  C   UNL     1      32.530 -10.731 -23.295  0.00  0.00    +0.061 A 
ATOM      8  C   UNL     1      31.809  -9.985 -21.161  0.00  0.00    +0.060 C 
ATOM      9  C   UNL     1      31.706  -8.693 -21.664  0.00  0.00    +0.058 C 
ATOM     10  C   UNL     1      32.008  -8.385 -22.974  0.00  0.00    +0.007 C 
ATOM     11  C   UNL     1      32.860 -12.940 -23.008  0.00  0.00    +0.120 A 
ATOM     12  C   UNL     1      32.431  -9.421 -23.818  0.00  0.00    +0.017 C 
ATOM     13  C   UNL     1      32.436 -12.439 -21.798  0.00  0.00    +0.056 A 
ATOM     14  C   UNL     1      31.419  -9.964 -19.758  0.00  0.00    +0.252 C 
ATOM     15  C   UNL     1      31.247  -7.829 -20.577  0.00  0.00    +0.252 C 
ATOM     16  C   UNL     1      33.313 -12.027 -25.290  0.00  0.00    +0.131 C 
ATOM     17  H   UNL     1      30.800  -8.339 -18.603  0.00  0.00    +0.158 HD
ENDROOT
BRANCH  10  19
ATOM     18 CL   UNL     1      34.384  -6.479 -22.490  0.00  0.00    -0.082 Cl
ATOM     19  C   UNL     1      31.902  -7.042 -23.499  0.00  0.00    +0.011 C 
ATOM     20  C   UNL     1      32.923  -6.102 -23.335  0.00  0.00    +0.058 C 
ATOM     21  C   UNL     1      30.741  -6.689 -24.190  0.00  0.00    +0.001 C 
ATOM     22  C   UNL     1      32.782  -4.816 -23.858  0.00  0.00    +0.011 C 
ATOM     23  C   UNL     1      30.600  -5.403 -24.713  0.00  0.00    +0.000 C 
ATOM     24  C   UNL     1      31.621  -4.467 -24.547  0.00  0.00    +0.001 C 
ENDBRANCH  10  19
BRANCH  11  27
ATOM     25  O   UNL     1      32.709 -14.859 -24.347  0.00  0.00    -0.269 OA
ATOM     26  N   UNL     1      34.123 -14.961 -22.512  0.00  0.00    -0.297 N 
ATOM     27  C   UNL     1      33.200 -14.293 -23.340  0.00  0.00    +0.262 C 
ATOM     28  H   UNL     1      34.479 -14.474 -21.734  0.00  0.00    +0.150 HD
BRANCH  26  29
ATOM     29  C   UNL     1      34.582 -16.314 -22.728  0.00  0.00    +0.122 C 
BRANCH  29  30
ATOM     30  C   UNL     1      34.934 -17.000 -21.421  0.00  0.00    +0.158 C 
BRANCH  30  31
ATOM     31  O   UNL     1      34.556 -16.165 -20.334  0.00  0.00    -0.380 OA
ATOM     32  H   UNL     1      35.311 -15.619 -20.068  0.00  0.00    +0.211 HD
ENDBRANCH  30  31
ENDBRANCH  29  30
ENDBRANCH  26  29
ENDBRANCH  11  27
TORSDOF 5
ENDMDL
MODEL 3
REMARK VINA RESULT:      -8.5      2.424      4.844
REMARK  Name = 11691442
REMARK  5 active torsions:
REMARK  status: ('A' for Active; 'I' for Inactive)
REMARK    1  A    between atoms: C_10  and  C_19
REMARK    2  A    between atoms: C_11  and  C_27
REMARK    3  A    between atoms: N_26  and  C_29
REMARK    4  A    between atoms: C_29  and  C_30
REMARK    5  A    between atoms: C_30  and  O_31
REMARK                            x       y       z     vdW  Elec       q    Type
REMARK                         _______ _______ _______ _____ _____    ______ ____
ROOT
ATOM      1 BR   UNL     1      30.518 -21.998 -17.398  0.00  0.00    -0.047 Br
ATOM      2  O   UNL     1      30.502 -23.270 -14.679  0.00  0.00    -0.270 OA
ATOM      3  O   UNL     1      33.911 -24.551 -11.878  0.00  0.00    -0.270 OA
ATOM      4  N   UNL     1      34.540 -21.818 -17.707  0.00  0.00    -0.321 N 
ATOM      5  N   UNL     1      31.952 -24.025 -13.038  0.00  0.00    -0.248 N 
ATOM      6  C   UNL     1      33.152 -22.570 -16.130  0.00  0.00    +0.028 A 
ATOM      7  C   UNL     1      34.505 -22.403 -16.461  0.00  0.00    +0.061 A 
ATOM      8  C   UNL     1      32.891 -23.152 -14.892  0.00  0.00    +0.060 C 
ATOM      9  C   UNL     1      33.919 -23.540 -14.041  0.00  0.00    +0.058 C 
ATOM     10  C   UNL     1      35.248 -23.376 -14.368  0.00  0.00    +0.007 C 
ATOM     11  C   UNL     1      33.267 -21.614 -18.169  0.00  0.00    +0.120 A 
ATOM     12  C   UNL     1      35.560 -22.795 -15.605  0.00  0.00    +0.017 C 
ATOM     13  C   UNL     1      32.386 -22.068 -17.214  0.00  0.00    +0.056 A 
ATOM     14  C   UNL     1      31.621 -23.463 -14.248  0.00  0.00    +0.252 C 
ATOM     15  C   UNL     1      33.310 -24.107 -12.838  0.00  0.00    +0.252 C 
ATOM     16  C   UNL     1      35.750 -21.470 -18.424  0.00  0.00    +0.131 C 
ATOM     17  H   UNL     1      31.286 -24.337 -12.383  0.00  0.00    +0.158 HD
ENDROOT
BRANCH  10  19
ATOM     18 CL   UNL     1      36.382 -26.223 -14.717  0.00  0.00    -0.082 Cl
ATOM     19  C   UNL     1      36.321 -23.779 -13.485  0.00  0.00    +0.011 C 
ATOM     20  C   UNL     1      36.904 -25.046 -13.562  0.00  0.00    +0.058 C 
ATOM     21  C   UNL     1      36.777 -22.863 -12.535  0.00  0.00    +0.001 C 
ATOM     22  C   UNL     1      37.937 -25.396 -12.692  0.00  0.00    +0.011 C 
ATOM     23  C   UNL     1      37.810 -23.213 -11.665  0.00  0.00    +0.000 C 
ATOM     24  C   UNL     1      38.390 -24.479 -11.743  0.00  0.00    +0.001 C 
ENDBRANCH  10  19
BRANCH  11  27
ATOM     25  O   UNL     1      31.930 -21.318 -20.073  0.00  0.00    -0.269 OA
ATOM     26  N   UNL     1      33.881 -20.070 -19.948  0.00  0.00    -0.297 N 
ATOM     27  C   UNL     1      32.972 -21.020 -19.440  0.00  0.00    +0.262 C 
ATOM     28  H   UNL     1      34.684 -19.871 -19.414  0.00  0.00    +0.150 HD
BRANCH  26  29
ATOM     29  C   UNL     1      33.713 -19.369 -21.201  0.00  0.00    +0.122 C 
BRANCH  29  30
ATOM     30  C   UNL     1      34.936 -18.539 -21.545  0.00  0.00    +0.158 C 
BRANCH  30  31
ATOM     31  O   UNL     1      35.019 -17.431 -20.658  0.00  0.00    -0.380 OA
ATOM     32  H   UNL     1      34.413 -17.566 -19.914  0.00  0.00    +0.211 HD
ENDBRANCH  30  31
ENDBRANCH  29  30
ENDBRANCH  26  29
ENDBRANCH  11  27
TORSDOF 5
ENDMDL
MODEL 4
REMARK VINA RESULT:      -8.2      1.233      1.537
REMARK  Name = 11691442
REMARK  5 active torsions:
REMARK  status: ('A' for Active; 'I' for Inactive)
REMARK    1  A    between atoms: C_10  and  C_19
REMARK    2  A    between atoms: C_11  and  C_27
REMARK    3  A    between atoms: N_26  and  C_29
REMARK    4  A    between atoms: C_29  and  C_30
REMARK    5  A    between atoms: C_30  and  O_31
REMARK                            x       y       z     vdW  Elec       q    Type
REMARK                         _______ _______ _______ _____ _____    ______ ____
ROOT
ATOM      1 BR   UNL     1      31.677 -21.576 -18.235  0.00  0.00    -0.047 Br
ATOM      2  O   UNL     1      34.630 -21.062 -18.396  0.00  0.00    -0.270 OA
ATOM      3  O   UNL     1      38.128 -22.452 -15.762  0.00  0.00    -0.270 OA
ATOM      4  N   UNL     1      31.876 -23.888 -14.931  0.00  0.00    -0.321 N 
ATOM      5  N   UNL     1      36.606 -21.570 -17.300  0.00  0.00    -0.248 N 
ATOM      6  C   UNL     1      33.406 -22.816 -16.150  0.00  0.00    +0.028 A 
ATOM      7  C   UNL     1      33.226 -23.636 -15.027  0.00  0.00    +0.061 A 
ATOM      8  C   UNL     1      34.717 -22.439 -16.431  0.00  0.00    +0.060 C 
ATOM      9  C   UNL     1      35.778 -22.858 -15.637  0.00  0.00    +0.058 C 
ATOM     10  C   UNL     1      35.599 -23.664 -14.532  0.00  0.00    +0.007 C 
ATOM     11  C   UNL     1      31.204 -23.260 -15.946  0.00  0.00    +0.120 A 
ATOM     12  C   UNL     1      34.297 -24.068 -14.210  0.00  0.00    +0.017 C 
ATOM     13  C   UNL     1      32.126 -22.589 -16.717  0.00  0.00    +0.056 A 
ATOM     14  C   UNL     1      35.247 -21.609 -17.504  0.00  0.00    +0.252 C 
ATOM     15  C   UNL     1      37.004 -22.294 -16.200  0.00  0.00    +0.252 C 
ATOM     16  C   UNL     1      31.257 -24.702 -13.904  0.00  0.00    +0.131 C 
ATOM     17  H   UNL     1      37.230 -21.076 -17.880  0.00  0.00    +0.158 HD
ENDROOT
BRANCH  10  19
ATOM     18 CL   UNL     1      35.795 -22.487 -11.688  0.00  0.00    -0.082 Cl
ATOM     19  C   UNL     1      36.702 -24.101 -13.704  0.00  0.00    +0.011 C 
ATOM     20  C   UNL     1      36.880 -23.630 -12.401  0.00  0.00    +0.058 C 
ATOM     21  C   UNL     1      37.606 -25.024 -14.236  0.00  0.00    +0.001 C 
ATOM     22  C   UNL     1      37.956 -24.077 -11.635  0.00  0.00    +0.011 C 
ATOM     23  C   UNL     1      38.682 -25.472 -13.470  0.00  0.00    +0.000 C 
ATOM     24  C   UNL     1      38.857 -24.998 -12.169  0.00  0.00    +0.001 C 
ENDBRANCH  10  19
BRANCH  11  27
ATOM     25  O   UNL     1      29.176 -24.430 -16.070  0.00  0.00    -0.269 OA
ATOM     26  N   UNL     1      29.083 -22.127 -16.321  0.00  0.00    -0.297 N 
ATOM     27  C   UNL     1      29.783 -23.333 -16.118  0.00  0.00    +0.262 C 
ATOM     28  H   UNL     1      29.605 -21.292 -16.351  0.00  0.00    +0.150 HD
BRANCH  26  29
ATOM     29  C   UNL     1      27.651 -22.033 -16.488  0.00  0.00    +0.122 C 
BRANCH  29  30
ATOM     30  C   UNL     1      26.930 -22.059 -15.152  0.00  0.00    +0.158 C 
BRANCH  30  31
ATOM     31  O   UNL     1      25.569 -21.695 -15.343  0.00  0.00    -0.380 OA
ATOM     32  H   UNL     1      25.471 -20.738 -15.223  0.00  0.00    +0.211 HD
ENDBRANCH  30  31
ENDBRANCH  29  30
ENDBRANCH  26  29
ENDBRANCH  11  27
TORSDOF 5
ENDMDL
MODEL 5
REMARK VINA RESULT:      -8.2     18.261     20.660
REMARK  Name = 11691442
REMARK  5 active torsions:
REMARK  status: ('A' for Active; 'I' for Inactive)
REMARK    1  A    between atoms: C_10  and  C_19
REMARK    2  A    between atoms: C_11  and  C_27
REMARK    3  A    between atoms: N_26  and  C_29
REMARK    4  A    between atoms: C_29  and  C_30
REMARK    5  A    between atoms: C_30  and  O_31
REMARK                            x       y       z     vdW  Elec       q    Type
REMARK                         _______ _______ _______ _____ _____    ______ ____
ROOT
ATOM      1 BR   UNL     1      30.238  -4.788 -21.152  0.00  0.00    -0.047 Br
ATOM      2  O   UNL     1      30.111  -2.733 -23.335  0.00  0.00    -0.270 OA
ATOM      3  O   UNL     1      32.145  -2.505 -27.449  0.00  0.00    -0.270 OA
ATOM      4  N   UNL     1      32.793  -7.241 -23.091  0.00  0.00    -0.321 N 
ATOM      5  N   UNL     1      30.957  -2.297 -25.447  0.00  0.00    -0.248 N 
ATOM      6  C   UNL     1      31.850  -5.287 -23.607  0.00  0.00    +0.028 A 
ATOM      7  C   UNL     1      32.718  -6.283 -24.077  0.00  0.00    +0.061 A 
ATOM      8  C   UNL     1      31.631  -4.210 -24.463  0.00  0.00    +0.060 C 
ATOM      9  C   UNL     1      32.244  -4.137 -25.709  0.00  0.00    +0.058 C 
ATOM     10  C   UNL     1      33.098  -5.118 -26.168  0.00  0.00    +0.007 C 
ATOM     11  C   UNL     1      32.008  -6.886 -22.025  0.00  0.00    +0.120 A 
ATOM     12  C   UNL     1      33.348  -6.221 -25.341  0.00  0.00    +0.017 C 
ATOM     13  C   UNL     1      31.411  -5.680 -22.316  0.00  0.00    +0.056 A 
ATOM     14  C   UNL     1      30.800  -3.025 -24.291  0.00  0.00    +0.252 C 
ATOM     15  C   UNL     1      31.807  -2.897 -26.347  0.00  0.00    +0.252 C 
ATOM     16  C   UNL     1      33.587  -8.451 -23.171  0.00  0.00    +0.131 C 
ATOM     17  H   UNL     1      30.508  -1.437 -25.614  0.00  0.00    +0.158 HD
ENDROOT
BRANCH  10  19
ATOM     18 CL   UNL     1      35.837  -3.709 -26.325  0.00  0.00    -0.082 Cl
ATOM     19  C   UNL     1      33.737  -5.045 -27.464  0.00  0.00    +0.011 C 
ATOM     20  C   UNL     1      34.979  -4.429 -27.642  0.00  0.00    +0.058 C 
ATOM     21  C   UNL     1      33.083  -5.613 -28.559  0.00  0.00    +0.001 C 
ATOM     22  C   UNL     1      35.562  -4.381 -28.908  0.00  0.00    +0.011 C 
ATOM     23  C   UNL     1      33.666  -5.565 -29.826  0.00  0.00    +0.000 C 
ATOM     24  C   UNL     1      34.905  -4.949 -30.000  0.00  0.00    +0.001 C 
ENDBRANCH  10  19
BRANCH  11  27
ATOM     25  O   UNL     1      32.322  -7.286 -19.736  0.00  0.00    -0.269 OA
ATOM     26  N   UNL     1      31.206  -8.916 -20.950  0.00  0.00    -0.297 N 
ATOM     27  C   UNL     1      31.876  -7.682 -20.840  0.00  0.00    +0.262 C 
ATOM     28  H   UNL     1      30.874  -9.183 -21.838  0.00  0.00    +0.150 HD
BRANCH  26  29
ATOM     29  C   UNL     1      30.973  -9.818 -19.845  0.00  0.00    +0.122 C 
BRANCH  29  30
ATOM     30  C   UNL     1      31.578 -11.186 -20.103  0.00  0.00    +0.158 C 
BRANCH  30  31
ATOM     31  O   UNL     1      30.858 -11.830 -21.147  0.00  0.00    -0.380 OA
ATOM     32  H   UNL     1      31.023 -12.785 -21.111  0.00  0.00    +0.211 HD
ENDBRANCH  30  31
ENDBRANCH  29  30
ENDBRANCH  26  29
ENDBRANCH  11  27
TORSDOF 5
ENDMDL
MODEL 6
REMARK VINA RESULT:      -7.9     15.569     18.086
REMARK  Name = 11691442
REMARK  5 active torsions:
REMARK  status: ('A' for Active; 'I' for Inactive)
REMARK    1  A    between atoms: C_10  and  C_19
REMARK    2  A    between atoms: C_11  and  C_27
REMARK    3  A    between atoms: N_26  and  C_29
REMARK    4  A    between atoms: C_29  and  C_30
REMARK    5  A    between atoms: C_30  and  O_31
REMARK                            x       y       z     vdW  Elec       q    Type
REMARK                         _______ _______ _______ _____ _____    ______ ____
ROOT
ATOM      1 BR   UNL     1      31.188  -9.771 -18.974  0.00  0.00    -0.047 Br
ATOM      2  O   UNL     1      31.193  -6.771 -18.908  0.00  0.00    -0.270 OA
ATOM      3  O   UNL     1      32.212  -3.639 -22.112  0.00  0.00    -0.270 OA
ATOM      4  N   UNL     1      32.374 -10.066 -22.822  0.00  0.00    -0.321 N 
ATOM      5  N   UNL     1      31.629  -4.942 -20.263  0.00  0.00    -0.248 N 
ATOM      6  C   UNL     1      31.972  -8.341 -21.467  0.00  0.00    +0.028 A 
ATOM      7  C   UNL     1      32.370  -8.691 -22.765  0.00  0.00    +0.061 A 
ATOM      8  C   UNL     1      31.900  -6.977 -21.193  0.00  0.00    +0.060 C 
ATOM      9  C   UNL     1      32.207  -6.026 -22.160  0.00  0.00    +0.058 C 
ATOM     10  C   UNL     1      32.598  -6.372 -23.436  0.00  0.00    +0.007 C 
ATOM     11  C   UNL     1      31.997 -10.591 -21.615  0.00  0.00    +0.120 A 
ATOM     12  C   UNL     1      32.686  -7.734 -23.757  0.00  0.00    +0.017 C 
ATOM     13  C   UNL     1      31.741  -9.546 -20.755  0.00  0.00    +0.056 A 
ATOM     14  C   UNL     1      31.527  -6.282 -19.969  0.00  0.00    +0.252 C 
ATOM     15  C   UNL     1      32.031  -4.706 -21.556  0.00  0.00    +0.252 C 
ATOM     16  C   UNL     1      32.727 -10.845 -23.992  0.00  0.00    +0.131 C 
ATOM     17  H   UNL     1      31.433  -4.227 -19.615  0.00  0.00    +0.158 HD
ENDROOT
BRANCH  10  19
ATOM     18 CL   UNL     1      30.245  -4.912 -24.793  0.00  0.00    -0.082 Cl
ATOM     19  C   UNL     1      32.918  -5.385 -24.444  0.00  0.00    +0.011 C 
ATOM     20  C   UNL     1      31.926  -4.668 -25.117  0.00  0.00    +0.058 C 
ATOM     21  C   UNL     1      34.263  -5.151 -24.741  0.00  0.00    +0.001 C 
ATOM     22  C   UNL     1      32.276  -3.723 -26.082  0.00  0.00    +0.011 C 
ATOM     23  C   UNL     1      34.613  -4.207 -25.706  0.00  0.00    +0.000 C 
ATOM     24  C   UNL     1      33.620  -3.493 -26.376  0.00  0.00    +0.001 C 
ENDBRANCH  10  19
BRANCH  11  27
ATOM     25  O   UNL     1      30.831 -12.624 -21.541  0.00  0.00    -0.269 OA
ATOM     26  N   UNL     1      33.064 -12.663 -20.913  0.00  0.00    -0.297 N 
ATOM     27  C   UNL     1      31.903 -11.998 -21.357  0.00  0.00    +0.262 C 
ATOM     28  H   UNL     1      33.880 -12.128 -20.784  0.00  0.00    +0.150 HD
BRANCH  26  29
ATOM     29  C   UNL     1      33.135 -14.080 -20.634  0.00  0.00    +0.122 C 
BRANCH  29  30
ATOM     30  C   UNL     1      34.099 -14.786 -21.570  0.00  0.00    +0.158 C 
BRANCH  30  31
ATOM     31  O   UNL     1      34.546 -15.992 -20.964  0.00  0.00    -0.380 OA
ATOM     32  H   UNL     1      34.120 -16.097 -20.100  0.00  0.00    +0.211 HD
ENDBRANCH  30  31
ENDBRANCH  29  30
ENDBRANCH  26  29
ENDBRANCH  11  27
TORSDOF 5
ENDMDL
MODEL 7
REMARK VINA RESULT:      -7.4     15.893     18.451
REMARK  Name = 11691442
REMARK  5 active torsions:
REMARK  status: ('A' for Active; 'I' for Inactive)
REMARK    1  A    between atoms: C_10  and  C_19
REMARK    2  A    between atoms: C_11  and  C_27
REMARK    3  A    between atoms: N_26  and  C_29
REMARK    4  A    between atoms: C_29  and  C_30
REMARK    5  A    between atoms: C_30  and  O_31
REMARK                            x       y       z     vdW  Elec       q    Type
REMARK                         _______ _______ _______ _____ _____    ______ ____
ROOT
ATOM      1 BR   UNL     1      31.425  -9.722 -19.143  0.00  0.00    -0.047 Br
ATOM      2  O   UNL     1      31.232  -6.735 -18.912  0.00  0.00    -0.270 OA
ATOM      3  O   UNL     1      31.669  -3.388 -22.029  0.00  0.00    -0.270 OA
ATOM      4  N   UNL     1      32.193  -9.744 -23.107  0.00  0.00    -0.321 N 
ATOM      5  N   UNL     1      31.387  -4.817 -20.202  0.00  0.00    -0.248 N 
ATOM      6  C   UNL     1      31.827  -8.120 -21.623  0.00  0.00    +0.028 A 
ATOM      7  C   UNL     1      32.100  -8.377 -22.974  0.00  0.00    +0.061 A 
ATOM      8  C   UNL     1      31.692  -6.780 -21.268  0.00  0.00    +0.060 C 
ATOM      9  C   UNL     1      31.823  -5.764 -22.208  0.00  0.00    +0.058 C 
ATOM     10  C   UNL     1      32.092  -6.019 -23.536  0.00  0.00    +0.007 C 
ATOM     11  C   UNL     1      31.989 -10.352 -21.897  0.00  0.00    +0.120 A 
ATOM     12  C   UNL     1      32.237  -7.353 -23.940  0.00  0.00    +0.017 C 
ATOM     13  C   UNL     1      31.760  -9.372 -20.959  0.00  0.00    +0.056 A 
ATOM     14  C   UNL     1      31.410  -6.173 -19.974  0.00  0.00    +0.252 C 
ATOM     15  C   UNL     1      31.625  -4.491 -21.517  0.00  0.00    +0.252 C 
ATOM     16  C   UNL     1      32.466 -10.437 -24.350  0.00  0.00    +0.131 C 
ATOM     17  H   UNL     1      31.216  -4.150 -19.498  0.00  0.00    +0.158 HD
ENDROOT
BRANCH  10  19
ATOM     18 CL   UNL     1      34.951  -5.168 -24.321  0.00  0.00    -0.082 Cl
ATOM     19  C   UNL     1      32.229  -4.963 -24.516  0.00  0.00    +0.011 C 
ATOM     20  C   UNL     1      33.479  -4.506 -24.940  0.00  0.00    +0.058 C 
ATOM     21  C   UNL     1      31.068  -4.397 -25.047  0.00  0.00    +0.001 C 
ATOM     22  C   UNL     1      33.567  -3.487 -25.889  0.00  0.00    +0.011 C 
ATOM     23  C   UNL     1      31.156  -3.378 -25.996  0.00  0.00    +0.000 C 
ATOM     24  C   UNL     1      32.406  -2.923 -26.416  0.00  0.00    +0.001 C 
ENDBRANCH  10  19
BRANCH  11  27
ATOM     25  O   UNL     1      31.003 -12.405 -21.340  0.00  0.00    -0.269 OA
ATOM     26  N   UNL     1      33.232 -12.443 -21.979  0.00  0.00    -0.297 N 
ATOM     27  C   UNL     1      32.022 -11.773 -21.710  0.00  0.00    +0.262 C 
ATOM     28  H   UNL     1      34.003 -11.902 -22.266  0.00  0.00    +0.150 HD
BRANCH  26  29
ATOM     29  C   UNL     1      33.417 -13.872 -21.859  0.00  0.00    +0.122 C 
BRANCH  29  30
ATOM     30  C   UNL     1      33.788 -14.500 -23.190  0.00  0.00    +0.158 C 
BRANCH  30  31
ATOM     31  O   UNL     1      34.958 -15.292 -23.028  0.00  0.00    -0.380 OA
ATOM     32  H   UNL     1      35.274 -15.219 -22.114  0.00  0.00    +0.211 HD
ENDBRANCH  30  31
ENDBRANCH  29  30
ENDBRANCH  26  29
ENDBRANCH  11  27
TORSDOF 5
ENDMDL
MODEL 8
REMARK VINA RESULT:      -6.9      2.613      3.446
REMARK  Name = 11691442
REMARK  5 active torsions:
REMARK  status: ('A' for Active; 'I' for Inactive)
REMARK    1  A    between atoms: C_10  and  C_19
REMARK    2  A    between atoms: C_11  and  C_27
REMARK    3  A    between atoms: N_26  and  C_29
REMARK    4  A    between atoms: C_29  and  C_30
REMARK    5  A    between atoms: C_30  and  O_31
REMARK                            x       y       z     vdW  Elec       q    Type
REMARK                         _______ _______ _______ _____ _____    ______ ____
ROOT
ATOM      1 BR   UNL     1      30.773 -22.360 -13.023  0.00  0.00    -0.047 Br
ATOM      2  O   UNL     1      32.960 -22.870 -11.032  0.00  0.00    -0.270 OA
ATOM      3  O   UNL     1      37.323 -24.213 -11.550  0.00  0.00    -0.270 OA
ATOM      4  N   UNL     1      33.001 -23.260 -16.268  0.00  0.00    -0.321 N 
ATOM      5  N   UNL     1      35.179 -23.527 -10.925  0.00  0.00    -0.248 N 
ATOM      6  C   UNL     1      33.420 -23.230 -14.077  0.00  0.00    +0.028 A 
ATOM      7  C   UNL     1      33.986 -23.488 -15.334  0.00  0.00    +0.061 A 
ATOM      8  C   UNL     1      34.259 -23.402 -12.979  0.00  0.00    +0.060 C 
ATOM      9  C   UNL     1      35.580 -23.807 -13.132  0.00  0.00    +0.058 C 
ATOM     10  C   UNL     1      36.135 -24.062 -14.368  0.00  0.00    +0.007 C 
ATOM     11  C   UNL     1      31.843 -22.870 -15.649  0.00  0.00    +0.120 A 
ATOM     12  C   UNL     1      35.327 -23.902 -15.503  0.00  0.00    +0.017 C 
ATOM     13  C   UNL     1      32.072 -22.841 -14.292  0.00  0.00    +0.056 A 
ATOM     14  C   UNL     1      33.997 -23.219 -11.558  0.00  0.00    +0.252 C 
ATOM     15  C   UNL     1      36.177 -23.888 -11.799  0.00  0.00    +0.252 C 
ATOM     16  C   UNL     1      33.167 -23.411 -17.700  0.00  0.00    +0.131 C 
ATOM     17  H   UNL     1      35.298 -23.491  -9.948  0.00  0.00    +0.158 HD
ENDROOT
BRANCH  10  19
ATOM     18 CL   UNL     1      36.770 -27.044 -13.904  0.00  0.00    -0.082 Cl
ATOM     19  C   UNL     1      37.509 -24.484 -14.530  0.00  0.00    +0.011 C 
ATOM     20  C   UNL     1      37.901 -25.811 -14.344  0.00  0.00    +0.058 C 
ATOM     21  C   UNL     1      38.460 -23.524 -14.886  0.00  0.00    +0.001 C 
ATOM     22  C   UNL     1      39.237 -26.178 -14.511  0.00  0.00    +0.011 C 
ATOM     23  C   UNL     1      39.795 -23.891 -15.053  0.00  0.00    +0.000 C 
ATOM     24  C   UNL     1      40.184 -25.217 -14.865  0.00  0.00    +0.001 C 
ENDBRANCH  10  19
BRANCH  11  27
ATOM     25  O   UNL     1      30.621 -21.711 -17.280  0.00  0.00    -0.269 OA
ATOM     26  N   UNL     1      29.464 -23.252 -15.990  0.00  0.00    -0.297 N 
ATOM     27  C   UNL     1      30.634 -22.558 -16.354  0.00  0.00    +0.262 C 
ATOM     28  H   UNL     1      29.526 -23.906 -15.257  0.00  0.00    +0.150 HD
BRANCH  26  29
ATOM     29  C   UNL     1      28.176 -23.066 -16.620  0.00  0.00    +0.122 C 
BRANCH  29  30
ATOM     30  C   UNL     1      27.345 -22.022 -15.896  0.00  0.00    +0.158 C 
BRANCH  30  31
ATOM     31  O   UNL     1      26.702 -21.186 -16.849  0.00  0.00    -0.380 OA
ATOM     32  H   UNL     1      25.817 -20.954 -16.530  0.00  0.00    +0.211 HD
ENDBRANCH  30  31
ENDBRANCH  29  30
ENDBRANCH  26  29
ENDBRANCH  11  27
TORSDOF 5
ENDMDL
MODEL 9
REMARK VINA RESULT:      -6.7     18.344     20.834
REMARK  Name = 11691442
REMARK  5 active torsions:
REMARK  status: ('A' for Active; 'I' for Inactive)
REMARK    1  A    between atoms: C_10  and  C_19
REMARK    2  A    between atoms: C_11  and  C_27
REMARK    3  A    between atoms: N_26  and  C_29
REMARK    4  A    between atoms: C_29  and  C_30
REMARK    5  A    between atoms: C_30  and  O_31
REMARK                            x       y       z     vdW  Elec       q    Type
REMARK                         _______ _______ _______ _____ _____    ______ ____
ROOT
ATOM      1 BR   UNL     1      32.803  -1.786 -25.784  0.00  0.00    -0.047 Br
ATOM      2  O   UNL     1      30.855  -1.915 -23.505  0.00  0.00    -0.270 OA
ATOM      3  O   UNL     1      29.792  -5.288 -20.572  0.00  0.00    -0.270 OA
ATOM      4  N   UNL     1      34.135  -5.573 -25.357  0.00  0.00    -0.321 N 
ATOM      5  N   UNL     1      30.081  -3.374 -21.880  0.00  0.00    -0.248 N 
ATOM      6  C   UNL     1      32.622  -4.345 -24.271  0.00  0.00    +0.028 A 
ATOM      7  C   UNL     1      33.233  -5.607 -24.317  0.00  0.00    +0.061 A 
ATOM      8  C   UNL     1      31.664  -4.164 -23.277  0.00  0.00    +0.060 C 
ATOM      9  C   UNL     1      31.340  -5.182 -22.387  0.00  0.00    +0.058 C 
ATOM     10  C   UNL     1      31.942  -6.422 -22.434  0.00  0.00    +0.007 C 
ATOM     11  C   UNL     1      34.114  -4.345 -25.962  0.00  0.00    +0.120 A 
ATOM     12  C   UNL     1      32.912  -6.651 -23.419  0.00  0.00    +0.017 C 
ATOM     13  C   UNL     1      33.187  -3.563 -25.311  0.00  0.00    +0.056 A 
ATOM     14  C   UNL     1      30.855  -2.997 -22.953  0.00  0.00    +0.252 C 
ATOM     15  C   UNL     1      30.313  -4.669 -21.481  0.00  0.00    +0.252 C 
ATOM     16  C   UNL     1      34.984  -6.679 -25.752  0.00  0.00    +0.131 C 
ATOM     17  H   UNL     1      29.429  -2.779 -21.443  0.00  0.00    +0.158 HD
ENDROOT
BRANCH  10  19
ATOM     18 CL   UNL     1      32.881  -6.111 -19.513  0.00  0.00    -0.082 Cl
ATOM     19  C   UNL     1      31.606  -7.482 -21.510  0.00  0.00    +0.011 C 
ATOM     20  C   UNL     1      31.984  -7.438 -20.166  0.00  0.00    +0.058 C 
ATOM     21  C   UNL     1      30.881  -8.576 -21.989  0.00  0.00    +0.001 C 
ATOM     22  C   UNL     1      31.640  -8.481 -19.306  0.00  0.00    +0.011 C 
ATOM     23  C   UNL     1      30.537  -9.619 -21.130  0.00  0.00    +0.000 C 
ATOM     24  C   UNL     1      30.916  -9.572 -19.788  0.00  0.00    +0.001 C 
ENDBRANCH  10  19
BRANCH  11  27
ATOM     25  O   UNL     1      36.064  -3.458 -26.915  0.00  0.00    -0.269 OA
ATOM     26  N   UNL     1      34.469  -4.305 -28.370  0.00  0.00    -0.297 N 
ATOM     27  C   UNL     1      34.943  -3.998 -27.079  0.00  0.00    +0.262 C 
ATOM     28  H   UNL     1      33.583  -4.729 -28.446  0.00  0.00    +0.150 HD
BRANCH  26  29
ATOM     29  C   UNL     1      35.196  -4.040 -29.590  0.00  0.00    +0.122 C 
BRANCH  29  30
ATOM     30  C   UNL     1      36.176  -5.155 -29.910  0.00  0.00    +0.158 C 
BRANCH  30  31
ATOM     31  O   UNL     1      37.441  -4.850 -29.336  0.00  0.00    -0.380 OA
ATOM     32  H   UNL     1      38.129  -4.918 -30.016  0.00  0.00    +0.211 HD
ENDBRANCH  30  31
ENDBRANCH  29  30
ENDBRANCH  26  29
ENDBRANCH  11  27
TORSDOF 5
ENDMDL
