MODEL 1
REMARK VINA RESULT:     -11.6      0.000      0.000
REMARK  Name = 24963033
REMARK  8 active torsions:
REMARK  status: ('A' for Active; 'I' for Inactive)
REMARK    1  A    between atoms: N_2  and  C_19
REMARK    2  A    between atoms: C_4  and  C_11
REMARK    3  A    between atoms: N_9  and  C_15
REMARK    4  A    between atoms: C_18  and  S_24
REMARK    5  A    between atoms: S_24  and  N_27
REMARK    6  A    between atoms: N_27  and  C_29
REMARK    7  A    between atoms: C_29  and  C_30
REMARK    8  A    between atoms: C_30  and  O_31
REMARK                            x       y       z     vdW  Elec       q    Type
REMARK                         _______ _______ _______ _____ _____    ______ ____
ROOT
ATOM      1  N   UNL     1      34.345 -22.700 -16.457  0.00  0.00    -0.336 NA
ATOM      2  N   UNL     1      32.502 -21.983 -17.714  0.00  0.00    -0.247 N 
ATOM      3  N   UNL     1      32.100 -23.298 -15.816  0.00  0.00    -0.170 NA
ATOM      4  C   UNL     1      34.794 -23.390 -15.388  0.00  0.00    +0.161 C 
ATOM      5  C   UNL     1      33.969 -24.051 -14.501  0.00  0.00    +0.056 C 
ATOM      6  C   UNL     1      33.006 -22.695 -16.608  0.00  0.00    +0.149 C 
ATOM      7  C   UNL     1      32.618 -23.970 -14.767  0.00  0.00    +0.114 C 
ATOM      8  H   UNL     1      31.519 -22.006 -17.784  0.00  0.00    +0.165 HD
ENDROOT
BRANCH   4  11
ATOM      9  N   UNL     1      36.924 -24.341 -14.538  0.00  0.00    -0.274 N 
ATOM     10  N   UNL     1      38.437 -22.909 -15.309  0.00  0.00    -0.232 NA
ATOM     11  C   UNL     1      36.224 -23.394 -15.231  0.00  0.00    +0.103 C 
ATOM     12  C   UNL     1      38.247 -24.008 -14.613  0.00  0.00    +0.113 C 
ATOM     13  C   UNL     1      37.179 -22.521 -15.697  0.00  0.00    +0.117 C 
ATOM     14  C   UNL     1      39.302 -24.820 -13.971  0.00  0.00    +0.069 C 
BRANCH   9  15
ATOM     15  C   UNL     1      36.372 -25.487 -13.852  0.00  0.00    +0.078 C 
ATOM     16  C   UNL     1      36.798 -25.523 -12.381  0.00  0.00    +0.022 C 
ATOM     17  C   UNL     1      36.737 -26.796 -14.557  0.00  0.00    +0.022 C 
ENDBRANCH   9  15
ENDBRANCH   4  11
BRANCH   2  19
ATOM     18  C   UNL     1      34.359 -19.775 -20.767  0.00  0.00    +0.122 C 
ATOM     19  C   UNL     1      33.125 -21.242 -18.739  0.00  0.00    +0.058 C 
ATOM     20  C   UNL     1      35.129 -20.541 -19.892  0.00  0.00    +0.021 C 
ATOM     21  C   UNL     1      32.972 -19.743 -20.628  0.00  0.00    +0.021 C 
ATOM     22  C   UNL     1      34.513 -21.274 -18.878  0.00  0.00    +0.017 C 
ATOM     23  C   UNL     1      32.355 -20.476 -19.613  0.00  0.00    +0.017 C 
BRANCH  18  24
ATOM     24  S   UNL     1      35.130 -18.856 -22.034  0.00  0.00    +0.060 S 
ATOM     25  O   UNL     1      36.546 -18.714 -21.717  0.00  0.00    -0.153 OA
ATOM     26  O   UNL     1      34.742 -19.445 -23.309  0.00  0.00    -0.153 OA
BRANCH  24  27
ATOM     27  N   UNL     1      34.381 -17.327 -21.889  0.00  0.00    -0.177 NA
ATOM     28  H   UNL     1      34.878 -16.824 -21.154  0.00  0.00    +0.149 HD
BRANCH  27  29
ATOM     29  C   UNL     1      34.320 -16.429 -23.052  0.00  0.00    +0.123 C 
BRANCH  29  30
ATOM     30  C   UNL     1      34.351 -14.986 -22.582  0.00  0.00    +0.161 C 
BRANCH  30  31
ATOM     31  O   UNL     1      34.263 -14.949 -21.163  0.00  0.00    -0.350 OA
ATOM     32  C   UNL     1      33.450 -13.872 -20.719  0.00  0.00    +0.174 C 
ENDBRANCH  30  31
ENDBRANCH  29  30
ENDBRANCH  27  29
ENDBRANCH  24  27
ENDBRANCH  18  24
ENDBRANCH   2  19
TORSDOF 8
ENDMDL
MODEL 2
REMARK VINA RESULT:     -10.7      1.199      1.723
REMARK  Name = 24963033
REMARK  8 active torsions:
REMARK  status: ('A' for Active; 'I' for Inactive)
REMARK    1  A    between atoms: N_2  and  C_19
REMARK    2  A    between atoms: C_4  and  C_11
REMARK    3  A    between atoms: N_9  and  C_15
REMARK    4  A    between atoms: C_18  and  S_24
REMARK    5  A    between atoms: S_24  and  N_27
REMARK    6  A    between atoms: N_27  and  C_29
REMARK    7  A    between atoms: C_29  and  C_30
REMARK    8  A    between atoms: C_30  and  O_31
REMARK                            x       y       z     vdW  Elec       q    Type
REMARK                         _______ _______ _______ _____ _____    ______ ____
ROOT
ATOM      1  N   UNL     1      34.218 -22.688 -16.531  0.00  0.00    -0.336 NA
ATOM      2  N   UNL     1      32.394 -21.996 -17.829  0.00  0.00    -0.247 N 
ATOM      3  N   UNL     1      31.976 -23.394 -15.996  0.00  0.00    -0.170 NA
ATOM      4  C   UNL     1      34.654 -23.400 -15.471  0.00  0.00    +0.161 C 
ATOM      5  C   UNL     1      33.825 -24.124 -14.640  0.00  0.00    +0.056 C 
ATOM      6  C   UNL     1      32.886 -22.728 -16.732  0.00  0.00    +0.149 C 
ATOM      7  C   UNL     1      32.482 -24.084 -14.953  0.00  0.00    +0.114 C 
ATOM      8  H   UNL     1      31.416 -22.054 -17.937  0.00  0.00    +0.165 HD
ENDROOT
BRANCH   4  11
ATOM      9  N   UNL     1      36.783 -24.279 -14.543  0.00  0.00    -0.274 N 
ATOM     10  N   UNL     1      38.273 -22.795 -15.257  0.00  0.00    -0.232 NA
ATOM     11  C   UNL     1      36.077 -23.355 -15.261  0.00  0.00    +0.103 C 
ATOM     12  C   UNL     1      38.096 -23.901 -14.568  0.00  0.00    +0.113 C 
ATOM     13  C   UNL     1      37.019 -22.450 -15.691  0.00  0.00    +0.117 C 
ATOM     14  C   UNL     1      39.153 -24.678 -13.888  0.00  0.00    +0.069 C 
BRANCH   9  15
ATOM     15  C   UNL     1      36.245 -25.444 -13.878  0.00  0.00    +0.078 C 
ATOM     16  C   UNL     1      36.675 -25.503 -12.409  0.00  0.00    +0.022 C 
ATOM     17  C   UNL     1      36.624 -26.735 -14.608  0.00  0.00    +0.022 C 
ENDBRANCH   9  15
ENDBRANCH   4  11
BRANCH   2  19
ATOM     18  C   UNL     1      34.272 -19.611 -20.733  0.00  0.00    +0.122 C 
ATOM     19  C   UNL     1      33.025 -21.195 -18.804  0.00  0.00    +0.058 C 
ATOM     20  C   UNL     1      32.886 -19.571 -20.587  0.00  0.00    +0.021 C 
ATOM     21  C   UNL     1      35.035 -20.443 -19.914  0.00  0.00    +0.021 C 
ATOM     22  C   UNL     1      32.261 -20.362 -19.623  0.00  0.00    +0.017 C 
ATOM     23  C   UNL     1      34.411 -21.236 -18.949  0.00  0.00    +0.017 C 
BRANCH  18  24
ATOM     24  S   UNL     1      35.053 -18.622 -21.940  0.00  0.00    +0.060 S 
ATOM     25  O   UNL     1      34.709 -17.226 -21.698  0.00  0.00    -0.153 OA
ATOM     26  O   UNL     1      36.457 -19.010 -21.993  0.00  0.00    -0.153 OA
BRANCH  24  27
ATOM     27  N   UNL     1      34.291 -19.131 -23.383  0.00  0.00    -0.177 NA
ATOM     28  H   UNL     1      33.820 -20.010 -23.173  0.00  0.00    +0.149 HD
BRANCH  27  29
ATOM     29  C   UNL     1      33.301 -18.261 -24.033  0.00  0.00    +0.123 C 
BRANCH  29  30
ATOM     30  C   UNL     1      33.984 -17.007 -24.547  0.00  0.00    +0.161 C 
BRANCH  30  31
ATOM     31  O   UNL     1      33.015 -16.150 -25.138  0.00  0.00    -0.350 OA
ATOM     32  C   UNL     1      33.171 -14.807 -24.699  0.00  0.00    +0.174 C 
ENDBRANCH  30  31
ENDBRANCH  29  30
ENDBRANCH  27  29
ENDBRANCH  24  27
ENDBRANCH  18  24
ENDBRANCH   2  19
TORSDOF 8
ENDMDL
MODEL 3
REMARK VINA RESULT:     -10.3      4.348     11.620
REMARK  Name = 24963033
REMARK  8 active torsions:
REMARK  status: ('A' for Active; 'I' for Inactive)
REMARK    1  A    between atoms: N_2  and  C_19
REMARK    2  A    between atoms: C_4  and  C_11
REMARK    3  A    between atoms: N_9  and  C_15
REMARK    4  A    between atoms: C_18  and  S_24
REMARK    5  A    between atoms: S_24  and  N_27
REMARK    6  A    between atoms: N_27  and  C_29
REMARK    7  A    between atoms: C_29  and  C_30
REMARK    8  A    between atoms: C_30  and  O_31
REMARK                            x       y       z     vdW  Elec       q    Type
REMARK                         _______ _______ _______ _____ _____    ______ ____
ROOT
ATOM      1  N   UNL     1      33.096 -14.410 -23.419  0.00  0.00    -0.336 NA
ATOM      2  N   UNL     1      33.955 -16.237 -24.609  0.00  0.00    -0.247 N 
ATOM      3  N   UNL     1      33.273 -14.352 -25.822  0.00  0.00    -0.170 NA
ATOM      4  C   UNL     1      32.583 -13.163 -23.464  0.00  0.00    +0.161 C 
ATOM      5  C   UNL     1      32.387 -12.457 -24.632  0.00  0.00    +0.056 C 
ATOM      6  C   UNL     1      33.415 -14.936 -24.618  0.00  0.00    +0.149 C 
ATOM      7  C   UNL     1      32.753 -13.107 -25.792  0.00  0.00    +0.114 C 
ATOM      8  H   UNL     1      34.173 -16.581 -25.506  0.00  0.00    +0.165 HD
ENDROOT
BRANCH   4  11
ATOM      9  N   UNL     1      31.944 -11.291 -21.965  0.00  0.00    -0.274 N 
ATOM     10  N   UNL     1      31.785 -12.285 -19.985  0.00  0.00    -0.232 NA
ATOM     11  C   UNL     1      32.243 -12.606 -22.181  0.00  0.00    +0.103 C 
ATOM     12  C   UNL     1      31.676 -11.146 -20.632  0.00  0.00    +0.113 C 
ATOM     13  C   UNL     1      32.138 -13.199 -20.946  0.00  0.00    +0.117 C 
ATOM     14  C   UNL     1      31.311  -9.843 -20.038  0.00  0.00    +0.069 C 
BRANCH   9  15
ATOM     15  C   UNL     1      31.914 -10.240 -22.958  0.00  0.00    +0.078 C 
ATOM     16  C   UNL     1      33.254  -9.504 -23.041  0.00  0.00    +0.022 C 
ATOM     17  C   UNL     1      30.767  -9.258 -22.704  0.00  0.00    +0.022 C 
ENDBRANCH   9  15
ENDBRANCH   4  11
BRANCH   2  19
ATOM     18  C   UNL     1      34.823 -18.940 -21.513  0.00  0.00    +0.122 C 
ATOM     19  C   UNL     1      34.246 -17.144 -23.569  0.00  0.00    +0.058 C 
ATOM     20  C   UNL     1      35.254 -17.617 -21.425  0.00  0.00    +0.021 C 
ATOM     21  C   UNL     1      34.103 -19.366 -22.630  0.00  0.00    +0.021 C 
ATOM     22  C   UNL     1      34.965 -16.719 -22.453  0.00  0.00    +0.017 C 
ATOM     23  C   UNL     1      33.815 -18.468 -23.658  0.00  0.00    +0.017 C 
BRANCH  18  24
ATOM     24  S   UNL     1      35.184 -20.065 -20.228  0.00  0.00    +0.060 S 
ATOM     25  O   UNL     1      35.444 -21.375 -20.810  0.00  0.00    -0.153 OA
ATOM     26  O   UNL     1      36.193 -19.452 -19.373  0.00  0.00    -0.153 OA
BRANCH  24  27
ATOM     27  N   UNL     1      33.708 -20.131 -19.369  0.00  0.00    -0.177 NA
ATOM     28  H   UNL     1      33.147 -19.341 -19.688  0.00  0.00    +0.149 HD
BRANCH  27  29
ATOM     29  C   UNL     1      32.858 -21.325 -19.468  0.00  0.00    +0.123 C 
BRANCH  29  30
ATOM     30  C   UNL     1      32.777 -22.005 -18.112  0.00  0.00    +0.161 C 
BRANCH  30  31
ATOM     31  O   UNL     1      31.432 -21.977 -17.650  0.00  0.00    -0.350 OA
ATOM     32  C   UNL     1      31.297 -22.646 -16.403  0.00  0.00    +0.174 C 
ENDBRANCH  30  31
ENDBRANCH  29  30
ENDBRANCH  27  29
ENDBRANCH  24  27
ENDBRANCH  18  24
ENDBRANCH   2  19
TORSDOF 8
ENDMDL
MODEL 4
REMARK VINA RESULT:      -9.9      7.141     13.821
REMARK  Name = 24963033
REMARK  8 active torsions:
REMARK  status: ('A' for Active; 'I' for Inactive)
REMARK    1  A    between atoms: N_2  and  C_19
REMARK    2  A    between atoms: C_4  and  C_11
REMARK    3  A    between atoms: N_9  and  C_15
REMARK    4  A    between atoms: C_18  and  S_24
REMARK    5  A    between atoms: S_24  and  N_27
REMARK    6  A    between atoms: N_27  and  C_29
REMARK    7  A    between atoms: C_29  and  C_30
REMARK    8  A    between atoms: C_30  and  O_31
REMARK                            x       y       z     vdW  Elec       q    Type
REMARK                         _______ _______ _______ _____ _____    ______ ____
ROOT
ATOM      1  N   UNL     1      31.700  -9.848 -21.444  0.00  0.00    -0.336 NA
ATOM      2  N   UNL     1      32.176 -11.789 -20.221  0.00  0.00    -0.247 N 
ATOM      3  N   UNL     1      31.457  -9.893 -19.046  0.00  0.00    -0.170 NA
ATOM      4  C   UNL     1      31.295  -8.561 -21.423  0.00  0.00    +0.161 C 
ATOM      5  C   UNL     1      30.959  -7.882 -20.270  0.00  0.00    +0.056 C 
ATOM      6  C   UNL     1      31.757 -10.445 -20.237  0.00  0.00    +0.149 C 
ATOM      7  C   UNL     1      31.060  -8.605 -19.099  0.00  0.00    +0.114 C 
ATOM      8  H   UNL     1      32.203 -12.184 -19.319  0.00  0.00    +0.165 HD
ENDROOT
BRANCH   4  11
ATOM      9  N   UNL     1      32.315  -7.402 -23.367  0.00  0.00    -0.274 N 
ATOM     10  N   UNL     1      30.571  -7.060 -24.699  0.00  0.00    -0.232 NA
ATOM     11  C   UNL     1      31.236  -7.927 -22.713  0.00  0.00    +0.103 C 
ATOM     12  C   UNL     1      31.867  -6.893 -24.554  0.00  0.00    +0.113 C 
ATOM     13  C   UNL     1      30.172  -7.704 -23.555  0.00  0.00    +0.117 C 
ATOM     14  C   UNL     1      32.771  -6.243 -25.524  0.00  0.00    +0.069 C 
BRANCH   9  15
ATOM     15  C   UNL     1      33.682  -7.386 -22.896  0.00  0.00    +0.078 C 
ATOM     16  C   UNL     1      34.232  -5.960 -22.811  0.00  0.00    +0.022 C 
ATOM     17  C   UNL     1      34.586  -8.268 -23.761  0.00  0.00    +0.022 C 
ENDBRANCH   9  15
ENDBRANCH   4  11
BRANCH   2  19
ATOM     18  C   UNL     1      33.330 -14.449 -23.260  0.00  0.00    +0.122 C 
ATOM     19  C   UNL     1      32.564 -12.682 -21.241  0.00  0.00    +0.058 C 
ATOM     20  C   UNL     1      32.465 -13.394 -23.548  0.00  0.00    +0.021 C 
ATOM     21  C   UNL     1      33.813 -14.621 -21.962  0.00  0.00    +0.021 C 
ATOM     22  C   UNL     1      32.082 -12.510 -22.539  0.00  0.00    +0.017 C 
ATOM     23  C   UNL     1      33.429 -13.738 -20.953  0.00  0.00    +0.017 C 
BRANCH  18  24
ATOM     24  S   UNL     1      33.809 -15.556 -24.521  0.00  0.00    +0.060 S 
ATOM     25  O   UNL     1      32.611 -16.069 -25.176  0.00  0.00    -0.153 OA
ATOM     26  O   UNL     1      34.834 -14.900 -25.323  0.00  0.00    -0.153 OA
BRANCH  24  27
ATOM     27  N   UNL     1      34.537 -16.827 -23.641  0.00  0.00    -0.177 NA
ATOM     28  H   UNL     1      34.642 -16.498 -22.681  0.00  0.00    +0.149 HD
BRANCH  27  29
ATOM     29  C   UNL     1      33.879 -18.140 -23.571  0.00  0.00    +0.123 C 
BRANCH  29  30
ATOM     30  C   UNL     1      34.408 -18.911 -22.375  0.00  0.00    +0.161 C 
BRANCH  30  31
ATOM     31  O   UNL     1      35.021 -18.007 -21.465  0.00  0.00    -0.350 OA
ATOM     32  C   UNL     1      36.309 -18.461 -21.069  0.00  0.00    +0.174 C 
ENDBRANCH  30  31
ENDBRANCH  29  30
ENDBRANCH  27  29
ENDBRANCH  24  27
ENDBRANCH  18  24
ENDBRANCH   2  19
TORSDOF 8
ENDMDL
MODEL 5
REMARK VINA RESULT:      -9.9      2.057      4.747
REMARK  Name = 24963033
REMARK  8 active torsions:
REMARK  status: ('A' for Active; 'I' for Inactive)
REMARK    1  A    between atoms: N_2  and  C_19
REMARK    2  A    between atoms: C_4  and  C_11
REMARK    3  A    between atoms: N_9  and  C_15
REMARK    4  A    between atoms: C_18  and  S_24
REMARK    5  A    between atoms: S_24  and  N_27
REMARK    6  A    between atoms: N_27  and  C_29
REMARK    7  A    between atoms: C_29  and  C_30
REMARK    8  A    between atoms: C_30  and  O_31
REMARK                            x       y       z     vdW  Elec       q    Type
REMARK                         _______ _______ _______ _____ _____    ______ ____
ROOT
ATOM      1  N   UNL     1      33.422 -22.428 -16.664  0.00  0.00    -0.336 NA
ATOM      2  N   UNL     1      35.627 -22.032 -17.350  0.00  0.00    -0.247 N 
ATOM      3  N   UNL     1      35.282 -23.432 -15.503  0.00  0.00    -0.170 NA
ATOM      4  C   UNL     1      32.596 -23.047 -15.796  0.00  0.00    +0.161 C 
ATOM      5  C   UNL     1      33.030 -23.862 -14.771  0.00  0.00    +0.056 C 
ATOM      6  C   UNL     1      34.734 -22.661 -16.463  0.00  0.00    +0.149 C 
ATOM      7  C   UNL     1      34.397 -24.019 -14.671  0.00  0.00    +0.114 C 
ATOM      8  H   UNL     1      36.575 -22.230 -17.166  0.00  0.00    +0.165 HD
ENDROOT
BRANCH   4  11
ATOM      9  N   UNL     1      30.188 -23.323 -15.259  0.00  0.00    -0.274 N 
ATOM     10  N   UNL     1      29.199 -22.063 -16.798  0.00  0.00    -0.232 NA
ATOM     11  C   UNL     1      31.196 -22.794 -16.014  0.00  0.00    +0.103 C 
ATOM     12  C   UNL     1      29.007 -22.857 -15.766  0.00  0.00    +0.113 C 
ATOM     13  C   UNL     1      30.561 -22.021 -16.957  0.00  0.00    +0.117 C 
ATOM     14  C   UNL     1      27.699 -23.228 -15.189  0.00  0.00    +0.069 C 
BRANCH   9  15
ATOM     15  C   UNL     1      30.335 -24.212 -14.128  0.00  0.00    +0.078 C 
ATOM     16  C   UNL     1      29.358 -25.389 -14.206  0.00  0.00    +0.022 C 
ATOM     17  C   UNL     1      30.184 -23.466 -12.801  0.00  0.00    +0.022 C 
ENDBRANCH   9  15
ENDBRANCH   4  11
BRANCH   2  19
ATOM     18  C   UNL     1      35.051 -19.475 -20.634  0.00  0.00    +0.122 C 
ATOM     19  C   UNL     1      35.434 -21.173 -18.452  0.00  0.00    +0.058 C 
ATOM     20  C   UNL     1      34.045 -20.364 -20.256  0.00  0.00    +0.021 C 
ATOM     21  C   UNL     1      36.250 -19.435 -19.920  0.00  0.00    +0.021 C 
ATOM     22  C   UNL     1      34.236 -21.213 -19.166  0.00  0.00    +0.017 C 
ATOM     23  C   UNL     1      36.441 -20.285 -18.830  0.00  0.00    +0.017 C 
BRANCH  18  24
ATOM     24  S   UNL     1      34.813 -18.414 -21.999  0.00  0.00    +0.060 S 
ATOM     25  O   UNL     1      36.044 -18.368 -22.778  0.00  0.00    -0.153 OA
ATOM     26  O   UNL     1      33.570 -18.803 -22.652  0.00  0.00    -0.153 OA
BRANCH  24  27
ATOM     27  N   UNL     1      34.584 -16.895 -21.249  0.00  0.00    -0.177 NA
ATOM     28  H   UNL     1      35.393 -16.738 -20.649  0.00  0.00    +0.149 HD
BRANCH  27  29
ATOM     29  C   UNL     1      34.425 -15.689 -22.075  0.00  0.00    +0.123 C 
BRANCH  29  30
ATOM     30  C   UNL     1      33.895 -14.553 -21.218  0.00  0.00    +0.161 C 
BRANCH  30  31
ATOM     31  O   UNL     1      33.906 -13.348 -21.974  0.00  0.00    -0.350 OA
ATOM     32  C   UNL     1      33.480 -13.569 -23.312  0.00  0.00    +0.174 C 
ENDBRANCH  30  31
ENDBRANCH  29  30
ENDBRANCH  27  29
ENDBRANCH  24  27
ENDBRANCH  18  24
ENDBRANCH   2  19
TORSDOF 8
ENDMDL
MODEL 6
REMARK VINA RESULT:      -9.9      6.987     14.264
REMARK  Name = 24963033
REMARK  8 active torsions:
REMARK  status: ('A' for Active; 'I' for Inactive)
REMARK    1  A    between atoms: N_2  and  C_19
REMARK    2  A    between atoms: C_4  and  C_11
REMARK    3  A    between atoms: N_9  and  C_15
REMARK    4  A    between atoms: C_18  and  S_24
REMARK    5  A    between atoms: S_24  and  N_27
REMARK    6  A    between atoms: N_27  and  C_29
REMARK    7  A    between atoms: C_29  and  C_30
REMARK    8  A    between atoms: C_30  and  O_31
REMARK                            x       y       z     vdW  Elec       q    Type
REMARK                         _______ _______ _______ _____ _____    ______ ____
ROOT
ATOM      1  N   UNL     1      32.236  -9.494 -21.702  0.00  0.00    -0.336 NA
ATOM      2  N   UNL     1      31.677 -11.488 -20.605  0.00  0.00    -0.247 N 
ATOM      3  N   UNL     1      31.034  -9.464 -19.613  0.00  0.00    -0.170 NA
ATOM      4  C   UNL     1      32.189  -8.146 -21.705  0.00  0.00    +0.161 C 
ATOM      5  C   UNL     1      31.591  -7.397 -20.712  0.00  0.00    +0.056 C 
ATOM      6  C   UNL     1      31.647 -10.080 -20.641  0.00  0.00    +0.149 C 
ATOM      7  C   UNL     1      31.024  -8.117 -19.680  0.00  0.00    +0.114 C 
ATOM      8  H   UNL     1      31.235 -11.873 -19.813  0.00  0.00    +0.165 HD
ENDROOT
BRANCH   4  11
ATOM      9  N   UNL     1      32.169  -6.751 -23.758  0.00  0.00    -0.274 N 
ATOM     10  N   UNL     1      34.294  -6.805 -24.403  0.00  0.00    -0.232 NA
ATOM     11  C   UNL     1      32.820  -7.524 -22.839  0.00  0.00    +0.103 C 
ATOM     12  C   UNL     1      33.094  -6.341 -24.678  0.00  0.00    +0.113 C 
ATOM     13  C   UNL     1      34.129  -7.542 -23.258  0.00  0.00    +0.117 C 
ATOM     14  C   UNL     1      32.738  -5.481 -25.825  0.00  0.00    +0.069 C 
BRANCH   9  15
ATOM     15  C   UNL     1      30.761  -6.421 -23.763  0.00  0.00    +0.078 C 
ATOM     16  C   UNL     1      30.067  -6.930 -25.030  0.00  0.00    +0.022 C 
ATOM     17  C   UNL     1      30.534  -4.918 -23.584  0.00  0.00    +0.022 C 
ENDBRANCH   9  15
ENDBRANCH   4  11
BRANCH   2  19
ATOM     18  C   UNL     1      33.275 -14.369 -23.211  0.00  0.00    +0.122 C 
ATOM     19  C   UNL     1      32.213 -12.455 -21.480  0.00  0.00    +0.058 C 
ATOM     20  C   UNL     1      33.569 -14.421 -21.849  0.00  0.00    +0.021 C 
ATOM     21  C   UNL     1      32.451 -13.360 -23.708  0.00  0.00    +0.021 C 
ATOM     22  C   UNL     1      33.038 -13.465 -20.982  0.00  0.00    +0.017 C 
ATOM     23  C   UNL     1      31.920 -12.403 -22.843  0.00  0.00    +0.017 C 
BRANCH  18  24
ATOM     24  S   UNL     1      33.941 -15.565 -24.294  0.00  0.00    +0.060 S 
ATOM     25  O   UNL     1      32.859 -16.413 -24.779  0.00  0.00    -0.153 OA
ATOM     26  O   UNL     1      34.788 -14.871 -25.256  0.00  0.00    -0.153 OA
BRANCH  24  27
ATOM     27  N   UNL     1      34.937 -16.488 -23.257  0.00  0.00    -0.177 NA
ATOM     28  H   UNL     1      35.003 -15.975 -22.379  0.00  0.00    +0.149 HD
BRANCH  27  29
ATOM     29  C   UNL     1      34.559 -17.867 -22.917  0.00  0.00    +0.123 C 
BRANCH  29  30
ATOM     30  C   UNL     1      34.386 -17.991 -21.414  0.00  0.00    +0.161 C 
BRANCH  30  31
ATOM     31  O   UNL     1      35.595 -17.612 -20.767  0.00  0.00    -0.350 OA
ATOM     32  C   UNL     1      36.559 -18.655 -20.813  0.00  0.00    +0.174 C 
ENDBRANCH  30  31
ENDBRANCH  29  30
ENDBRANCH  27  29
ENDBRANCH  24  27
ENDBRANCH  18  24
ENDBRANCH   2  19
TORSDOF 8
ENDMDL
MODEL 7
REMARK VINA RESULT:      -9.4      2.480      4.110
REMARK  Name = 24963033
REMARK  8 active torsions:
REMARK  status: ('A' for Active; 'I' for Inactive)
REMARK    1  A    between atoms: N_2  and  C_19
REMARK    2  A    between atoms: C_4  and  C_11
REMARK    3  A    between atoms: N_9  and  C_15
REMARK    4  A    between atoms: C_18  and  S_24
REMARK    5  A    between atoms: S_24  and  N_27
REMARK    6  A    between atoms: N_27  and  C_29
REMARK    7  A    between atoms: C_29  and  C_30
REMARK    8  A    between atoms: C_30  and  O_31
REMARK                            x       y       z     vdW  Elec       q    Type
REMARK                         _______ _______ _______ _____ _____    ______ ____
ROOT
ATOM      1  N   UNL     1      35.800 -23.576 -13.005  0.00  0.00    -0.336 NA
ATOM      2  N   UNL     1      33.556 -22.974 -13.310  0.00  0.00    -0.247 N 
ATOM      3  N   UNL     1      34.285 -23.447 -11.134  0.00  0.00    -0.170 NA
ATOM      4  C   UNL     1      36.774 -23.934 -12.143  0.00  0.00    +0.161 C 
ATOM      5  C   UNL     1      36.584 -24.068 -10.784  0.00  0.00    +0.056 C 
ATOM      6  C   UNL     1      34.597 -23.350 -12.440  0.00  0.00    +0.149 C 
ATOM      7  C   UNL     1      35.307 -23.810 -10.330  0.00  0.00    +0.114 C 
ATOM      8  H   UNL     1      32.696 -22.820 -12.854  0.00  0.00    +0.165 HD
ENDROOT
BRANCH   4  11
ATOM      9  N   UNL     1      38.325 -25.205 -13.607  0.00  0.00    -0.274 N 
ATOM     10  N   UNL     1      40.225 -24.072 -13.401  0.00  0.00    -0.232 NA
ATOM     11  C   UNL     1      38.056 -24.174 -12.751  0.00  0.00    +0.103 C 
ATOM     12  C   UNL     1      39.639 -25.102 -13.971  0.00  0.00    +0.113 C 
ATOM     13  C   UNL     1      39.243 -23.490 -12.640  0.00  0.00    +0.117 C 
ATOM     14  C   UNL     1      40.277 -26.060 -14.897  0.00  0.00    +0.069 C 
BRANCH   9  15
ATOM     15  C   UNL     1      37.396 -26.219 -14.051  0.00  0.00    +0.078 C 
ATOM     16  C   UNL     1      36.418 -25.671 -15.094  0.00  0.00    +0.022 C 
ATOM     17  C   UNL     1      36.643 -26.847 -12.875  0.00  0.00    +0.022 C 
ENDBRANCH   9  15
ENDBRANCH   4  11
BRANCH   2  19
ATOM     18  C   UNL     1      33.393 -22.376 -17.465  0.00  0.00    +0.122 C 
ATOM     19  C   UNL     1      33.501 -22.773 -14.705  0.00  0.00    +0.058 C 
ATOM     20  C   UNL     1      32.246 -22.758 -16.769  0.00  0.00    +0.021 C 
ATOM     21  C   UNL     1      34.594 -22.193 -16.780  0.00  0.00    +0.021 C 
ATOM     22  C   UNL     1      32.299 -22.956 -15.389  0.00  0.00    +0.017 C 
ATOM     23  C   UNL     1      34.648 -22.391 -15.400  0.00  0.00    +0.017 C 
BRANCH  18  24
ATOM     24  S   UNL     1      33.326 -22.129 -19.191  0.00  0.00    +0.060 S 
ATOM     25  O   UNL     1      33.527 -23.410 -19.857  0.00  0.00    -0.153 OA
ATOM     26  O   UNL     1      32.127 -21.355 -19.483  0.00  0.00    -0.153 OA
BRANCH  24  27
ATOM     27  N   UNL     1      34.694 -21.145 -19.476  0.00  0.00    -0.177 NA
ATOM     28  H   UNL     1      35.415 -21.750 -19.869  0.00  0.00    +0.149 HD
BRANCH  27  29
ATOM     29  C   UNL     1      34.584 -19.980 -20.366  0.00  0.00    +0.123 C 
BRANCH  29  30
ATOM     30  C   UNL     1      35.963 -19.394 -20.610  0.00  0.00    +0.161 C 
BRANCH  30  31
ATOM     31  O   UNL     1      35.918 -17.986 -20.418  0.00  0.00    -0.350 OA
ATOM     32  C   UNL     1      34.930 -17.380 -21.241  0.00  0.00    +0.174 C 
ENDBRANCH  30  31
ENDBRANCH  29  30
ENDBRANCH  27  29
ENDBRANCH  24  27
ENDBRANCH  18  24
ENDBRANCH   2  19
TORSDOF 8
ENDMDL
MODEL 8
REMARK VINA RESULT:      -9.1      1.235      2.011
REMARK  Name = 24963033
REMARK  8 active torsions:
REMARK  status: ('A' for Active; 'I' for Inactive)
REMARK    1  A    between atoms: N_2  and  C_19
REMARK    2  A    between atoms: C_4  and  C_11
REMARK    3  A    between atoms: N_9  and  C_15
REMARK    4  A    between atoms: C_18  and  S_24
REMARK    5  A    between atoms: S_24  and  N_27
REMARK    6  A    between atoms: N_27  and  C_29
REMARK    7  A    between atoms: C_29  and  C_30
REMARK    8  A    between atoms: C_30  and  O_31
REMARK                            x       y       z     vdW  Elec       q    Type
REMARK                         _______ _______ _______ _____ _____    ______ ____
ROOT
ATOM      1  N   UNL     1      33.492 -23.418 -16.160  0.00  0.00    -0.336 NA
ATOM      2  N   UNL     1      31.863 -22.144 -17.261  0.00  0.00    -0.247 N 
ATOM      3  N   UNL     1      31.178 -23.521 -15.492  0.00  0.00    -0.170 NA
ATOM      4  C   UNL     1      33.773 -24.309 -15.186  0.00  0.00    +0.161 C 
ATOM      5  C   UNL     1      32.825 -24.843 -14.338  0.00  0.00    +0.056 C 
ATOM      6  C   UNL     1      32.193 -23.073 -16.255  0.00  0.00    +0.149 C 
ATOM      7  C   UNL     1      31.531 -24.409 -14.539  0.00  0.00    +0.114 C 
ATOM      8  H   UNL     1      30.904 -21.922 -17.294  0.00  0.00    +0.165 HD
ENDROOT
BRANCH   4  11
ATOM      9  N   UNL     1      36.190 -23.784 -14.963  0.00  0.00    -0.274 N 
ATOM     10  N   UNL     1      37.127 -25.798 -14.975  0.00  0.00    -0.232 NA
ATOM     11  C   UNL     1      35.162 -24.675 -15.088  0.00  0.00    +0.103 C 
ATOM     12  C   UNL     1      37.350 -24.504 -14.899  0.00  0.00    +0.113 C 
ATOM     13  C   UNL     1      35.765 -25.911 -15.093  0.00  0.00    +0.117 C 
ATOM     14  C   UNL     1      38.672 -23.858 -14.761  0.00  0.00    +0.069 C 
BRANCH   9  15
ATOM     15  C   UNL     1      36.078 -22.344 -14.907  0.00  0.00    +0.078 C 
ATOM     16  C   UNL     1      36.838 -21.674 -16.056  0.00  0.00    +0.022 C 
ATOM     17  C   UNL     1      36.540 -21.795 -13.555  0.00  0.00    +0.022 C 
ENDBRANCH   9  15
ENDBRANCH   4  11
BRANCH   2  19
ATOM     18  C   UNL     1      34.160 -20.133 -20.146  0.00  0.00    +0.122 C 
ATOM     19  C   UNL     1      32.634 -21.469 -18.229  0.00  0.00    +0.058 C 
ATOM     20  C   UNL     1      34.782 -20.962 -19.213  0.00  0.00    +0.021 C 
ATOM     21  C   UNL     1      32.775 -19.971 -20.120  0.00  0.00    +0.021 C 
ATOM     22  C   UNL     1      34.019 -21.631 -18.255  0.00  0.00    +0.017 C 
ATOM     23  C   UNL     1      32.012 -20.639 -19.162  0.00  0.00    +0.017 C 
BRANCH  18  24
ATOM     24  S   UNL     1      35.114 -19.295 -21.343  0.00  0.00    +0.060 S 
ATOM     25  O   UNL     1      36.526 -19.520 -21.060  0.00  0.00    -0.153 OA
ATOM     26  O   UNL     1      34.586 -19.646 -22.656  0.00  0.00    -0.153 OA
BRANCH  24  27
ATOM     27  N   UNL     1      34.746 -17.656 -21.028  0.00  0.00    -0.177 NA
ATOM     28  H   UNL     1      35.303 -17.380 -20.219  0.00  0.00    +0.149 HD
BRANCH  27  29
ATOM     29  C   UNL     1      34.974 -16.642 -22.067  0.00  0.00    +0.123 C 
BRANCH  29  30
ATOM     30  C   UNL     1      34.267 -15.354 -21.685  0.00  0.00    +0.161 C 
BRANCH  30  31
ATOM     31  O   UNL     1      34.032 -14.580 -22.854  0.00  0.00    -0.350 OA
ATOM     32  C   UNL     1      33.736 -13.228 -22.532  0.00  0.00    +0.174 C 
ENDBRANCH  30  31
ENDBRANCH  29  30
ENDBRANCH  27  29
ENDBRANCH  24  27
ENDBRANCH  18  24
ENDBRANCH   2  19
TORSDOF 8
ENDMDL
MODEL 9
REMARK VINA RESULT:      -8.8      1.813      2.698
REMARK  Name = 24963033
REMARK  8 active torsions:
REMARK  status: ('A' for Active; 'I' for Inactive)
REMARK    1  A    between atoms: N_2  and  C_19
REMARK    2  A    between atoms: C_4  and  C_11
REMARK    3  A    between atoms: N_9  and  C_15
REMARK    4  A    between atoms: C_18  and  S_24
REMARK    5  A    between atoms: S_24  and  N_27
REMARK    6  A    between atoms: N_27  and  C_29
REMARK    7  A    between atoms: C_29  and  C_30
REMARK    8  A    between atoms: C_30  and  O_31
REMARK                            x       y       z     vdW  Elec       q    Type
REMARK                         _______ _______ _______ _____ _____    ______ ____
ROOT
ATOM      1  N   UNL     1      33.016 -23.350 -14.656  0.00  0.00    -0.336 NA
ATOM      2  N   UNL     1      31.750 -22.945 -16.585  0.00  0.00    -0.247 N 
ATOM      3  N   UNL     1      30.727 -24.091 -14.815  0.00  0.00    -0.170 NA
ATOM      4  C   UNL     1      33.061 -23.881 -13.416  0.00  0.00    +0.161 C 
ATOM      5  C   UNL     1      31.997 -24.523 -12.817  0.00  0.00    +0.056 C 
ATOM      6  C   UNL     1      31.834 -23.488 -15.289  0.00  0.00    +0.149 C 
ATOM      7  C   UNL     1      30.844 -24.599 -13.571  0.00  0.00    +0.114 C 
ATOM      8  H   UNL     1      30.869 -23.069 -17.010  0.00  0.00    +0.165 HD
ENDROOT
BRANCH   4  11
ATOM      9  N   UNL     1      35.541 -23.961 -13.323  0.00  0.00    -0.274 N 
ATOM     10  N   UNL     1      35.968 -23.343 -11.232  0.00  0.00    -0.232 NA
ATOM     11  C   UNL     1      34.325 -23.732 -12.743  0.00  0.00    +0.103 C 
ATOM     12  C   UNL     1      36.497 -23.715 -12.378  0.00  0.00    +0.113 C 
ATOM     13  C   UNL     1      34.614 -23.352 -11.454  0.00  0.00    +0.117 C 
ATOM     14  C   UNL     1      37.940 -23.862 -12.659  0.00  0.00    +0.069 C 
BRANCH   9  15
ATOM     15  C   UNL     1      35.779 -24.385 -14.684  0.00  0.00    +0.078 C 
ATOM     16  C   UNL     1      36.152 -25.868 -14.756  0.00  0.00    +0.022 C 
ATOM     17  C   UNL     1      36.845 -23.522 -15.364  0.00  0.00    +0.022 C 
ENDBRANCH   9  15
ENDBRANCH   4  11
BRANCH   2  19
ATOM     18  C   UNL     1      34.511 -20.898 -19.000  0.00  0.00    +0.122 C 
ATOM     19  C   UNL     1      32.677 -22.257 -17.396  0.00  0.00    +0.058 C 
ATOM     20  C   UNL     1      33.147 -20.816 -19.278  0.00  0.00    +0.021 C 
ATOM     21  C   UNL     1      34.958 -21.659 -17.920  0.00  0.00    +0.021 C 
ATOM     22  C   UNL     1      32.229 -21.496 -18.476  0.00  0.00    +0.017 C 
ATOM     23  C   UNL     1      34.041 -22.339 -17.118  0.00  0.00    +0.017 C 
BRANCH  18  24
ATOM     24  S   UNL     1      35.658 -20.048 -20.004  0.00  0.00    +0.060 S 
ATOM     25  O   UNL     1      36.544 -19.269 -19.148  0.00  0.00    -0.153 OA
ATOM     26  O   UNL     1      36.233 -21.012 -20.935  0.00  0.00    -0.153 OA
BRANCH  24  27
ATOM     27  N   UNL     1      34.659 -18.974 -20.880  0.00  0.00    -0.177 NA
ATOM     28  H   UNL     1      33.812 -18.844 -20.327  0.00  0.00    +0.149 HD
BRANCH  27  29
ATOM     29  C   UNL     1      35.152 -17.633 -21.226  0.00  0.00    +0.123 C 
BRANCH  29  30
ATOM     30  C   UNL     1      34.805 -17.321 -22.670  0.00  0.00    +0.161 C 
BRANCH  30  31
ATOM     31  O   UNL     1      34.379 -15.967 -22.771  0.00  0.00    -0.350 OA
ATOM     32  C   UNL     1      34.243 -15.368 -21.489  0.00  0.00    +0.174 C 
ENDBRANCH  30  31
ENDBRANCH  29  30
ENDBRANCH  27  29
ENDBRANCH  24  27
ENDBRANCH  18  24
ENDBRANCH   2  19
TORSDOF 8
ENDMDL
