MODEL 1
REMARK VINA RESULT:      -8.5      0.000      0.000
REMARK  Name = 11567064
REMARK  4 active torsions:
REMARK  status: ('A' for Active; 'I' for Inactive)
REMARK    1  A    between atoms: N_2  and  C_23
REMARK    2  A    between atoms: C_23  and  C_24
REMARK    3  A    between atoms: C_24  and  C_28
REMARK    4  A    between atoms: C_28  and  O_29
REMARK                            x       y       z     vdW  Elec       q    Type
REMARK                         _______ _______ _______ _____ _____    ______ ____
ROOT
ATOM      1  O   UNL     1      34.173 -21.834 -14.301  0.00  0.00    -0.451 OA
ATOM      2  N   UNL     1      34.346 -19.855 -20.479  0.00  0.00    +0.390 N 
ATOM      3  N   UNL     1      34.253 -21.728 -18.401  0.00  0.00    -0.288 N 
ATOM      4  N   UNL     1      35.725 -22.226 -16.717  0.00  0.00    -0.388 NA
ATOM      5  C   UNL     1      33.224 -19.796 -19.532  0.00  0.00    -0.055 C 
ATOM      6  C   UNL     1      34.755 -21.226 -20.777  0.00  0.00    -0.055 C 
ATOM      7  C   UNL     1      32.988 -21.087 -18.739  0.00  0.00    +0.070 C 
ATOM      8  C   UNL     1      35.214 -21.912 -19.488  0.00  0.00    +0.070 C 
ATOM      9  C   UNL     1      34.497 -22.220 -17.164  0.00  0.00    +0.186 C 
ATOM     10  C   UNL     1      33.320 -22.719 -16.394  0.00  0.00    +0.078 C 
ATOM     11  C   UNL     1      33.204 -22.487 -15.021  0.00  0.00    +0.149 C 
ATOM     12  C   UNL     1      32.288 -23.390 -17.063  0.00  0.00    +0.007 C 
ATOM     13  C   UNL     1      36.102 -22.721 -15.460  0.00  0.00    +0.149 C 
ATOM     14  C   UNL     1      35.373 -22.501 -14.286  0.00  0.00    +0.171 C 
ATOM     15  C   UNL     1      32.056 -22.883 -14.328  0.00  0.00    +0.038 C 
ATOM     16  C   UNL     1      31.151 -23.806 -16.366  0.00  0.00    +0.000 C 
ATOM     17  C   UNL     1      31.033 -23.547 -15.001  0.00  0.00    +0.003 C 
ATOM     18  C   UNL     1      37.323 -23.399 -15.360  0.00  0.00    +0.088 C 
ATOM     19  C   UNL     1      35.853 -22.928 -13.043  0.00  0.00    +0.039 C 
ATOM     20  C   UNL     1      37.799 -23.847 -14.124  0.00  0.00    -0.018 C 
ATOM     21  C   UNL     1      37.064 -23.608 -12.966  0.00  0.00    -0.001 C 
ATOM     22  H   UNL     1      35.141 -19.412 -20.017  0.00  0.00    -0.080 HD
ENDROOT
BRANCH   2  23
ATOM     23  C   UNL     1      34.069 -19.092 -21.691  0.00  0.00    -0.066 C 
BRANCH  23  24
ATOM     24  C   UNL     1      34.903 -17.794 -21.818  0.00  0.00    +0.071 C 
ATOM     25  C   UNL     1      34.320 -16.681 -20.926  0.00  0.00    +0.009 C 
ATOM     26  C   UNL     1      34.954 -17.281 -23.267  0.00  0.00    +0.009 C 
BRANCH  24  28
ATOM     27  O   UNL     1      36.652 -18.335 -20.185  0.00  0.00    -0.250 OA
ATOM     28  C   UNL     1      36.325 -18.105 -21.341  0.00  0.00    +0.311 C 
BRANCH  28  29
ATOM     29  O   UNL     1      37.208 -18.130 -22.374  0.00  0.00    -0.480 OA
ATOM     30  H   UNL     1      37.326 -18.916 -22.870  0.00  0.00    +0.295 HD
ENDBRANCH  28  29
ENDBRANCH  24  28
ENDBRANCH  23  24
ENDBRANCH   2  23
TORSDOF 4
ENDMDL
MODEL 2
REMARK VINA RESULT:      -8.3      2.762      7.380
REMARK  Name = 11567064
REMARK  4 active torsions:
REMARK  status: ('A' for Active; 'I' for Inactive)
REMARK    1  A    between atoms: N_2  and  C_23
REMARK    2  A    between atoms: C_23  and  C_24
REMARK    3  A    between atoms: C_24  and  C_28
REMARK    4  A    between atoms: C_28  and  O_29
REMARK                            x       y       z     vdW  Elec       q    Type
REMARK                         _______ _______ _______ _____ _____    ______ ____
ROOT
ATOM      1  O   UNL     1      32.317 -22.871 -18.245  0.00  0.00    -0.451 OA
ATOM      2  N   UNL     1      37.290 -25.239 -14.815  0.00  0.00    +0.390 N 
ATOM      3  N   UNL     1      35.388 -23.328 -15.563  0.00  0.00    -0.288 N 
ATOM      4  N   UNL     1      35.042 -22.193 -17.524  0.00  0.00    -0.388 NA
ATOM      5  C   UNL     1      35.867 -25.595 -14.725  0.00  0.00    -0.055 C 
ATOM      6  C   UNL     1      37.543 -23.846 -14.453  0.00  0.00    -0.055 C 
ATOM      7  C   UNL     1      34.911 -24.397 -14.695  0.00  0.00    +0.070 C 
ATOM      8  C   UNL     1      36.785 -22.925 -15.411  0.00  0.00    +0.070 C 
ATOM      9  C   UNL     1      34.559 -22.667 -16.406  0.00  0.00    +0.186 C 
ATOM     10  C   UNL     1      33.134 -22.538 -15.983  0.00  0.00    +0.078 C 
ATOM     11  C   UNL     1      32.092 -22.665 -16.906  0.00  0.00    +0.149 C 
ATOM     12  C   UNL     1      32.828 -22.333 -14.631  0.00  0.00    +0.007 C 
ATOM     13  C   UNL     1      34.286 -21.482 -18.468  0.00  0.00    +0.149 C 
ATOM     14  C   UNL     1      32.984 -21.830 -18.844  0.00  0.00    +0.171 C 
ATOM     15  C   UNL     1      30.761 -22.629 -16.484  0.00  0.00    +0.038 C 
ATOM     16  C   UNL     1      31.496 -22.274 -14.213  0.00  0.00    +0.000 C 
ATOM     17  C   UNL     1      30.464 -22.428 -15.138  0.00  0.00    +0.003 C 
ATOM     18  C   UNL     1      34.902 -20.416 -19.135  0.00  0.00    +0.088 C 
ATOM     19  C   UNL     1      32.318 -21.148 -19.867  0.00  0.00    +0.039 C 
ATOM     20  C   UNL     1      34.235 -19.716 -20.144  0.00  0.00    -0.018 C 
ATOM     21  C   UNL     1      32.944 -20.085 -20.512  0.00  0.00    -0.001 C 
ATOM     22  H   UNL     1      37.553 -25.333 -15.796  0.00  0.00    -0.080 HD
ENDROOT
BRANCH   2  23
ATOM     23  C   UNL     1      38.125 -26.162 -14.053  0.00  0.00    -0.066 C 
BRANCH  23  24
ATOM     24  C   UNL     1      39.477 -25.558 -13.604  0.00  0.00    +0.071 C 
ATOM     25  C   UNL     1      40.455 -26.667 -13.171  0.00  0.00    +0.009 C 
ATOM     26  C   UNL     1      39.309 -24.572 -12.434  0.00  0.00    +0.009 C 
BRANCH  24  28
ATOM     27  O   UNL     1      40.677 -23.752 -14.753  0.00  0.00    -0.250 OA
ATOM     28  C   UNL     1      40.080 -24.820 -14.803  0.00  0.00    +0.311 C 
BRANCH  28  29
ATOM     29  O   UNL     1      39.906 -25.511 -15.960  0.00  0.00    -0.480 OA
ATOM     30  H   UNL     1      39.295 -26.219 -15.995  0.00  0.00    +0.295 HD
ENDBRANCH  28  29
ENDBRANCH  24  28
ENDBRANCH  23  24
ENDBRANCH   2  23
TORSDOF 4
ENDMDL
MODEL 3
REMARK VINA RESULT:      -7.1     10.009     15.639
REMARK  Name = 11567064
REMARK  4 active torsions:
REMARK  status: ('A' for Active; 'I' for Inactive)
REMARK    1  A    between atoms: N_2  and  C_23
REMARK    2  A    between atoms: C_23  and  C_24
REMARK    3  A    between atoms: C_24  and  C_28
REMARK    4  A    between atoms: C_28  and  O_29
REMARK                            x       y       z     vdW  Elec       q    Type
REMARK                         _______ _______ _______ _____ _____    ______ ____
ROOT
ATOM      1  O   UNL     1      30.251  -5.423 -23.314  0.00  0.00    -0.451 OA
ATOM      2  N   UNL     1      32.150 -11.621 -23.010  0.00  0.00    +0.390 N 
ATOM      3  N   UNL     1      32.465  -8.845 -22.848  0.00  0.00    -0.288 N 
ATOM      4  N   UNL     1      32.273  -7.184 -24.416  0.00  0.00    -0.388 NA
ATOM      5  C   UNL     1      31.313 -10.875 -22.061  0.00  0.00    -0.055 C 
ATOM      6  C   UNL     1      33.504 -11.081 -23.105  0.00  0.00    -0.055 C 
ATOM      7  C   UNL     1      31.846  -9.484 -21.695  0.00  0.00    +0.070 C 
ATOM      8  C   UNL     1      33.443  -9.634 -23.597  0.00  0.00    +0.070 C 
ATOM      9  C   UNL     1      32.227  -7.549 -23.161  0.00  0.00    +0.186 C 
ATOM     10  C   UNL     1      31.920  -6.629 -22.029  0.00  0.00    +0.078 C 
ATOM     11  C   UNL     1      30.944  -5.635 -22.149  0.00  0.00    +0.149 C 
ATOM     12  C   UNL     1      32.585  -6.789 -20.806  0.00  0.00    +0.007 C 
ATOM     13  C   UNL     1      32.056  -5.871 -24.861  0.00  0.00    +0.149 C 
ATOM     14  C   UNL     1      31.057  -5.033 -24.356  0.00  0.00    +0.171 C 
ATOM     15  C   UNL     1      30.605  -4.837 -21.053  0.00  0.00    +0.038 C 
ATOM     16  C   UNL     1      32.261  -5.975 -19.717  0.00  0.00    +0.000 C 
ATOM     17  C   UNL     1      31.268  -5.004 -19.839  0.00  0.00    +0.003 C 
ATOM     18  C   UNL     1      32.828  -5.405 -25.932  0.00  0.00    +0.088 C 
ATOM     19  C   UNL     1      30.818  -3.772 -24.911  0.00  0.00    +0.039 C 
ATOM     20  C   UNL     1      32.610  -4.138 -26.479  0.00  0.00    -0.018 C 
ATOM     21  C   UNL     1      31.602  -3.323 -25.969  0.00  0.00    -0.001 C 
ATOM     22  H   UNL     1      31.727 -11.499 -23.930  0.00  0.00    -0.080 HD
ENDROOT
BRANCH   2  23
ATOM     23  C   UNL     1      32.151 -13.050 -22.720  0.00  0.00    -0.066 C 
BRANCH  23  24
ATOM     24  C   UNL     1      32.983 -13.436 -21.473  0.00  0.00    +0.071 C 
ATOM     25  C   UNL     1      32.063 -13.788 -20.289  0.00  0.00    +0.009 C 
ATOM     26  C   UNL     1      33.928 -12.303 -21.037  0.00  0.00    +0.009 C 
BRANCH  24  28
ATOM     27  O   UNL     1      34.078 -15.046 -22.966  0.00  0.00    -0.250 OA
ATOM     28  C   UNL     1      33.811 -14.674 -21.831  0.00  0.00    +0.311 C 
BRANCH  28  29
ATOM     29  O   UNL     1      34.259 -15.318 -20.722  0.00  0.00    -0.480 OA
ATOM     30  H   UNL     1      34.352 -14.852 -19.915  0.00  0.00    +0.295 HD
ENDBRANCH  28  29
ENDBRANCH  24  28
ENDBRANCH  23  24
ENDBRANCH   2  23
TORSDOF 4
ENDMDL
MODEL 4
REMARK VINA RESULT:      -6.9      4.525      6.894
REMARK  Name = 11567064
REMARK  4 active torsions:
REMARK  status: ('A' for Active; 'I' for Inactive)
REMARK    1  A    between atoms: N_2  and  C_23
REMARK    2  A    between atoms: C_23  and  C_24
REMARK    3  A    between atoms: C_24  and  C_28
REMARK    4  A    between atoms: C_28  and  O_29
REMARK                            x       y       z     vdW  Elec       q    Type
REMARK                         _______ _______ _______ _____ _____    ______ ____
ROOT
ATOM      1  O   UNL     1      36.542 -24.732 -14.521  0.00  0.00    -0.451 OA
ATOM      2  N   UNL     1      30.490 -22.884 -15.959  0.00  0.00    +0.390 N 
ATOM      3  N   UNL     1      33.050 -22.606 -14.864  0.00  0.00    -0.288 N 
ATOM      4  N   UNL     1      34.146 -23.756 -13.212  0.00  0.00    -0.388 NA
ATOM      5  C   UNL     1      31.650 -22.989 -16.855  0.00  0.00    -0.055 C 
ATOM      6  C   UNL     1      30.680 -21.882 -14.913  0.00  0.00    -0.055 C 
ATOM      7  C   UNL     1      32.943 -22.378 -16.300  0.00  0.00    +0.070 C 
ATOM      8  C   UNL     1      31.884 -22.267 -14.051  0.00  0.00    +0.070 C 
ATOM      9  C   UNL     1      34.205 -23.018 -14.290  0.00  0.00    +0.186 C 
ATOM     10  C   UNL     1      35.474 -22.596 -14.952  0.00  0.00    +0.078 C 
ATOM     11  C   UNL     1      36.561 -23.467 -15.054  0.00  0.00    +0.149 C 
ATOM     12  C   UNL     1      35.565 -21.319 -15.523  0.00  0.00    +0.007 C 
ATOM     13  C   UNL     1      35.272 -24.231 -12.523  0.00  0.00    +0.149 C 
ATOM     14  C   UNL     1      36.414 -24.737 -13.153  0.00  0.00    +0.171 C 
ATOM     15  C   UNL     1      37.712 -23.089 -15.751  0.00  0.00    +0.038 C 
ATOM     16  C   UNL     1      36.724 -20.934 -16.201  0.00  0.00    +0.000 C 
ATOM     17  C   UNL     1      37.794 -21.820 -16.320  0.00  0.00    +0.003 C 
ATOM     18  C   UNL     1      35.213 -24.284 -11.125  0.00  0.00    +0.088 C 
ATOM     19  C   UNL     1      37.462 -25.297 -12.415  0.00  0.00    +0.039 C 
ATOM     20  C   UNL     1      36.265 -24.822 -10.380  0.00  0.00    -0.018 C 
ATOM     21  C   UNL     1      37.388 -25.331 -11.026  0.00  0.00    -0.001 C 
ATOM     22  H   UNL     1      30.406 -23.783 -15.484  0.00  0.00    -0.080 HD
ENDROOT
BRANCH   2  23
ATOM     23  C   UNL     1      29.253 -22.670 -16.702  0.00  0.00    -0.066 C 
BRANCH  23  24
ATOM     24  C   UNL     1      28.003 -23.285 -16.028  0.00  0.00    +0.071 C 
ATOM     25  C   UNL     1      28.369 -23.919 -14.673  0.00  0.00    +0.009 C 
ATOM     26  C   UNL     1      27.343 -24.362 -16.908  0.00  0.00    +0.009 C 
BRANCH  24  28
ATOM     27  O   UNL     1      26.274 -22.050 -14.802  0.00  0.00    -0.250 OA
ATOM     28  C   UNL     1      27.002 -22.153 -15.781  0.00  0.00    +0.311 C 
BRANCH  28  29
ATOM     29  O   UNL     1      27.030 -21.229 -16.776  0.00  0.00    -0.480 OA
ATOM     30  H   UNL     1      26.319 -21.173 -17.384  0.00  0.00    +0.295 HD
ENDBRANCH  28  29
ENDBRANCH  24  28
ENDBRANCH  23  24
ENDBRANCH   2  23
TORSDOF 4
ENDMDL
MODEL 5
REMARK VINA RESULT:      -6.5     13.382     17.483
REMARK  Name = 11567064
REMARK  4 active torsions:
REMARK  status: ('A' for Active; 'I' for Inactive)
REMARK    1  A    between atoms: N_2  and  C_23
REMARK    2  A    between atoms: C_23  and  C_24
REMARK    3  A    between atoms: C_24  and  C_28
REMARK    4  A    between atoms: C_28  and  O_29
REMARK                            x       y       z     vdW  Elec       q    Type
REMARK                         _______ _______ _______ _____ _____    ______ ____
ROOT
ATOM      1  O   UNL     1      32.406  -6.531 -21.129  0.00  0.00    -0.451 OA
ATOM      2  N   UNL     1      34.393  -4.434 -26.939  0.00  0.00    +0.390 N 
ATOM      3  N   UNL     1      32.544  -5.377 -25.063  0.00  0.00    -0.288 N 
ATOM      4  N   UNL     1      32.400  -7.352 -23.909  0.00  0.00    -0.388 NA
ATOM      5  C   UNL     1      34.183  -3.656 -25.711  0.00  0.00    -0.055 C 
ATOM      6  C   UNL     1      33.159  -5.033 -27.440  0.00  0.00    -0.055 C 
ATOM      7  C   UNL     1      32.869  -3.959 -24.980  0.00  0.00    +0.070 C 
ATOM      8  C   UNL     1      32.595  -5.992 -26.389  0.00  0.00    +0.070 C 
ATOM      9  C   UNL     1      32.117  -6.078 -23.986  0.00  0.00    +0.186 C 
ATOM     10  C   UNL     1      31.353  -5.322 -22.952  0.00  0.00    +0.078 C 
ATOM     11  C   UNL     1      31.545  -5.565 -21.589  0.00  0.00    +0.149 C 
ATOM     12  C   UNL     1      30.459  -4.317 -23.347  0.00  0.00    +0.007 C 
ATOM     13  C   UNL     1      32.002  -8.182 -22.850  0.00  0.00    +0.149 C 
ATOM     14  C   UNL     1      32.040  -7.800 -21.505  0.00  0.00    +0.171 C 
ATOM     15  C   UNL     1      30.887  -4.791 -20.629  0.00  0.00    +0.038 C 
ATOM     16  C   UNL     1      29.785  -3.559 -22.387  0.00  0.00    +0.000 C 
ATOM     17  C   UNL     1      30.003  -3.792 -21.030  0.00  0.00    +0.003 C 
ATOM     18  C   UNL     1      31.631  -9.498 -23.152  0.00  0.00    +0.088 C 
ATOM     19  C   UNL     1      31.734  -8.707 -20.485  0.00  0.00    +0.039 C 
ATOM     20  C   UNL     1      31.303 -10.404 -22.139  0.00  0.00    -0.018 C 
ATOM     21  C   UNL     1      31.358 -10.007 -20.805  0.00  0.00    -0.001 C 
ATOM     22  H   UNL     1      35.009  -5.208 -26.692  0.00  0.00    -0.080 HD
ENDROOT
BRANCH   2  23
ATOM     23  C   UNL     1      35.075  -3.649 -27.963  0.00  0.00    -0.066 C 
BRANCH  23  24
ATOM     24  C   UNL     1      36.561  -4.032 -28.160  0.00  0.00    +0.071 C 
ATOM     25  C   UNL     1      36.701  -5.533 -28.481  0.00  0.00    +0.009 C 
ATOM     26  C   UNL     1      37.408  -3.719 -26.914  0.00  0.00    +0.009 C 
BRANCH  24  28
ATOM     27  O   UNL     1      38.223  -3.319 -29.817  0.00  0.00    -0.250 OA
ATOM     28  C   UNL     1      37.096  -3.228 -29.349  0.00  0.00    +0.311 C 
BRANCH  28  29
ATOM     29  O   UNL     1      36.150  -2.402 -29.866  0.00  0.00    -0.480 OA
ATOM     30  H   UNL     1      36.402  -1.683 -30.410  0.00  0.00    +0.295 HD
ENDBRANCH  28  29
ENDBRANCH  24  28
ENDBRANCH  23  24
ENDBRANCH   2  23
TORSDOF 4
ENDMDL
MODEL 6
REMARK VINA RESULT:      -6.3      3.519      7.811
REMARK  Name = 11567064
REMARK  4 active torsions:
REMARK  status: ('A' for Active; 'I' for Inactive)
REMARK    1  A    between atoms: N_2  and  C_23
REMARK    2  A    between atoms: C_23  and  C_24
REMARK    3  A    between atoms: C_24  and  C_28
REMARK    4  A    between atoms: C_28  and  O_29
REMARK                            x       y       z     vdW  Elec       q    Type
REMARK                         _______ _______ _______ _____ _____    ______ ____
ROOT
ATOM      1  O   UNL     1      30.772 -21.306 -16.651  0.00  0.00    -0.451 OA
ATOM      2  N   UNL     1      36.292 -23.494 -14.034  0.00  0.00    +0.390 N 
ATOM      3  N   UNL     1      34.131 -23.505 -15.812  0.00  0.00    -0.288 N 
ATOM      4  N   UNL     1      31.874 -23.719 -15.482  0.00  0.00    -0.388 NA
ATOM      5  C   UNL     1      36.093 -22.325 -14.903  0.00  0.00    -0.055 C 
ATOM      6  C   UNL     1      35.966 -24.750 -14.703  0.00  0.00    -0.055 C 
ATOM      7  C   UNL     1      35.216 -22.586 -16.133  0.00  0.00    +0.070 C 
ATOM      8  C   UNL     1      34.493 -24.740 -15.117  0.00  0.00    +0.070 C 
ATOM      9  C   UNL     1      32.860 -23.282 -16.220  0.00  0.00    +0.186 C 
ATOM     10  C   UNL     1      32.686 -22.534 -17.499  0.00  0.00    +0.078 C 
ATOM     11  C   UNL     1      31.677 -21.578 -17.646  0.00  0.00    +0.149 C 
ATOM     12  C   UNL     1      33.576 -22.756 -18.558  0.00  0.00    +0.007 C 
ATOM     13  C   UNL     1      30.518 -23.559 -15.807  0.00  0.00    +0.149 C 
ATOM     14  C   UNL     1      29.978 -22.382 -16.336  0.00  0.00    +0.171 C 
ATOM     15  C   UNL     1      31.579 -20.823 -18.818  0.00  0.00    +0.038 C 
ATOM     16  C   UNL     1      33.463 -22.016 -19.738  0.00  0.00    +0.000 C 
ATOM     17  C   UNL     1      32.469 -21.047 -19.866  0.00  0.00    +0.003 C 
ATOM     18  C   UNL     1      29.641 -24.607 -15.502  0.00  0.00    +0.088 C 
ATOM     19  C   UNL     1      28.601 -22.243 -16.541  0.00  0.00    +0.039 C 
ATOM     20  C   UNL     1      28.267 -24.484 -15.723  0.00  0.00    -0.018 C 
ATOM     21  C   UNL     1      27.748 -23.299 -16.240  0.00  0.00    -0.001 C 
ATOM     22  H   UNL     1      35.631 -23.399 -13.262  0.00  0.00    -0.080 HD
ENDROOT
BRANCH   2  23
ATOM     23  C   UNL     1      37.631 -23.513 -13.456  0.00  0.00    -0.066 C 
BRANCH  23  24
ATOM     24  C   UNL     1      37.660 -23.886 -11.954  0.00  0.00    +0.071 C 
ATOM     25  C   UNL     1      38.826 -23.178 -11.237  0.00  0.00    +0.009 C 
ATOM     26  C   UNL     1      37.803 -25.402 -11.737  0.00  0.00    +0.009 C 
BRANCH  24  28
ATOM     27  O   UNL     1      35.417 -24.131 -10.991  0.00  0.00    -0.250 OA
ATOM     28  C   UNL     1      36.345 -23.409 -11.330  0.00  0.00    +0.311 C 
BRANCH  28  29
ATOM     29  O   UNL     1      36.328 -22.061 -11.157  0.00  0.00    -0.480 OA
ATOM     30  H   UNL     1      36.922 -21.659 -10.554  0.00  0.00    +0.295 HD
ENDBRANCH  28  29
ENDBRANCH  24  28
ENDBRANCH  23  24
ENDBRANCH   2  23
TORSDOF 4
ENDMDL
MODEL 7
REMARK VINA RESULT:      -6.2     14.661     18.253
REMARK  Name = 11567064
REMARK  4 active torsions:
REMARK  status: ('A' for Active; 'I' for Inactive)
REMARK    1  A    between atoms: N_2  and  C_23
REMARK    2  A    between atoms: C_23  and  C_24
REMARK    3  A    between atoms: C_24  and  C_28
REMARK    4  A    between atoms: C_28  and  O_29
REMARK                            x       y       z     vdW  Elec       q    Type
REMARK                         _______ _______ _______ _____ _____    ______ ____
ROOT
ATOM      1  O   UNL     1      32.598  -5.214 -21.990  0.00  0.00    -0.451 OA
ATOM      2  N   UNL     1      34.990  -4.393 -27.965  0.00  0.00    +0.390 N 
ATOM      3  N   UNL     1      32.993  -4.831 -26.054  0.00  0.00    -0.288 N 
ATOM      4  N   UNL     1      32.640  -6.539 -24.568  0.00  0.00    -0.388 NA
ATOM      5  C   UNL     1      34.793  -3.385 -26.914  0.00  0.00    -0.055 C 
ATOM      6  C   UNL     1      33.733  -4.984 -28.416  0.00  0.00    -0.055 C 
ATOM      7  C   UNL     1      33.430  -3.450 -26.215  0.00  0.00    +0.070 C 
ATOM      8  C   UNL     1      33.049  -5.685 -27.240  0.00  0.00    +0.070 C 
ATOM      9  C   UNL     1      32.466  -5.284 -24.892  0.00  0.00    +0.186 C 
ATOM     10  C   UNL     1      31.724  -4.295 -24.059  0.00  0.00    +0.078 C 
ATOM     11  C   UNL     1      31.839  -4.292 -22.666  0.00  0.00    +0.149 C 
ATOM     12  C   UNL     1      30.933  -3.319 -24.681  0.00  0.00    +0.007 C 
ATOM     13  C   UNL     1      32.132  -7.125 -23.399  0.00  0.00    +0.149 C 
ATOM     14  C   UNL     1      32.145  -6.502 -22.146  0.00  0.00    +0.171 C 
ATOM     15  C   UNL     1      31.207  -3.306 -21.903  0.00  0.00    +0.038 C 
ATOM     16  C   UNL     1      30.284  -2.348 -23.916  0.00  0.00    +0.000 C 
ATOM     17  C   UNL     1      30.426  -2.337 -22.529  0.00  0.00    +0.003 C 
ATOM     18  C   UNL     1      31.667  -8.444 -23.474  0.00  0.00    +0.088 C 
ATOM     19  C   UNL     1      31.723  -7.176 -20.996  0.00  0.00    +0.039 C 
ATOM     20  C   UNL     1      31.224  -9.117 -22.332  0.00  0.00    -0.018 C 
ATOM     21  C   UNL     1      31.256  -8.483 -21.093  0.00  0.00    -0.001 C 
ATOM     22  H   UNL     1      35.530  -5.150 -27.546  0.00  0.00    -0.080 HD
ENDROOT
BRANCH   2  23
ATOM     23  C   UNL     1      35.775  -3.866 -29.076  0.00  0.00    -0.066 C 
BRANCH  23  24
ATOM     24  C   UNL     1      37.293  -4.143 -28.957  0.00  0.00    +0.071 C 
ATOM     25  C   UNL     1      37.760  -4.015 -27.494  0.00  0.00    +0.009 C 
ATOM     26  C   UNL     1      38.126  -3.179 -29.820  0.00  0.00    +0.009 C 
BRANCH  24  28
ATOM     27  O   UNL     1      38.587  -6.202 -29.281  0.00  0.00    -0.250 OA
ATOM     28  C   UNL     1      37.542  -5.581 -29.423  0.00  0.00    +0.311 C 
BRANCH  28  29
ATOM     29  O   UNL     1      36.438  -6.122 -30.000  0.00  0.00    -0.480 OA
ATOM     30  H   UNL     1      35.588  -5.938 -29.650  0.00  0.00    +0.295 HD
ENDBRANCH  28  29
ENDBRANCH  24  28
ENDBRANCH  23  24
ENDBRANCH   2  23
TORSDOF 4
ENDMDL
MODEL 8
REMARK VINA RESULT:      -6.2     12.460     18.250
REMARK  Name = 11567064
REMARK  4 active torsions:
REMARK  status: ('A' for Active; 'I' for Inactive)
REMARK    1  A    between atoms: N_2  and  C_23
REMARK    2  A    between atoms: C_23  and  C_24
REMARK    3  A    between atoms: C_24  and  C_28
REMARK    4  A    between atoms: C_28  and  O_29
REMARK                            x       y       z     vdW  Elec       q    Type
REMARK                         _______ _______ _______ _____ _____    ______ ____
ROOT
ATOM      1  O   UNL     1      31.922  -4.114 -26.801  0.00  0.00    -0.451 OA
ATOM      2  N   UNL     1      32.040  -8.082 -21.668  0.00  0.00    +0.390 N 
ATOM      3  N   UNL     1      32.466  -5.687 -23.052  0.00  0.00    -0.288 N 
ATOM      4  N   UNL     1      33.788  -5.168 -24.850  0.00  0.00    -0.388 NA
ATOM      5  C   UNL     1      30.884  -7.408 -22.275  0.00  0.00    -0.055 C 
ATOM      6  C   UNL     1      33.011  -7.139 -21.117  0.00  0.00    -0.055 C 
ATOM      7  C   UNL     1      31.103  -5.925 -22.593  0.00  0.00    +0.070 C 
ATOM      8  C   UNL     1      33.545  -6.246 -22.239  0.00  0.00    +0.070 C 
ATOM      9  C   UNL     1      32.733  -4.905 -24.125  0.00  0.00    +0.186 C 
ATOM     10  C   UNL     1      31.780  -3.792 -24.400  0.00  0.00    +0.078 C 
ATOM     11  C   UNL     1      31.407  -3.466 -25.707  0.00  0.00    +0.149 C 
ATOM     12  C   UNL     1      31.209  -3.088 -23.331  0.00  0.00    +0.007 C 
ATOM     13  C   UNL     1      34.174  -4.424 -25.974  0.00  0.00    +0.149 C 
ATOM     14  C   UNL     1      33.278  -3.946 -26.937  0.00  0.00    +0.171 C 
ATOM     15  C   UNL     1      30.447  -2.479 -25.946  0.00  0.00    +0.038 C 
ATOM     16  C   UNL     1      30.266  -2.086 -23.573  0.00  0.00    +0.000 C 
ATOM     17  C   UNL     1      29.881  -1.786 -24.879  0.00  0.00    +0.003 C 
ATOM     18  C   UNL     1      35.543  -4.223 -26.191  0.00  0.00    +0.088 C 
ATOM     19  C   UNL     1      33.731  -3.301 -28.093  0.00  0.00    +0.039 C 
ATOM     20  C   UNL     1      36.002  -3.561 -27.333  0.00  0.00    -0.018 C 
ATOM     21  C   UNL     1      35.094  -3.103 -28.285  0.00  0.00    -0.001 C 
ATOM     22  H   UNL     1      32.517  -8.579 -22.420  0.00  0.00    -0.080 HD
ENDROOT
BRANCH   2  23
ATOM     23  C   UNL     1      31.628  -9.078 -20.685  0.00  0.00    -0.066 C 
BRANCH  23  24
ATOM     24  C   UNL     1      31.300 -10.462 -21.295  0.00  0.00    +0.071 C 
ATOM     25  C   UNL     1      29.820 -10.537 -21.717  0.00  0.00    +0.009 C 
ATOM     26  C   UNL     1      31.585 -11.610 -20.311  0.00  0.00    +0.009 C 
BRANCH  24  28
ATOM     27  O   UNL     1      32.122  -9.942 -23.547  0.00  0.00    -0.250 OA
ATOM     28  C   UNL     1      32.171 -10.640 -22.543  0.00  0.00    +0.311 C 
BRANCH  28  29
ATOM     29  O   UNL     1      33.053 -11.663 -22.401  0.00  0.00    -0.480 OA
ATOM     30  H   UNL     1      33.503 -11.784 -21.589  0.00  0.00    +0.295 HD
ENDBRANCH  28  29
ENDBRANCH  24  28
ENDBRANCH  23  24
ENDBRANCH   2  23
TORSDOF 4
ENDMDL
MODEL 9
REMARK VINA RESULT:      -6.0      3.525      7.414
REMARK  Name = 11567064
REMARK  4 active torsions:
REMARK  status: ('A' for Active; 'I' for Inactive)
REMARK    1  A    between atoms: N_2  and  C_23
REMARK    2  A    between atoms: C_23  and  C_24
REMARK    3  A    between atoms: C_24  and  C_28
REMARK    4  A    between atoms: C_28  and  O_29
REMARK                            x       y       z     vdW  Elec       q    Type
REMARK                         _______ _______ _______ _____ _____    ______ ____
ROOT
ATOM      1  O   UNL     1      30.873 -21.432 -16.456  0.00  0.00    -0.451 OA
ATOM      2  N   UNL     1      36.286 -23.740 -13.722  0.00  0.00    +0.390 N 
ATOM      3  N   UNL     1      34.157 -23.711 -15.538  0.00  0.00    -0.288 N 
ATOM      4  N   UNL     1      31.889 -23.863 -15.247  0.00  0.00    -0.388 NA
ATOM      5  C   UNL     1      36.134 -22.575 -14.605  0.00  0.00    -0.055 C 
ATOM      6  C   UNL     1      35.939 -24.994 -14.386  0.00  0.00    -0.055 C 
ATOM      7  C   UNL     1      35.271 -22.824 -15.848  0.00  0.00    +0.070 C 
ATOM      8  C   UNL     1      34.474 -24.949 -14.826  0.00  0.00    +0.070 C 
ATOM      9  C   UNL     1      32.900 -23.458 -15.971  0.00  0.00    +0.186 C 
ATOM     10  C   UNL     1      32.768 -22.718 -17.259  0.00  0.00    +0.078 C 
ATOM     11  C   UNL     1      31.787 -21.737 -17.432  0.00  0.00    +0.149 C 
ATOM     12  C   UNL     1      33.670 -22.973 -18.301  0.00  0.00    +0.007 C 
ATOM     13  C   UNL     1      30.544 -23.670 -15.597  0.00  0.00    +0.149 C 
ATOM     14  C   UNL     1      30.045 -22.484 -16.146  0.00  0.00    +0.171 C 
ATOM     15  C   UNL     1      31.730 -20.991 -18.612  0.00  0.00    +0.038 C 
ATOM     16  C   UNL     1      33.598 -22.241 -19.489  0.00  0.00    +0.000 C 
ATOM     17  C   UNL     1      32.632 -21.247 -19.642  0.00  0.00    +0.003 C 
ATOM     18  C   UNL     1      29.635 -24.692 -15.298  0.00  0.00    +0.088 C 
ATOM     19  C   UNL     1      28.676 -22.311 -16.376  0.00  0.00    +0.039 C 
ATOM     20  C   UNL     1      28.268 -24.534 -15.545  0.00  0.00    -0.018 C 
ATOM     21  C   UNL     1      27.790 -23.342 -16.081  0.00  0.00    -0.001 C 
ATOM     22  H   UNL     1      35.614 -23.622 -12.963  0.00  0.00    -0.080 HD
ENDROOT
BRANCH   2  23
ATOM     23  C   UNL     1      37.614 -23.790 -13.120  0.00  0.00    -0.066 C 
BRANCH  23  24
ATOM     24  C   UNL     1      38.543 -24.861 -13.740  0.00  0.00    +0.071 C 
ATOM     25  C   UNL     1      37.769 -26.166 -14.010  0.00  0.00    +0.009 C 
ATOM     26  C   UNL     1      39.741 -25.184 -12.830  0.00  0.00    +0.009 C 
BRANCH  24  28
ATOM     27  O   UNL     1      38.886 -23.178 -15.490  0.00  0.00    -0.250 OA
ATOM     28  C   UNL     1      39.057 -24.316 -15.076  0.00  0.00    +0.311 C 
BRANCH  28  29
ATOM     29  O   UNL     1      39.772 -25.248 -15.759  0.00  0.00    -0.480 OA
ATOM     30  H   UNL     1      40.060 -26.027 -15.327  0.00  0.00    +0.295 HD
ENDBRANCH  28  29
ENDBRANCH  24  28
ENDBRANCH  23  24
ENDBRANCH   2  23
TORSDOF 4
ENDMDL
