MODEL 1
REMARK VINA RESULT:     -12.9      0.000      0.000
REMARK  Name = 17753851
REMARK  6 active torsions:
REMARK  status: ('A' for Active; 'I' for Inactive)
REMARK    1  A    between atoms: C_2  and  C_9
REMARK    2  A    between atoms: C_3  and  C_22
REMARK    3  A    between atoms: C_9  and  C_10
REMARK    4  A    between atoms: C_15  and  C_18
REMARK    5  A    between atoms: C_22  and  C_23
REMARK    6  A    between atoms: C_28  and  C_31
REMARK                            x       y       z     vdW  Elec       q    Type
REMARK                         _______ _______ _______ _____ _____    ______ ____
ROOT
ATOM      1  O   UNL     1      36.687 -17.503 -21.727  0.00  0.00    -0.296 OA
ATOM      2  C   UNL     1      34.722 -18.885 -21.932  0.00  0.00    +0.062 C 
ATOM      3  C   UNL     1      34.715 -16.291 -22.316  0.00  0.00    +0.062 C 
ATOM      4  C   UNL     1      34.629 -19.463 -23.347  0.00  0.00    +0.008 C 
ATOM      5  C   UNL     1      33.458 -16.492 -23.167  0.00  0.00    +0.008 C 
ATOM      6  C   UNL     1      33.545 -18.821 -24.212  0.00  0.00    +0.000 C 
ATOM      7  C   UNL     1      33.692 -17.317 -24.433  0.00  0.00    +0.000 C 
ATOM      8  C   UNL     1      35.480 -17.564 -21.978  0.00  0.00    +0.150 C 
ENDROOT
BRANCH   2   9
ATOM      9  C   UNL     1      35.439 -19.866 -21.001  0.00  0.00    +0.034 C 
BRANCH   9  10
ATOM     10  C   UNL     1      34.488 -20.491 -20.020  0.00  0.00    -0.022 C 
ATOM     11  C   UNL     1      34.964 -21.374 -19.052  0.00  0.00    -0.004 C 
ATOM     12  C   UNL     1      33.127 -20.187 -20.079  0.00  0.00    -0.004 C 
ATOM     13  C   UNL     1      34.081 -21.955 -18.143  0.00  0.00    +0.002 C 
ATOM     14  C   UNL     1      32.243 -20.768 -19.169  0.00  0.00    +0.002 C 
ATOM     15  C   UNL     1      32.720 -21.652 -18.201  0.00  0.00    +0.031 C 
BRANCH  15  18
ATOM     16  N   UNL     1      32.237 -23.183 -16.307  0.00  0.00    -0.343 N 
ATOM     17  N   UNL     1      30.518 -21.935 -17.281  0.00  0.00    -0.285 NA
ATOM     18  C   UNL     1      31.799 -22.257 -17.252  0.00  0.00    +0.117 C 
ATOM     19  H   UNL     1      31.597 -23.580 -15.673  0.00  0.00    +0.144 HD
ATOM     20  H   UNL     1      33.187 -23.439 -16.271  0.00  0.00    +0.144 HD
ATOM     21  H   UNL     1      29.893 -22.344 -16.640  0.00  0.00    +0.188 HD
ENDBRANCH  15  18
ENDBRANCH   9  10
ENDBRANCH   2   9
BRANCH   3  22
ATOM     22  C   UNL     1      34.376 -15.568 -21.016  0.00  0.00    +0.034 C 
BRANCH  22  23
ATOM     23  C   UNL     1      33.588 -14.312 -21.270  0.00  0.00    -0.022 C 
ATOM     24  C   UNL     1      32.573 -13.937 -20.389  0.00  0.00    -0.004 C 
ATOM     25  C   UNL     1      33.870 -13.524 -22.386  0.00  0.00    -0.004 C 
ATOM     26  C   UNL     1      31.841 -12.773 -20.626  0.00  0.00    +0.002 C 
ATOM     27  C   UNL     1      33.138 -12.361 -22.621  0.00  0.00    +0.002 C 
ATOM     28  C   UNL     1      32.123 -11.985 -21.741  0.00  0.00    +0.031 C 
BRANCH  28  31
ATOM     29  N   UNL     1      31.900  -9.709 -22.709  0.00  0.00    -0.343 N 
ATOM     30  N   UNL     1      30.130 -10.662 -21.518  0.00  0.00    -0.285 NA
ATOM     31  C   UNL     1      31.360 -10.772 -21.987  0.00  0.00    +0.117 C 
ATOM     32  H   UNL     1      31.365  -8.897 -22.863  0.00  0.00    +0.144 HD
ATOM     33  H   UNL     1      32.816  -9.769 -23.064  0.00  0.00    +0.144 HD
ATOM     34  H   UNL     1      29.610  -9.842 -21.683  0.00  0.00    +0.188 HD
ENDBRANCH  28  31
ENDBRANCH  22  23
ENDBRANCH   3  22
TORSDOF 6
ENDMDL
MODEL 2
REMARK VINA RESULT:     -11.9      3.106      4.933
REMARK  Name = 17753851
REMARK  6 active torsions:
REMARK  status: ('A' for Active; 'I' for Inactive)
REMARK    1  A    between atoms: C_2  and  C_9
REMARK    2  A    between atoms: C_3  and  C_22
REMARK    3  A    between atoms: C_9  and  C_10
REMARK    4  A    between atoms: C_15  and  C_18
REMARK    5  A    between atoms: C_22  and  C_23
REMARK    6  A    between atoms: C_28  and  C_31
REMARK                            x       y       z     vdW  Elec       q    Type
REMARK                         _______ _______ _______ _____ _____    ______ ____
ROOT
ATOM      1  O   UNL     1      36.436 -21.430 -20.403  0.00  0.00    -0.296 OA
ATOM      2  C   UNL     1      35.135 -21.073 -18.404  0.00  0.00    +0.062 C 
ATOM      3  C   UNL     1      34.724 -19.784 -20.650  0.00  0.00    +0.062 C 
ATOM      4  C   UNL     1      33.979 -22.074 -18.341  0.00  0.00    +0.008 C 
ATOM      5  C   UNL     1      33.294 -19.536 -20.164  0.00  0.00    +0.008 C 
ATOM      6  C   UNL     1      32.609 -21.462 -18.631  0.00  0.00    +0.000 C 
ATOM      7  C   UNL     1      32.463 -20.810 -20.005  0.00  0.00    +0.000 C 
ATOM      8  C   UNL     1      35.506 -20.825 -19.861  0.00  0.00    +0.150 C 
ENDROOT
BRANCH   2   9
ATOM      9  C   UNL     1      36.349 -21.610 -17.641  0.00  0.00    +0.034 C 
BRANCH   9  10
ATOM     10  C   UNL     1      35.969 -22.091 -16.269  0.00  0.00    -0.022 C 
ATOM     11  C   UNL     1      34.632 -22.342 -15.964  0.00  0.00    -0.004 C 
ATOM     12  C   UNL     1      36.954 -22.285 -15.301  0.00  0.00    -0.004 C 
ATOM     13  C   UNL     1      34.278 -22.787 -14.691  0.00  0.00    +0.002 C 
ATOM     14  C   UNL     1      36.601 -22.730 -14.027  0.00  0.00    +0.002 C 
ATOM     15  C   UNL     1      35.263 -22.981 -13.722  0.00  0.00    +0.031 C 
BRANCH  15  18
ATOM     16  N   UNL     1      35.624 -23.072 -11.266  0.00  0.00    -0.343 N 
ATOM     17  N   UNL     1      33.852 -24.244 -12.241  0.00  0.00    -0.285 NA
ATOM     18  C   UNL     1      34.894 -23.446 -12.394  0.00  0.00    +0.117 C 
ATOM     19  H   UNL     1      35.356 -23.398 -10.377  0.00  0.00    +0.144 HD
ATOM     20  H   UNL     1      36.406 -22.481 -11.360  0.00  0.00    +0.144 HD
ATOM     21  H   UNL     1      33.601 -24.559 -11.343  0.00  0.00    +0.188 HD
ENDBRANCH  15  18
ENDBRANCH   9  10
ENDBRANCH   2   9
BRANCH   3  22
ATOM     22  C   UNL     1      35.521 -18.483 -20.664  0.00  0.00    +0.034 C 
BRANCH  22  23
ATOM     23  C   UNL     1      34.934 -17.484 -21.624  0.00  0.00    -0.022 C 
ATOM     24  C   UNL     1      34.708 -17.844 -22.952  0.00  0.00    -0.004 C 
ATOM     25  C   UNL     1      34.619 -16.197 -21.186  0.00  0.00    -0.004 C 
ATOM     26  C   UNL     1      34.165 -16.917 -23.843  0.00  0.00    +0.002 C 
ATOM     27  C   UNL     1      34.076 -15.272 -22.076  0.00  0.00    +0.002 C 
ATOM     28  C   UNL     1      33.849 -15.631 -23.405  0.00  0.00    +0.031 C 
BRANCH  28  31
ATOM     29  N   UNL     1      32.922 -13.385 -23.918  0.00  0.00    -0.343 N 
ATOM     30  N   UNL     1      33.100 -14.999 -25.598  0.00  0.00    -0.285 NA
ATOM     31  C   UNL     1      33.283 -14.666 -24.333  0.00  0.00    +0.117 C 
ATOM     32  H   UNL     1      32.541 -12.747 -24.563  0.00  0.00    +0.144 HD
ATOM     33  H   UNL     1      33.048 -13.118 -22.979  0.00  0.00    +0.144 HD
ATOM     34  H   UNL     1      32.717 -14.347 -26.230  0.00  0.00    +0.188 HD
ENDBRANCH  28  31
ENDBRANCH  22  23
ENDBRANCH   3  22
TORSDOF 6
ENDMDL
MODEL 3
REMARK VINA RESULT:     -11.2      5.413      9.158
REMARK  Name = 17753851
REMARK  6 active torsions:
REMARK  status: ('A' for Active; 'I' for Inactive)
REMARK    1  A    between atoms: C_2  and  C_9
REMARK    2  A    between atoms: C_3  and  C_22
REMARK    3  A    between atoms: C_9  and  C_10
REMARK    4  A    between atoms: C_15  and  C_18
REMARK    5  A    between atoms: C_22  and  C_23
REMARK    6  A    between atoms: C_28  and  C_31
REMARK                            x       y       z     vdW  Elec       q    Type
REMARK                         _______ _______ _______ _____ _____    ______ ____
ROOT
ATOM      1  O   UNL     1      31.204  -8.429 -23.589  0.00  0.00    -0.296 OA
ATOM      2  C   UNL     1      32.107 -10.057 -22.058  0.00  0.00    +0.062 C 
ATOM      3  C   UNL     1      32.109  -7.476 -21.596  0.00  0.00    +0.062 C 
ATOM      4  C   UNL     1      31.001 -10.590 -21.142  0.00  0.00    +0.008 C 
ATOM      5  C   UNL     1      32.207  -7.815 -20.106  0.00  0.00    +0.008 C 
ATOM      6  C   UNL     1      31.077 -10.071 -19.707  0.00  0.00    +0.000 C 
ATOM      7  C   UNL     1      30.986  -8.553 -19.556  0.00  0.00    +0.000 C 
ATOM      8  C   UNL     1      31.751  -8.644 -22.504  0.00  0.00    +0.150 C 
ENDROOT
BRANCH   2   9
ATOM      9  C   UNL     1      32.271 -10.964 -23.280  0.00  0.00    +0.034 C 
BRANCH   9  10
ATOM     10  C   UNL     1      32.875 -12.288 -22.906  0.00  0.00    -0.022 C 
ATOM     11  C   UNL     1      33.234 -12.542 -21.583  0.00  0.00    -0.004 C 
ATOM     12  C   UNL     1      33.077 -13.263 -23.883  0.00  0.00    -0.004 C 
ATOM     13  C   UNL     1      33.795 -13.770 -21.235  0.00  0.00    +0.002 C 
ATOM     14  C   UNL     1      33.639 -14.493 -23.536  0.00  0.00    +0.002 C 
ATOM     15  C   UNL     1      33.998 -14.745 -22.212  0.00  0.00    +0.031 C 
BRANCH  15  18
ATOM     16  N   UNL     1      35.141 -16.867 -22.811  0.00  0.00    -0.343 N 
ATOM     17  N   UNL     1      34.586 -16.416 -20.586  0.00  0.00    -0.285 NA
ATOM     18  C   UNL     1      34.583 -16.027 -21.849  0.00  0.00    +0.117 C 
ATOM     19  H   UNL     1      35.532 -17.730 -22.544  0.00  0.00    +0.144 HD
ATOM     20  H   UNL     1      35.145 -16.597 -23.758  0.00  0.00    +0.144 HD
ATOM     21  H   UNL     1      34.982 -17.282 -20.339  0.00  0.00    +0.188 HD
ENDBRANCH  15  18
ENDBRANCH   9  10
ENDBRANCH   2   9
BRANCH   3  22
ATOM     22  C   UNL     1      33.411  -6.854 -22.093  0.00  0.00    +0.034 C 
BRANCH  22  23
ATOM     23  C   UNL     1      33.154  -5.670 -22.986  0.00  0.00    -0.022 C 
ATOM     24  C   UNL     1      33.951  -5.462 -24.112  0.00  0.00    -0.004 C 
ATOM     25  C   UNL     1      32.122  -4.781 -22.686  0.00  0.00    -0.004 C 
ATOM     26  C   UNL     1      33.713  -4.363 -24.939  0.00  0.00    +0.002 C 
ATOM     27  C   UNL     1      31.885  -3.684 -23.514  0.00  0.00    +0.002 C 
ATOM     28  C   UNL     1      32.680  -3.475 -24.640  0.00  0.00    +0.031 C 
BRANCH  28  31
ATOM     29  N   UNL     1      33.445  -1.786 -26.291  0.00  0.00    -0.343 N 
ATOM     30  N   UNL     1      31.231  -1.786 -25.546  0.00  0.00    -0.285 NA
ATOM     31  C   UNL     1      32.433  -2.330 -25.503  0.00  0.00    +0.117 C 
ATOM     32  H   UNL     1      33.256  -1.011 -26.869  0.00  0.00    +0.144 HD
ATOM     33  H   UNL     1      34.349  -2.175 -26.272  0.00  0.00    +0.144 HD
ATOM     34  H   UNL     1      31.061  -1.011 -26.130  0.00  0.00    +0.188 HD
ENDBRANCH  28  31
ENDBRANCH  22  23
ENDBRANCH   3  22
TORSDOF 6
ENDMDL
MODEL 4
REMARK VINA RESULT:     -11.0      5.460      9.510
REMARK  Name = 17753851
REMARK  6 active torsions:
REMARK  status: ('A' for Active; 'I' for Inactive)
REMARK    1  A    between atoms: C_2  and  C_9
REMARK    2  A    between atoms: C_3  and  C_22
REMARK    3  A    between atoms: C_9  and  C_10
REMARK    4  A    between atoms: C_15  and  C_18
REMARK    5  A    between atoms: C_22  and  C_23
REMARK    6  A    between atoms: C_28  and  C_31
REMARK                            x       y       z     vdW  Elec       q    Type
REMARK                         _______ _______ _______ _____ _____    ______ ____
ROOT
ATOM      1  O   UNL     1      30.206  -8.320 -22.946  0.00  0.00    -0.296 OA
ATOM      2  C   UNL     1      31.382  -9.572 -21.253  0.00  0.00    +0.062 C 
ATOM      3  C   UNL     1      32.147  -7.213 -22.105  0.00  0.00    +0.062 C 
ATOM      4  C   UNL     1      30.783  -9.285 -19.874  0.00  0.00    +0.008 C 
ATOM      5  C   UNL     1      32.889  -7.052 -20.776  0.00  0.00    +0.008 C 
ATOM      6  C   UNL     1      31.659  -8.399 -18.987  0.00  0.00    +0.000 C 
ATOM      7  C   UNL     1      31.971  -7.015 -19.553  0.00  0.00    +0.000 C 
ATOM      8  C   UNL     1      31.156  -8.368 -22.159  0.00  0.00    +0.150 C 
ENDROOT
BRANCH   2   9
ATOM      9  C   UNL     1      30.734 -10.815 -21.869  0.00  0.00    +0.034 C 
BRANCH   9  10
ATOM     10  C   UNL     1      31.665 -11.994 -21.836  0.00  0.00    -0.022 C 
ATOM     11  C   UNL     1      31.844 -12.709 -20.653  0.00  0.00    -0.004 C 
ATOM     12  C   UNL     1      32.350 -12.373 -22.991  0.00  0.00    -0.004 C 
ATOM     13  C   UNL     1      32.708 -13.803 -20.622  0.00  0.00    +0.002 C 
ATOM     14  C   UNL     1      33.215 -13.467 -22.961  0.00  0.00    +0.002 C 
ATOM     15  C   UNL     1      33.394 -14.182 -21.776  0.00  0.00    +0.031 C 
BRANCH  15  18
ATOM     16  N   UNL     1      34.985 -15.735 -22.884  0.00  0.00    -0.343 N 
ATOM     17  N   UNL     1      34.469 -15.994 -20.619  0.00  0.00    -0.285 NA
ATOM     18  C   UNL     1      34.295 -15.323 -21.744  0.00  0.00    +0.117 C 
ATOM     19  H   UNL     1      35.590 -16.509 -22.840  0.00  0.00    +0.144 HD
ATOM     20  H   UNL     1      34.866 -15.249 -23.733  0.00  0.00    +0.144 HD
ATOM     21  H   UNL     1      35.079 -16.767 -20.596  0.00  0.00    +0.188 HD
ENDBRANCH  15  18
ENDBRANCH   9  10
ENDBRANCH   2   9
BRANCH   3  22
ATOM     22  C   UNL     1      33.135  -7.365 -23.258  0.00  0.00    +0.034 C 
BRANCH  22  23
ATOM     23  C   UNL     1      33.014  -6.235 -24.244  0.00  0.00    -0.022 C 
ATOM     24  C   UNL     1      32.041  -6.282 -25.242  0.00  0.00    -0.004 C 
ATOM     25  C   UNL     1      33.875  -5.140 -24.160  0.00  0.00    -0.004 C 
ATOM     26  C   UNL     1      31.930  -5.235 -26.158  0.00  0.00    +0.002 C 
ATOM     27  C   UNL     1      33.763  -4.094 -25.075  0.00  0.00    +0.002 C 
ATOM     28  C   UNL     1      32.791  -4.140 -26.073  0.00  0.00    +0.031 C 
BRANCH  28  31
ATOM     29  N   UNL     1      33.689  -2.774 -27.942  0.00  0.00    -0.343 N 
ATOM     30  N   UNL     1      31.590  -2.294 -27.034  0.00  0.00    -0.285 NA
ATOM     31  C   UNL     1      32.674  -3.049 -27.027  0.00  0.00    +0.117 C 
ATOM     32  H   UNL     1      33.589  -2.030 -28.579  0.00  0.00    +0.144 HD
ATOM     33  H   UNL     1      34.506  -3.322 -27.951  0.00  0.00    +0.144 HD
ATOM     34  H   UNL     1      31.508  -1.555 -27.680  0.00  0.00    +0.188 HD
ENDBRANCH  28  31
ENDBRANCH  22  23
ENDBRANCH   3  22
TORSDOF 6
ENDMDL
MODEL 5
REMARK VINA RESULT:     -10.7      4.482     11.728
REMARK  Name = 17753851
REMARK  6 active torsions:
REMARK  status: ('A' for Active; 'I' for Inactive)
REMARK    1  A    between atoms: C_2  and  C_9
REMARK    2  A    between atoms: C_3  and  C_22
REMARK    3  A    between atoms: C_9  and  C_10
REMARK    4  A    between atoms: C_15  and  C_18
REMARK    5  A    between atoms: C_22  and  C_23
REMARK    6  A    between atoms: C_28  and  C_31
REMARK                            x       y       z     vdW  Elec       q    Type
REMARK                         _______ _______ _______ _____ _____    ______ ____
ROOT
ATOM      1  O   UNL     1      34.050 -10.138 -23.313  0.00  0.00    -0.296 OA
ATOM      2  C   UNL     1      31.720  -9.563 -23.080  0.00  0.00    +0.062 C 
ATOM      3  C   UNL     1      32.708 -11.902 -22.427  0.00  0.00    +0.062 C 
ATOM      4  C   UNL     1      31.478  -8.880 -21.732  0.00  0.00    +0.008 C 
ATOM      5  C   UNL     1      31.506 -12.070 -21.494  0.00  0.00    +0.008 C 
ATOM      6  C   UNL     1      30.753  -9.757 -20.711  0.00  0.00    +0.000 C 
ATOM      7  C   UNL     1      31.465 -11.059 -20.347  0.00  0.00    +0.000 C 
ATOM      8  C   UNL     1      32.921 -10.493 -22.963  0.00  0.00    +0.150 C 
ENDROOT
BRANCH   2   9
ATOM      9  C   UNL     1      31.975  -8.518 -24.170  0.00  0.00    +0.034 C 
BRANCH   9  10
ATOM     10  C   UNL     1      31.664  -7.130 -23.685  0.00  0.00    -0.022 C 
ATOM     11  C   UNL     1      32.692  -6.299 -23.242  0.00  0.00    -0.004 C 
ATOM     12  C   UNL     1      30.346  -6.673 -23.678  0.00  0.00    -0.004 C 
ATOM     13  C   UNL     1      32.404  -5.012 -22.791  0.00  0.00    +0.002 C 
ATOM     14  C   UNL     1      30.057  -5.385 -23.227  0.00  0.00    +0.002 C 
ATOM     15  C   UNL     1      31.086  -4.555 -22.784  0.00  0.00    +0.031 C 
BRANCH  15  18
ATOM     16  N   UNL     1      31.609  -2.131 -22.628  0.00  0.00    -0.343 N 
ATOM     17  N   UNL     1      29.715  -2.998 -21.569  0.00  0.00    -0.285 NA
ATOM     18  C   UNL     1      30.785  -3.211 -22.314  0.00  0.00    +0.117 C 
ATOM     19  H   UNL     1      31.387  -1.230 -22.301  0.00  0.00    +0.144 HD
ATOM     20  H   UNL     1      32.414  -2.270 -23.180  0.00  0.00    +0.144 HD
ATOM     21  H   UNL     1      29.509  -2.090 -21.251  0.00  0.00    +0.188 HD
ENDBRANCH  15  18
ENDBRANCH   9  10
ENDBRANCH   2   9
BRANCH   3  22
ATOM     22  C   UNL     1      32.610 -12.864 -23.608  0.00  0.00    +0.034 C 
BRANCH  22  23
ATOM     23  C   UNL     1      33.294 -14.171 -23.317  0.00  0.00    -0.022 C 
ATOM     24  C   UNL     1      33.454 -15.115 -24.332  0.00  0.00    -0.004 C 
ATOM     25  C   UNL     1      33.765 -14.442 -22.032  0.00  0.00    -0.004 C 
ATOM     26  C   UNL     1      34.087 -16.329 -24.062  0.00  0.00    +0.002 C 
ATOM     27  C   UNL     1      34.398 -15.654 -21.763  0.00  0.00    +0.002 C 
ATOM     28  C   UNL     1      34.559 -16.598 -22.777  0.00  0.00    +0.031 C 
BRANCH  28  31
ATOM     29  N   UNL     1      36.574 -17.918 -22.172  0.00  0.00    -0.343 N 
ATOM     30  N   UNL     1      34.532 -18.990 -22.550  0.00  0.00    -0.285 NA
ATOM     31  C   UNL     1      35.219 -17.863 -22.496  0.00  0.00    +0.117 C 
ATOM     32  H   UNL     1      37.000 -18.786 -21.985  0.00  0.00    +0.144 HD
ATOM     33  H   UNL     1      37.104 -17.091 -22.130  0.00  0.00    +0.144 HD
ATOM     34  H   UNL     1      34.976 -19.848 -22.360  0.00  0.00    +0.188 HD
ENDBRANCH  28  31
ENDBRANCH  22  23
ENDBRANCH   3  22
TORSDOF 6
ENDMDL
MODEL 6
REMARK VINA RESULT:     -10.6      4.994      8.615
REMARK  Name = 17753851
REMARK  6 active torsions:
REMARK  status: ('A' for Active; 'I' for Inactive)
REMARK    1  A    between atoms: C_2  and  C_9
REMARK    2  A    between atoms: C_3  and  C_22
REMARK    3  A    between atoms: C_9  and  C_10
REMARK    4  A    between atoms: C_15  and  C_18
REMARK    5  A    between atoms: C_22  and  C_23
REMARK    6  A    between atoms: C_28  and  C_31
REMARK                            x       y       z     vdW  Elec       q    Type
REMARK                         _______ _______ _______ _____ _____    ______ ____
ROOT
ATOM      1  O   UNL     1      32.473 -21.768 -14.268  0.00  0.00    -0.296 OA
ATOM      2  C   UNL     1      33.010 -24.083 -13.857  0.00  0.00    +0.062 C 
ATOM      3  C   UNL     1      33.977 -22.705 -15.868  0.00  0.00    +0.062 C 
ATOM      4  C   UNL     1      34.188 -24.186 -12.886  0.00  0.00    +0.008 C 
ATOM      5  C   UNL     1      35.136 -23.705 -15.903  0.00  0.00    +0.008 C 
ATOM      6  C   UNL     1      35.501 -24.612 -13.543  0.00  0.00    +0.000 C 
ATOM      7  C   UNL     1      36.009 -23.687 -14.647  0.00  0.00    +0.000 C 
ATOM      8  C   UNL     1      33.104 -22.768 -14.622  0.00  0.00    +0.150 C 
ENDROOT
BRANCH   2   9
ATOM      9  C   UNL     1      31.683 -24.149 -13.096  0.00  0.00    +0.034 C 
BRANCH   9  10
ATOM     10  C   UNL     1      30.527 -23.747 -13.969  0.00  0.00    -0.022 C 
ATOM     11  C   UNL     1      30.035 -24.633 -14.926  0.00  0.00    -0.004 C 
ATOM     12  C   UNL     1      29.947 -22.487 -13.821  0.00  0.00    -0.004 C 
ATOM     13  C   UNL     1      28.964 -24.261 -15.737  0.00  0.00    +0.002 C 
ATOM     14  C   UNL     1      28.875 -22.114 -14.632  0.00  0.00    +0.002 C 
ATOM     15  C   UNL     1      28.384 -23.001 -15.589  0.00  0.00    +0.031 C 
BRANCH  15  18
ATOM     16  N   UNL     1      26.320 -21.683 -16.004  0.00  0.00    -0.343 N 
ATOM     17  N   UNL     1      27.129 -23.148 -17.635  0.00  0.00    -0.285 NA
ATOM     18  C   UNL     1      27.265 -22.612 -16.434  0.00  0.00    +0.117 C 
ATOM     19  H   UNL     1      25.571 -21.433 -16.592  0.00  0.00    +0.144 HD
ATOM     20  H   UNL     1      26.402 -21.274 -15.111  0.00  0.00    +0.144 HD
ATOM     21  H   UNL     1      26.373 -22.886 -18.208  0.00  0.00    +0.188 HD
ENDBRANCH  15  18
ENDBRANCH   9  10
ENDBRANCH   2   9
BRANCH   3  22
ATOM     22  C   UNL     1      33.086 -22.870 -17.096  0.00  0.00    +0.034 C 
BRANCH  22  23
ATOM     23  C   UNL     1      33.445 -21.888 -18.177  0.00  0.00    -0.022 C 
ATOM     24  C   UNL     1      34.785 -21.639 -18.475  0.00  0.00    -0.004 C 
ATOM     25  C   UNL     1      32.439 -21.225 -18.881  0.00  0.00    -0.004 C 
ATOM     26  C   UNL     1      35.118 -20.727 -19.477  0.00  0.00    +0.002 C 
ATOM     27  C   UNL     1      32.773 -20.314 -19.882  0.00  0.00    +0.002 C 
ATOM     28  C   UNL     1      34.112 -20.065 -20.181  0.00  0.00    +0.031 C 
BRANCH  28  31
ATOM     29  N   UNL     1      33.829 -19.138 -22.467  0.00  0.00    -0.343 N 
ATOM     30  N   UNL     1      35.395 -18.208 -21.004  0.00  0.00    -0.285 NA
ATOM     31  C   UNL     1      34.460 -19.114 -21.225  0.00  0.00    +0.117 C 
ATOM     32  H   UNL     1      34.080 -18.485 -23.159  0.00  0.00    +0.144 HD
ATOM     33  H   UNL     1      33.132 -19.808 -22.653  0.00  0.00    +0.144 HD
ATOM     34  H   UNL     1      35.633 -17.562 -21.709  0.00  0.00    +0.188 HD
ENDBRANCH  28  31
ENDBRANCH  22  23
ENDBRANCH   3  22
TORSDOF 6
ENDMDL
MODEL 7
REMARK VINA RESULT:     -10.6      2.878      4.979
REMARK  Name = 17753851
REMARK  6 active torsions:
REMARK  status: ('A' for Active; 'I' for Inactive)
REMARK    1  A    between atoms: C_2  and  C_9
REMARK    2  A    between atoms: C_3  and  C_22
REMARK    3  A    between atoms: C_9  and  C_10
REMARK    4  A    between atoms: C_15  and  C_18
REMARK    5  A    between atoms: C_22  and  C_23
REMARK    6  A    between atoms: C_28  and  C_31
REMARK                            x       y       z     vdW  Elec       q    Type
REMARK                         _______ _______ _______ _____ _____    ______ ____
ROOT
ATOM      1  O   UNL     1      32.644 -20.143 -19.357  0.00  0.00    -0.296 OA
ATOM      2  C   UNL     1      34.289 -21.867 -18.986  0.00  0.00    +0.062 C 
ATOM      3  C   UNL     1      34.780 -19.654 -20.305  0.00  0.00    +0.062 C 
ATOM      4  C   UNL     1      34.984 -21.650 -17.640  0.00  0.00    +0.008 C 
ATOM      5  C   UNL     1      36.258 -19.865 -19.968  0.00  0.00    +0.008 C 
ATOM      6  C   UNL     1      36.418 -21.132 -17.755  0.00  0.00    +0.000 C 
ATOM      7  C   UNL     1      36.571 -19.792 -18.473  0.00  0.00    +0.000 C 
ATOM      8  C   UNL     1      33.806 -20.525 -19.523  0.00  0.00    +0.150 C 
ENDROOT
BRANCH   2   9
ATOM      9  C   UNL     1      33.103 -22.821 -18.828  0.00  0.00    +0.034 C 
BRANCH   9  10
ATOM     10  C   UNL     1      32.654 -22.908 -17.396  0.00  0.00    -0.022 C 
ATOM     11  C   UNL     1      31.396 -22.431 -17.029  0.00  0.00    -0.004 C 
ATOM     12  C   UNL     1      33.496 -23.467 -16.434  0.00  0.00    -0.004 C 
ATOM     13  C   UNL     1      30.979 -22.511 -15.701  0.00  0.00    +0.002 C 
ATOM     14  C   UNL     1      33.079 -23.547 -15.105  0.00  0.00    +0.002 C 
ATOM     15  C   UNL     1      31.821 -23.069 -14.739  0.00  0.00    +0.031 C 
BRANCH  15  18
ATOM     16  N   UNL     1      30.206 -23.805 -13.002  0.00  0.00    -0.343 N 
ATOM     17  N   UNL     1      32.114 -22.598 -12.400  0.00  0.00    -0.285 NA
ATOM     18  C   UNL     1      31.386 -23.153 -13.353  0.00  0.00    +0.117 C 
ATOM     19  H   UNL     1      29.931 -23.851 -12.058  0.00  0.00    +0.144 HD
ATOM     20  H   UNL     1      29.648 -24.222 -13.698  0.00  0.00    +0.144 HD
ATOM     21  H   UNL     1      31.822 -22.653 -11.462  0.00  0.00    +0.188 HD
ENDBRANCH  15  18
ENDBRANCH   9  10
ENDBRANCH   2   9
BRANCH   3  22
ATOM     22  C   UNL     1      34.532 -19.863 -21.796  0.00  0.00    +0.034 C 
BRANCH  22  23
ATOM     23  C   UNL     1      34.263 -18.562 -22.501  0.00  0.00    -0.022 C 
ATOM     24  C   UNL     1      34.654 -17.359 -21.915  0.00  0.00    -0.004 C 
ATOM     25  C   UNL     1      33.621 -18.559 -23.740  0.00  0.00    -0.004 C 
ATOM     26  C   UNL     1      34.403 -16.151 -22.568  0.00  0.00    +0.002 C 
ATOM     27  C   UNL     1      33.372 -17.353 -24.393  0.00  0.00    +0.002 C 
ATOM     28  C   UNL     1      33.762 -16.149 -23.807  0.00  0.00    +0.031 C 
BRANCH  28  31
ATOM     29  N   UNL     1      33.690 -13.667 -23.847  0.00  0.00    -0.343 N 
ATOM     30  N   UNL     1      33.074 -14.894 -25.737  0.00  0.00    -0.285 NA
ATOM     31  C   UNL     1      33.501 -14.890 -24.488  0.00  0.00    +0.117 C 
ATOM     32  H   UNL     1      33.508 -12.827 -24.326  0.00  0.00    +0.144 HD
ATOM     33  H   UNL     1      34.005 -13.642 -22.914  0.00  0.00    +0.144 HD
ATOM     34  H   UNL     1      32.897 -14.043 -26.201  0.00  0.00    +0.188 HD
ENDBRANCH  28  31
ENDBRANCH  22  23
ENDBRANCH   3  22
TORSDOF 6
ENDMDL
MODEL 8
REMARK VINA RESULT:     -10.5      5.380     12.944
REMARK  Name = 17753851
REMARK  6 active torsions:
REMARK  status: ('A' for Active; 'I' for Inactive)
REMARK    1  A    between atoms: C_2  and  C_9
REMARK    2  A    between atoms: C_3  and  C_22
REMARK    3  A    between atoms: C_9  and  C_10
REMARK    4  A    between atoms: C_15  and  C_18
REMARK    5  A    between atoms: C_22  and  C_23
REMARK    6  A    between atoms: C_28  and  C_31
REMARK                            x       y       z     vdW  Elec       q    Type
REMARK                         _______ _______ _______ _____ _____    ______ ____
ROOT
ATOM      1  O   UNL     1      32.226  -8.902 -23.541  0.00  0.00    -0.296 OA
ATOM      2  C   UNL     1      30.529  -7.482 -22.582  0.00  0.00    +0.062 C 
ATOM      3  C   UNL     1      31.696  -9.432 -21.274  0.00  0.00    +0.062 C 
ATOM      4  C   UNL     1      31.167  -6.219 -21.998  0.00  0.00    +0.008 C 
ATOM      5  C   UNL     1      31.316  -8.700 -19.984  0.00  0.00    +0.008 C 
ATOM      6  C   UNL     1      31.214  -6.194 -20.471  0.00  0.00    +0.000 C 
ATOM      7  C   UNL     1      31.992  -7.337 -19.823  0.00  0.00    +0.000 C 
ATOM      8  C   UNL     1      31.545  -8.618 -22.551  0.00  0.00    +0.150 C 
ENDROOT
BRANCH   2   9
ATOM      9  C   UNL     1      30.070  -7.233 -24.021  0.00  0.00    +0.034 C 
BRANCH   9  10
ATOM     10  C   UNL     1      30.789  -6.064 -24.633  0.00  0.00    -0.022 C 
ATOM     11  C   UNL     1      31.723  -6.272 -25.647  0.00  0.00    -0.004 C 
ATOM     12  C   UNL     1      30.521  -4.769 -24.187  0.00  0.00    -0.004 C 
ATOM     13  C   UNL     1      32.390  -5.188 -26.215  0.00  0.00    +0.002 C 
ATOM     14  C   UNL     1      31.188  -3.684 -24.755  0.00  0.00    +0.002 C 
ATOM     15  C   UNL     1      32.123  -3.893 -25.768  0.00  0.00    +0.031 C 
BRANCH  15  18
ATOM     16  N   UNL     1      34.201  -2.621 -26.250  0.00  0.00    -0.343 N 
ATOM     17  N   UNL     1      32.136  -1.838 -27.015  0.00  0.00    -0.285 NA
ATOM     18  C   UNL     1      32.818  -2.761 -26.361  0.00  0.00    +0.117 C 
ATOM     19  H   UNL     1      34.652  -1.848 -26.660  0.00  0.00    +0.144 HD
ATOM     20  H   UNL     1      34.727  -3.297 -25.764  0.00  0.00    +0.144 HD
ATOM     21  H   UNL     1      32.605  -1.072 -27.417  0.00  0.00    +0.188 HD
ENDBRANCH  15  18
ENDBRANCH   9  10
ENDBRANCH   2   9
BRANCH   3  22
ATOM     22  C   UNL     1      30.890 -10.720 -21.419  0.00  0.00    +0.034 C 
BRANCH  22  23
ATOM     23  C   UNL     1      31.785 -11.920 -21.570  0.00  0.00    -0.022 C 
ATOM     24  C   UNL     1      32.388 -12.188 -22.799  0.00  0.00    -0.004 C 
ATOM     25  C   UNL     1      32.009 -12.765 -20.483  0.00  0.00    -0.004 C 
ATOM     26  C   UNL     1      33.217 -13.302 -22.940  0.00  0.00    +0.002 C 
ATOM     27  C   UNL     1      32.838 -13.877 -20.625  0.00  0.00    +0.002 C 
ATOM     28  C   UNL     1      33.442 -14.146 -21.853  0.00  0.00    +0.031 C 
BRANCH  28  31
ATOM     29  N   UNL     1      34.867 -15.640 -23.232  0.00  0.00    -0.343 N 
ATOM     30  N   UNL     1      34.568 -16.069 -20.955  0.00  0.00    -0.285 NA
ATOM     31  C   UNL     1      34.306 -15.306 -22.001  0.00  0.00    +0.117 C 
ATOM     32  H   UNL     1      35.450 -16.430 -23.310  0.00  0.00    +0.144 HD
ATOM     33  H   UNL     1      34.682 -15.086 -24.025  0.00  0.00    +0.144 HD
ATOM     34  H   UNL     1      35.154 -16.855 -21.052  0.00  0.00    +0.188 HD
ENDBRANCH  28  31
ENDBRANCH  22  23
ENDBRANCH   3  22
TORSDOF 6
ENDMDL
MODEL 9
REMARK VINA RESULT:     -10.2      4.831     11.060
REMARK  Name = 17753851
REMARK  6 active torsions:
REMARK  status: ('A' for Active; 'I' for Inactive)
REMARK    1  A    between atoms: C_2  and  C_9
REMARK    2  A    between atoms: C_3  and  C_22
REMARK    3  A    between atoms: C_9  and  C_10
REMARK    4  A    between atoms: C_15  and  C_18
REMARK    5  A    between atoms: C_22  and  C_23
REMARK    6  A    between atoms: C_28  and  C_31
REMARK                            x       y       z     vdW  Elec       q    Type
REMARK                         _______ _______ _______ _____ _____    ______ ____
ROOT
ATOM      1  O   UNL     1      34.975 -22.728 -16.305  0.00  0.00    -0.296 OA
ATOM      2  C   UNL     1      32.777 -23.254 -17.146  0.00  0.00    +0.062 C 
ATOM      3  C   UNL     1      33.458 -23.489 -14.624  0.00  0.00    +0.062 C 
ATOM      4  C   UNL     1      31.908 -21.994 -17.173  0.00  0.00    +0.008 C 
ATOM      5  C   UNL     1      31.970 -23.369 -14.285  0.00  0.00    +0.008 C 
ATOM      6  C   UNL     1      30.835 -21.954 -16.085  0.00  0.00    +0.000 C 
ATOM      7  C   UNL     1      31.358 -22.016 -14.651  0.00  0.00    +0.000 C 
ATOM      8  C   UNL     1      33.830 -23.114 -16.053  0.00  0.00    +0.150 C 
ENDROOT
BRANCH   2   9
ATOM      9  C   UNL     1      33.458 -23.462 -18.501  0.00  0.00    +0.034 C 
BRANCH   9  10
ATOM     10  C   UNL     1      33.750 -22.152 -19.177  0.00  0.00    -0.022 C 
ATOM     11  C   UNL     1      32.703 -21.366 -19.657  0.00  0.00    -0.004 C 
ATOM     12  C   UNL     1      35.069 -21.723 -19.326  0.00  0.00    -0.004 C 
ATOM     13  C   UNL     1      32.973 -20.151 -20.285  0.00  0.00    +0.002 C 
ATOM     14  C   UNL     1      35.340 -20.507 -19.955  0.00  0.00    +0.002 C 
ATOM     15  C   UNL     1      34.292 -19.722 -20.434  0.00  0.00    +0.031 C 
BRANCH  15  18
ATOM     16  N   UNL     1      34.078 -18.168 -22.360  0.00  0.00    -0.343 N 
ATOM     17  N   UNL     1      35.319 -17.549 -20.479  0.00  0.00    -0.285 NA
ATOM     18  C   UNL     1      34.574 -18.454 -21.089  0.00  0.00    +0.117 C 
ATOM     19  H   UNL     1      34.280 -17.304 -22.785  0.00  0.00    +0.144 HD
ATOM     20  H   UNL     1      33.523 -18.831 -22.832  0.00  0.00    +0.144 HD
ATOM     21  H   UNL     1      35.511 -16.690 -20.921  0.00  0.00    +0.188 HD
ENDBRANCH  15  18
ENDBRANCH   9  10
ENDBRANCH   2   9
BRANCH   3  22
ATOM     22  C   UNL     1      33.962 -24.902 -14.345  0.00  0.00    +0.034 C 
BRANCH  22  23
ATOM     23  C   UNL     1      35.463 -24.948 -14.256  0.00  0.00    -0.022 C 
ATOM     24  C   UNL     1      36.170 -25.946 -14.927  0.00  0.00    -0.004 C 
ATOM     25  C   UNL     1      36.147 -23.994 -13.502  0.00  0.00    -0.004 C 
ATOM     26  C   UNL     1      37.562 -25.989 -14.844  0.00  0.00    +0.002 C 
ATOM     27  C   UNL     1      37.538 -24.038 -13.419  0.00  0.00    +0.002 C 
ATOM     28  C   UNL     1      38.246 -25.035 -14.090  0.00  0.00    +0.031 C 
BRANCH  28  31
ATOM     29  N   UNL     1      40.372 -26.279 -13.773  0.00  0.00    -0.343 N 
ATOM     30  N   UNL     1      40.400 -23.972 -14.142  0.00  0.00    -0.285 NA
ATOM     31  C   UNL     1      39.697 -25.081 -14.004  0.00  0.00    +0.117 C 
ATOM     32  H   UNL     1      41.355 -26.287 -13.719  0.00  0.00    +0.144 HD
ATOM     33  H   UNL     1      39.867 -27.116 -13.664  0.00  0.00    +0.144 HD
ATOM     34  H   UNL     1      41.383 -24.000 -14.085  0.00  0.00    +0.188 HD
ENDBRANCH  28  31
ENDBRANCH  22  23
ENDBRANCH   3  22
TORSDOF 6
ENDMDL
