MODEL 1
REMARK VINA RESULT:     -11.6      0.000      0.000
REMARK  Name = 11494412
REMARK  2 active torsions:
REMARK  status: ('A' for Active; 'I' for Inactive)
REMARK    1  A    between atoms: C_4  and  C_10
REMARK    2  A    between atoms: C_5  and  C_22
REMARK                            x       y       z     vdW  Elec       q    Type
REMARK                         _______ _______ _______ _____ _____    ______ ____
ROOT
ATOM      1  O   UNL     1      34.184 -24.693 -10.854  0.00  0.00    -0.274 OA
ATOM      2  O   UNL     1      37.504 -21.604 -11.623  0.00  0.00    -0.274 OA
ATOM      3  N   UNL     1      35.895 -23.127 -10.933  0.00  0.00    -0.255 N 
ATOM      4  C   UNL     1      35.037 -23.858 -12.977  0.00  0.00    +0.113 C 
ATOM      5  C   UNL     1      36.026 -22.694 -13.222  0.00  0.00    +0.113 C 
ATOM      6  C   UNL     1      34.952 -23.968 -11.471  0.00  0.00    +0.233 C 
ATOM      7  C   UNL     1      36.594 -22.387 -11.855  0.00  0.00    +0.233 C 
ATOM      8  H   UNL     1      36.057 -23.060  -9.965  0.00  0.00    +0.158 HD
ENDROOT
BRANCH   4  10
ATOM      9  N   UNL     1      31.512 -23.415 -13.774  0.00  0.00    -0.286 N 
ATOM     10  C   UNL     1      33.703 -23.607 -13.557  0.00  0.00    +0.003 C 
ATOM     11  C   UNL     1      32.054 -23.086 -14.989  0.00  0.00    +0.047 C 
ATOM     12  C   UNL     1      33.429 -23.198 -14.897  0.00  0.00    +0.011 C 
ATOM     13  C   UNL     1      32.497 -23.732 -12.889  0.00  0.00    +0.062 C 
ATOM     14  C   UNL     1      30.071 -23.404 -13.586  0.00  0.00    +0.096 C 
ATOM     15  C   UNL     1      31.346 -22.697 -16.126  0.00  0.00    -0.009 C 
ATOM     16  C   UNL     1      29.381 -22.454 -14.590  0.00  0.00    +0.027 C 
ATOM     17  C   UNL     1      29.847 -22.652 -16.053  0.00  0.00    +0.029 C 
ATOM     18  C   UNL     1      34.185 -22.911 -16.048  0.00  0.00    +0.001 C 
ATOM     19  C   UNL     1      32.112 -22.432 -17.262  0.00  0.00    -0.003 C 
ATOM     20  C   UNL     1      33.508 -22.532 -17.222  0.00  0.00    -0.000 C 
ENDBRANCH   4  10
BRANCH   5  22
ATOM     21  N   UNL     1      38.436 -23.048 -15.942  0.00  0.00    -0.312 N 
ATOM     22  C   UNL     1      37.106 -23.050 -14.166  0.00  0.00    +0.003 C 
ATOM     23  C   UNL     1      38.066 -24.086 -14.002  0.00  0.00    +0.011 C 
ATOM     24  C   UNL     1      37.358 -22.429 -15.367  0.00  0.00    +0.058 C 
ATOM     25  C   UNL     1      38.889 -24.063 -15.131  0.00  0.00    +0.048 C 
ATOM     26  C   UNL     1      38.317 -25.045 -13.000  0.00  0.00    +0.001 C 
ATOM     27  C   UNL     1      39.953 -24.954 -15.308  0.00  0.00    +0.015 C 
ATOM     28  C   UNL     1      39.377 -25.943 -13.163  0.00  0.00    +0.000 C 
ATOM     29  C   UNL     1      40.182 -25.896 -14.301  0.00  0.00    +0.001 C 
ATOM     30  H   UNL     1      38.830 -22.801 -16.810  0.00  0.00    +0.152 HD
ENDBRANCH   5  22
TORSDOF 2
ENDMDL
MODEL 2
REMARK VINA RESULT:     -11.2      9.611     11.878
REMARK  Name = 11494412
REMARK  2 active torsions:
REMARK  status: ('A' for Active; 'I' for Inactive)
REMARK    1  A    between atoms: C_4  and  C_10
REMARK    2  A    between atoms: C_5  and  C_22
REMARK                            x       y       z     vdW  Elec       q    Type
REMARK                         _______ _______ _______ _____ _____    ______ ____
ROOT
ATOM      1  O   UNL     1      34.343 -15.138 -25.361  0.00  0.00    -0.274 OA
ATOM      2  O   UNL     1      33.369 -19.396 -23.920  0.00  0.00    -0.274 OA
ATOM      3  N   UNL     1      33.800 -17.353 -24.934  0.00  0.00    -0.255 N 
ATOM      4  C   UNL     1      34.442 -16.051 -23.106  0.00  0.00    +0.113 C 
ATOM      5  C   UNL     1      33.945 -17.427 -22.606  0.00  0.00    +0.113 C 
ATOM      6  C   UNL     1      34.196 -16.081 -24.598  0.00  0.00    +0.233 C 
ATOM      7  C   UNL     1      33.669 -18.211 -23.869  0.00  0.00    +0.233 C 
ATOM      8  H   UNL     1      33.623 -17.627 -25.862  0.00  0.00    +0.158 HD
ENDROOT
BRANCH   4  10
ATOM      9  N   UNL     1      32.682 -13.665 -20.992  0.00  0.00    -0.286 N 
ATOM     10  C   UNL     1      33.723 -14.922 -22.482  0.00  0.00    +0.003 C 
ATOM     11  C   UNL     1      32.694 -12.953 -22.163  0.00  0.00    +0.047 C 
ATOM     12  C   UNL     1      33.334 -13.709 -23.126  0.00  0.00    +0.011 C 
ATOM     13  C   UNL     1      33.304 -14.864 -21.164  0.00  0.00    +0.062 C 
ATOM     14  C   UNL     1      32.048 -13.116 -19.805  0.00  0.00    +0.096 C 
ATOM     15  C   UNL     1      32.158 -11.679 -22.355  0.00  0.00    -0.009 C 
ATOM     16  C   UNL     1      32.003 -11.573 -19.856  0.00  0.00    +0.027 C 
ATOM     17  C   UNL     1      31.474 -11.010 -21.199  0.00  0.00    +0.029 C 
ATOM     18  C   UNL     1      33.449 -13.161 -24.416  0.00  0.00    +0.001 C 
ATOM     19  C   UNL     1      32.267 -11.159 -23.646  0.00  0.00    -0.003 C 
ATOM     20  C   UNL     1      32.906 -11.886 -24.657  0.00  0.00    -0.000 C 
ENDBRANCH   4  10
BRANCH   5  22
ATOM     21  N   UNL     1      36.867 -18.717 -20.837  0.00  0.00    -0.312 N 
ATOM     22  C   UNL     1      34.941 -18.125 -21.767  0.00  0.00    +0.003 C 
ATOM     23  C   UNL     1      34.686 -19.186 -20.855  0.00  0.00    +0.011 C 
ATOM     24  C   UNL     1      36.290 -17.858 -21.735  0.00  0.00    +0.058 C 
ATOM     25  C   UNL     1      35.912 -19.539 -20.284  0.00  0.00    +0.048 C 
ATOM     26  C   UNL     1      33.528 -19.884 -20.457  0.00  0.00    +0.001 C 
ATOM     27  C   UNL     1      36.037 -20.557 -19.333  0.00  0.00    +0.015 C 
ATOM     28  C   UNL     1      33.637 -20.905 -19.507  0.00  0.00    +0.000 C 
ATOM     29  C   UNL     1      34.874 -21.235 -18.954  0.00  0.00    +0.001 C 
ATOM     30  H   UNL     1      37.827 -18.741 -20.618  0.00  0.00    +0.152 HD
ENDBRANCH   5  22
TORSDOF 2
ENDMDL
MODEL 3
REMARK VINA RESULT:     -11.2      2.702      4.670
REMARK  Name = 11494412
REMARK  2 active torsions:
REMARK  status: ('A' for Active; 'I' for Inactive)
REMARK    1  A    between atoms: C_4  and  C_10
REMARK    2  A    between atoms: C_5  and  C_22
REMARK                            x       y       z     vdW  Elec       q    Type
REMARK                         _______ _______ _______ _____ _____    ______ ____
ROOT
ATOM      1  O   UNL     1      30.312 -23.528 -16.152  0.00  0.00    -0.274 OA
ATOM      2  O   UNL     1      32.680 -22.747 -12.287  0.00  0.00    -0.274 OA
ATOM      3  N   UNL     1      31.229 -23.115 -14.062  0.00  0.00    -0.255 N 
ATOM      4  C   UNL     1      32.723 -23.492 -15.815  0.00  0.00    +0.113 C 
ATOM      5  C   UNL     1      33.509 -23.056 -14.557  0.00  0.00    +0.113 C 
ATOM      6  C   UNL     1      31.271 -23.384 -15.408  0.00  0.00    +0.233 C 
ATOM      7  C   UNL     1      32.460 -22.953 -13.473  0.00  0.00    +0.233 C 
ATOM      8  H   UNL     1      30.386 -23.042 -13.559  0.00  0.00    +0.158 HD
ENDROOT
BRANCH   4  10
ATOM      9  N   UNL     1      32.725 -21.463 -18.838  0.00  0.00    -0.286 N 
ATOM     10  C   UNL     1      33.000 -22.638 -16.987  0.00  0.00    +0.003 C 
ATOM     11  C   UNL     1      34.052 -21.366 -18.509  0.00  0.00    +0.047 C 
ATOM     12  C   UNL     1      34.268 -22.094 -17.354  0.00  0.00    +0.011 C 
ATOM     13  C   UNL     1      32.068 -22.230 -17.926  0.00  0.00    +0.062 C 
ATOM     14  C   UNL     1      32.215 -20.807 -20.031  0.00  0.00    +0.096 C 
ATOM     15  C   UNL     1      35.022 -20.651 -19.210  0.00  0.00    -0.009 C 
ATOM     16  C   UNL     1      33.100 -19.606 -20.432  0.00  0.00    +0.027 C 
ATOM     17  C   UNL     1      34.614 -19.933 -20.464  0.00  0.00    +0.029 C 
ATOM     18  C   UNL     1      35.578 -22.133 -16.843  0.00  0.00    +0.001 C 
ATOM     19  C   UNL     1      36.319 -20.715 -18.698  0.00  0.00    -0.003 C 
ATOM     20  C   UNL     1      36.590 -21.440 -17.531  0.00  0.00    -0.000 C 
ENDBRANCH   4  10
BRANCH   5  22
ATOM     21  N   UNL     1      35.759 -25.883 -14.037  0.00  0.00    -0.312 N 
ATOM     22  C   UNL     1      34.559 -24.022 -14.174  0.00  0.00    +0.003 C 
ATOM     23  C   UNL     1      35.646 -23.785 -13.288  0.00  0.00    +0.011 C 
ATOM     24  C   UNL     1      34.655 -25.320 -14.619  0.00  0.00    +0.058 C 
ATOM     25  C   UNL     1      36.384 -24.970 -13.219  0.00  0.00    +0.048 C 
ATOM     26  C   UNL     1      36.075 -22.675 -12.533  0.00  0.00    +0.001 C 
ATOM     27  C   UNL     1      37.533 -25.099 -12.432  0.00  0.00    +0.015 C 
ATOM     28  C   UNL     1      37.223 -22.789 -11.741  0.00  0.00    +0.000 C 
ATOM     29  C   UNL     1      37.940 -23.984 -11.693  0.00  0.00    +0.001 C 
ATOM     30  H   UNL     1      36.063 -26.809 -14.184  0.00  0.00    +0.152 HD
ENDBRANCH   5  22
TORSDOF 2
ENDMDL
MODEL 4
REMARK VINA RESULT:     -11.2      2.328      3.728
REMARK  Name = 11494412
REMARK  2 active torsions:
REMARK  status: ('A' for Active; 'I' for Inactive)
REMARK    1  A    between atoms: C_4  and  C_10
REMARK    2  A    between atoms: C_5  and  C_22
REMARK                            x       y       z     vdW  Elec       q    Type
REMARK                         _______ _______ _______ _____ _____    ______ ____
ROOT
ATOM      1  O   UNL     1      31.558 -23.321 -14.290  0.00  0.00    -0.274 OA
ATOM      2  O   UNL     1      35.310 -22.999 -11.649  0.00  0.00    -0.274 OA
ATOM      3  N   UNL     1      33.257 -23.076 -12.729  0.00  0.00    -0.255 N 
ATOM      4  C   UNL     1      33.875 -23.810 -14.856  0.00  0.00    +0.113 C 
ATOM      5  C   UNL     1      35.146 -23.531 -14.021  0.00  0.00    +0.113 C 
ATOM      6  C   UNL     1      32.735 -23.376 -13.963  0.00  0.00    +0.233 C 
ATOM      7  C   UNL     1      34.624 -23.177 -12.647  0.00  0.00    +0.233 C 
ATOM      8  H   UNL     1      32.697 -22.809 -11.965  0.00  0.00    +0.158 HD
ENDROOT
BRANCH   4  10
ATOM      9  N   UNL     1      33.182 -22.245 -18.070  0.00  0.00    -0.286 N 
ATOM     10  C   UNL     1      33.853 -23.063 -16.130  0.00  0.00    +0.003 C 
ATOM     11  C   UNL     1      34.441 -21.749 -17.853  0.00  0.00    +0.047 C 
ATOM     12  C   UNL     1      34.901 -22.244 -16.647  0.00  0.00    +0.011 C 
ATOM     13  C   UNL     1      32.805 -23.044 -17.034  0.00  0.00    +0.062 C 
ATOM     14  C   UNL     1      32.458 -21.904 -19.284  0.00  0.00    +0.096 C 
ATOM     15  C   UNL     1      35.142 -20.889 -18.697  0.00  0.00    -0.009 C 
ATOM     16  C   UNL     1      32.954 -20.566 -19.875  0.00  0.00    +0.027 C 
ATOM     17  C   UNL     1      34.496 -20.469 -19.985  0.00  0.00    +0.029 C 
ATOM     18  C   UNL     1      36.190 -21.861 -16.234  0.00  0.00    +0.001 C 
ATOM     19  C   UNL     1      36.426 -20.534 -18.279  0.00  0.00    -0.003 C 
ATOM     20  C   UNL     1      36.938 -21.008 -17.065  0.00  0.00    -0.000 C 
ENDBRANCH   4  10
BRANCH   5  22
ATOM     21  N   UNL     1      36.805 -26.763 -13.659  0.00  0.00    -0.312 N 
ATOM     22  C   UNL     1      36.052 -24.696 -13.949  0.00  0.00    +0.003 C 
ATOM     23  C   UNL     1      37.449 -24.701 -14.215  0.00  0.00    +0.011 C 
ATOM     24  C   UNL     1      35.684 -25.977 -13.611  0.00  0.00    +0.058 C 
ATOM     25  C   UNL     1      37.897 -26.011 -14.025  0.00  0.00    +0.048 C 
ATOM     26  C   UNL     1      38.380 -23.715 -14.599  0.00  0.00    +0.001 C 
ATOM     27  C   UNL     1      39.234 -26.384 -14.202  0.00  0.00    +0.015 C 
ATOM     28  C   UNL     1      39.720 -24.074 -14.778  0.00  0.00    +0.000 C 
ATOM     29  C   UNL     1      40.139 -25.389 -14.583  0.00  0.00    +0.001 C 
ATOM     30  H   UNL     1      36.825 -27.728 -13.462  0.00  0.00    +0.152 HD
ENDBRANCH   5  22
TORSDOF 2
ENDMDL
MODEL 5
REMARK VINA RESULT:     -10.7      2.370      6.407
REMARK  Name = 11494412
REMARK  2 active torsions:
REMARK  status: ('A' for Active; 'I' for Inactive)
REMARK    1  A    between atoms: C_4  and  C_10
REMARK    2  A    between atoms: C_5  and  C_22
REMARK                            x       y       z     vdW  Elec       q    Type
REMARK                         _______ _______ _______ _____ _____    ______ ____
ROOT
ATOM      1  O   UNL     1      32.651 -22.808 -12.275  0.00  0.00    -0.274 OA
ATOM      2  O   UNL     1      30.081 -23.908 -15.928  0.00  0.00    -0.274 OA
ATOM      3  N   UNL     1      31.117 -23.384 -13.918  0.00  0.00    -0.255 N 
ATOM      4  C   UNL     1      33.296 -22.931 -14.620  0.00  0.00    +0.113 C 
ATOM      5  C   UNL     1      32.475 -23.472 -15.814  0.00  0.00    +0.113 C 
ATOM      6  C   UNL     1      32.355 -23.027 -13.441  0.00  0.00    +0.233 C 
ATOM      7  C   UNL     1      31.072 -23.617 -15.271  0.00  0.00    +0.233 C 
ATOM      8  H   UNL     1      30.327 -23.467 -13.338  0.00  0.00    +0.158 HD
ENDROOT
BRANCH   4  10
ATOM      9  N   UNL     1      36.079 -25.277 -14.510  0.00  0.00    -0.286 N 
ATOM     10  C   UNL     1      34.524 -23.713 -14.371  0.00  0.00    +0.003 C 
ATOM     11  C   UNL     1      36.486 -24.410 -13.530  0.00  0.00    +0.047 C 
ATOM     12  C   UNL     1      35.534 -23.414 -13.407  0.00  0.00    +0.011 C 
ATOM     13  C   UNL     1      34.891 -24.871 -15.035  0.00  0.00    +0.062 C 
ATOM     14  C   UNL     1      36.884 -26.441 -14.839  0.00  0.00    +0.096 C 
ATOM     15  C   UNL     1      37.661 -24.505 -12.784  0.00  0.00    -0.009 C 
ATOM     16  C   UNL     1      38.367 -26.222 -14.467  0.00  0.00    +0.027 C 
ATOM     17  C   UNL     1      38.573 -25.670 -13.034  0.00  0.00    +0.029 C 
ATOM     18  C   UNL     1      35.755 -22.416 -12.442  0.00  0.00    +0.001 C 
ATOM     19  C   UNL     1      37.854 -23.514 -11.820  0.00  0.00    -0.003 C 
ATOM     20  C   UNL     1      36.920 -22.484 -11.656  0.00  0.00    -0.000 C 
ENDBRANCH   4  10
BRANCH   5  22
ATOM     21  N   UNL     1      31.814 -21.260 -18.642  0.00  0.00    -0.312 N 
ATOM     22  C   UNL     1      32.491 -22.562 -16.978  0.00  0.00    +0.003 C 
ATOM     23  C   UNL     1      33.642 -22.046 -17.635  0.00  0.00    +0.011 C 
ATOM     24  C   UNL     1      31.382 -22.060 -17.618  0.00  0.00    +0.058 C 
ATOM     25  C   UNL     1      33.189 -21.232 -18.676  0.00  0.00    +0.048 C 
ATOM     26  C   UNL     1      35.031 -22.194 -17.445  0.00  0.00    +0.001 C 
ATOM     27  C   UNL     1      34.059 -20.557 -19.539  0.00  0.00    +0.015 C 
ATOM     28  C   UNL     1      35.912 -21.525 -18.301  0.00  0.00    +0.000 C 
ATOM     29  C   UNL     1      35.432 -20.719 -19.332  0.00  0.00    +0.001 C 
ATOM     30  H   UNL     1      31.225 -20.773 -19.264  0.00  0.00    +0.152 HD
ENDBRANCH   5  22
TORSDOF 2
ENDMDL
MODEL 6
REMARK VINA RESULT:     -10.1     13.843     16.142
REMARK  Name = 11494412
REMARK  2 active torsions:
REMARK  status: ('A' for Active; 'I' for Inactive)
REMARK    1  A    between atoms: C_4  and  C_10
REMARK    2  A    between atoms: C_5  and  C_22
REMARK                            x       y       z     vdW  Elec       q    Type
REMARK                         _______ _______ _______ _____ _____    ______ ____
ROOT
ATOM      1  O   UNL     1      30.190 -10.234 -21.035  0.00  0.00    -0.274 OA
ATOM      2  O   UNL     1      33.195 -13.653 -20.377  0.00  0.00    -0.274 OA
ATOM      3  N   UNL     1      31.575 -11.992 -20.422  0.00  0.00    -0.255 N 
ATOM      4  C   UNL     1      31.846 -11.134 -22.576  0.00  0.00    +0.113 C 
ATOM      5  C   UNL     1      32.968 -12.160 -22.288  0.00  0.00    +0.113 C 
ATOM      6  C   UNL     1      31.087 -11.030 -21.273  0.00  0.00    +0.233 C 
ATOM      7  C   UNL     1      32.623 -12.722 -20.927  0.00  0.00    +0.233 C 
ATOM      8  H   UNL     1      31.204 -12.145 -19.524  0.00  0.00    +0.158 HD
ENDROOT
BRANCH   4  10
ATOM      9  N   UNL     1      33.759  -8.201 -23.573  0.00  0.00    -0.286 N 
ATOM     10  C   UNL     1      32.370  -9.814 -22.981  0.00  0.00    +0.003 C 
ATOM     11  C   UNL     1      32.506  -7.646 -23.549  0.00  0.00    +0.047 C 
ATOM     12  C   UNL     1      31.604  -8.626 -23.176  0.00  0.00    +0.011 C 
ATOM     13  C   UNL     1      33.698  -9.518 -23.234  0.00  0.00    +0.062 C 
ATOM     14  C   UNL     1      34.915  -7.388 -23.914  0.00  0.00    +0.096 C 
ATOM     15  C   UNL     1      32.187  -6.323 -23.852  0.00  0.00    -0.009 C 
ATOM     16  C   UNL     1      34.511  -6.173 -24.779  0.00  0.00    +0.027 C 
ATOM     17  C   UNL     1      33.301  -5.385 -24.217  0.00  0.00    +0.029 C 
ATOM     18  C   UNL     1      30.249  -8.262 -23.081  0.00  0.00    +0.001 C 
ATOM     19  C   UNL     1      30.840  -5.977 -23.735  0.00  0.00    -0.003 C 
ATOM     20  C   UNL     1      29.887  -6.932 -23.361  0.00  0.00    -0.000 C 
ENDBRANCH   4  10
BRANCH   5  22
ATOM     21  N   UNL     1      32.787 -14.365 -25.191  0.00  0.00    -0.312 N 
ATOM     22  C   UNL     1      33.030 -13.238 -23.296  0.00  0.00    +0.003 C 
ATOM     23  C   UNL     1      33.609 -14.526 -23.123  0.00  0.00    +0.011 C 
ATOM     24  C   UNL     1      32.533 -13.168 -24.576  0.00  0.00    +0.058 C 
ATOM     25  C   UNL     1      33.443 -15.214 -24.329  0.00  0.00    +0.048 C 
ATOM     26  C   UNL     1      34.260 -15.176 -22.056  0.00  0.00    +0.001 C 
ATOM     27  C   UNL     1      33.897 -16.523 -24.519  0.00  0.00    +0.015 C 
ATOM     28  C   UNL     1      34.719 -16.486 -22.232  0.00  0.00    +0.000 C 
ATOM     29  C   UNL     1      34.540 -17.147 -23.446  0.00  0.00    +0.001 C 
ATOM     30  H   UNL     1      32.537 -14.586 -26.118  0.00  0.00    +0.152 HD
ENDBRANCH   5  22
TORSDOF 2
ENDMDL
MODEL 7
REMARK VINA RESULT:     -10.1      2.595      6.246
REMARK  Name = 11494412
REMARK  2 active torsions:
REMARK  status: ('A' for Active; 'I' for Inactive)
REMARK    1  A    between atoms: C_4  and  C_10
REMARK    2  A    between atoms: C_5  and  C_22
REMARK                            x       y       z     vdW  Elec       q    Type
REMARK                         _______ _______ _______ _____ _____    ______ ____
ROOT
ATOM      1  O   UNL     1      38.323 -22.694 -15.595  0.00  0.00    -0.274 OA
ATOM      2  O   UNL     1      35.304 -26.040 -14.675  0.00  0.00    -0.274 OA
ATOM      3  N   UNL     1      37.048 -24.567 -15.095  0.00  0.00    -0.255 N 
ATOM      4  C   UNL     1      35.896 -22.567 -15.443  0.00  0.00    +0.113 C 
ATOM      5  C   UNL     1      34.882 -23.727 -15.310  0.00  0.00    +0.113 C 
ATOM      6  C   UNL     1      37.248 -23.243 -15.402  0.00  0.00    +0.233 C 
ATOM      7  C   UNL     1      35.730 -24.934 -14.978  0.00  0.00    +0.233 C 
ATOM      8  H   UNL     1      37.789 -25.202 -14.971  0.00  0.00    +0.158 HD
ENDROOT
BRANCH   4  10
ATOM      9  N   UNL     1      36.134 -20.449 -18.396  0.00  0.00    -0.286 N 
ATOM     10  C   UNL     1      35.732 -21.806 -16.698  0.00  0.00    +0.003 C 
ATOM     11  C   UNL     1      34.881 -20.966 -18.598  0.00  0.00    +0.047 C 
ATOM     12  C   UNL     1      34.588 -21.820 -17.551  0.00  0.00    +0.011 C 
ATOM     13  C   UNL     1      36.670 -20.948 -17.248  0.00  0.00    +0.062 C 
ATOM     14  C   UNL     1      36.695 -19.497 -19.339  0.00  0.00    +0.096 C 
ATOM     15  C   UNL     1      34.041 -20.688 -19.676  0.00  0.00    -0.009 C 
ATOM     16  C   UNL     1      36.060 -19.652 -20.739  0.00  0.00    +0.027 C 
ATOM     17  C   UNL     1      34.513 -19.713 -20.716  0.00  0.00    +0.029 C 
ATOM     18  C   UNL     1      33.334 -22.457 -17.559  0.00  0.00    +0.001 C 
ATOM     19  C   UNL     1      32.794 -21.316 -19.658  0.00  0.00    -0.003 C 
ATOM     20  C   UNL     1      32.449 -22.189 -18.620  0.00  0.00    -0.000 C 
ENDBRANCH   4  10
BRANCH   5  22
ATOM     21  N   UNL     1      32.957 -23.099 -12.272  0.00  0.00    -0.312 N 
ATOM     22  C   UNL     1      33.877 -23.490 -14.253  0.00  0.00    +0.003 C 
ATOM     23  C   UNL     1      32.466 -23.440 -14.421  0.00  0.00    +0.011 C 
ATOM     24  C   UNL     1      34.150 -23.276 -12.922  0.00  0.00    +0.058 C 
ATOM     25  C   UNL     1      31.912 -23.193 -13.162  0.00  0.00    +0.048 C 
ATOM     26  C   UNL     1      31.602 -23.581 -15.525  0.00  0.00    +0.001 C 
ATOM     27  C   UNL     1      30.534 -23.081 -12.952  0.00  0.00    +0.015 C 
ATOM     28  C   UNL     1      30.221 -23.472 -15.331  0.00  0.00    +0.000 C 
ATOM     29  C   UNL     1      29.696 -23.225 -14.063  0.00  0.00    +0.001 C 
ATOM     30  H   UNL     1      32.862 -22.927 -11.306  0.00  0.00    +0.152 HD
ENDBRANCH   5  22
TORSDOF 2
ENDMDL
MODEL 8
REMARK VINA RESULT:     -10.0     17.806     20.159
REMARK  Name = 11494412
REMARK  2 active torsions:
REMARK  status: ('A' for Active; 'I' for Inactive)
REMARK    1  A    between atoms: C_4  and  C_10
REMARK    2  A    between atoms: C_5  and  C_22
REMARK                            x       y       z     vdW  Elec       q    Type
REMARK                         _______ _______ _______ _____ _____    ______ ____
ROOT
ATOM      1  O   UNL     1      32.290  -5.738 -19.389  0.00  0.00    -0.274 OA
ATOM      2  O   UNL     1      29.366  -3.277 -21.949  0.00  0.00    -0.274 OA
ATOM      3  N   UNL     1      30.710  -4.381 -20.411  0.00  0.00    -0.255 N 
ATOM      4  C   UNL     1      32.096  -5.630 -21.814  0.00  0.00    +0.113 C 
ATOM      5  C   UNL     1      30.999  -4.940 -22.659  0.00  0.00    +0.113 C 
ATOM      6  C   UNL     1      31.740  -5.289 -20.384  0.00  0.00    +0.233 C 
ATOM      7  C   UNL     1      30.245  -4.081 -21.668  0.00  0.00    +0.233 C 
ATOM      8  H   UNL     1      30.335  -3.978 -19.596  0.00  0.00    +0.158 HD
ENDROOT
BRANCH   4  10
ATOM      9  N   UNL     1      31.617  -9.239 -21.877  0.00  0.00    -0.286 N 
ATOM     10  C   UNL     1      32.130  -7.093 -22.008  0.00  0.00    +0.003 C 
ATOM     11  C   UNL     1      32.725  -9.152 -22.678  0.00  0.00    +0.047 C 
ATOM     12  C   UNL     1      33.084  -7.821 -22.782  0.00  0.00    +0.011 C 
ATOM     13  C   UNL     1      31.237  -7.999 -21.461  0.00  0.00    +0.062 C 
ATOM     14  C   UNL     1      31.030 -10.534 -21.575  0.00  0.00    +0.096 C 
ATOM     15  C   UNL     1      33.382 -10.219 -23.291  0.00  0.00    -0.009 C 
ATOM     16  C   UNL     1      31.367 -11.571 -22.668  0.00  0.00    +0.027 C 
ATOM     17  C   UNL     1      32.867 -11.608 -23.050  0.00  0.00    +0.029 C 
ATOM     18  C   UNL     1      34.212  -7.508 -23.560  0.00  0.00    +0.001 C 
ATOM     19  C   UNL     1      34.509  -9.890 -24.046  0.00  0.00    -0.003 C 
ATOM     20  C   UNL     1      34.914  -8.556 -24.182  0.00  0.00    -0.000 C 
ENDBRANCH   4  10
BRANCH   5  22
ATOM     21  N   UNL     1      32.273  -2.360 -24.906  0.00  0.00    -0.312 N 
ATOM     22  C   UNL     1      31.553  -4.112 -23.749  0.00  0.00    +0.003 C 
ATOM     23  C   UNL     1      31.986  -4.570 -25.024  0.00  0.00    +0.011 C 
ATOM     24  C   UNL     1      31.742  -2.750 -23.705  0.00  0.00    +0.058 C 
ATOM     25  C   UNL     1      32.433  -3.450 -25.731  0.00  0.00    +0.048 C 
ATOM     26  C   UNL     1      32.042  -5.831 -25.649  0.00  0.00    +0.001 C 
ATOM     27  C   UNL     1      32.934  -3.530 -27.035  0.00  0.00    +0.015 C 
ATOM     28  C   UNL     1      32.540  -5.927 -26.953  0.00  0.00    +0.000 C 
ATOM     29  C   UNL     1      32.979  -4.793 -27.634  0.00  0.00    +0.001 C 
ATOM     30  H   UNL     1      32.507  -1.433 -25.144  0.00  0.00    +0.152 HD
ENDBRANCH   5  22
TORSDOF 2
ENDMDL
MODEL 9
REMARK VINA RESULT:      -9.7      3.125      6.782
REMARK  Name = 11494412
REMARK  2 active torsions:
REMARK  status: ('A' for Active; 'I' for Inactive)
REMARK    1  A    between atoms: C_4  and  C_10
REMARK    2  A    between atoms: C_5  and  C_22
REMARK                            x       y       z     vdW  Elec       q    Type
REMARK                         _______ _______ _______ _____ _____    ______ ____
ROOT
ATOM      1  O   UNL     1      32.068 -22.778 -14.540  0.00  0.00    -0.274 OA
ATOM      2  O   UNL     1      32.937 -23.843 -18.929  0.00  0.00    -0.274 OA
ATOM      3  N   UNL     1      32.216 -23.429 -16.762  0.00  0.00    -0.255 N 
ATOM      4  C   UNL     1      34.067 -22.332 -15.857  0.00  0.00    +0.113 C 
ATOM      5  C   UNL     1      34.418 -22.848 -17.272  0.00  0.00    +0.113 C 
ATOM      6  C   UNL     1      32.674 -22.861 -15.598  0.00  0.00    +0.233 C 
ATOM      7  C   UNL     1      33.124 -23.431 -17.793  0.00  0.00    +0.233 C 
ATOM      8  H   UNL     1      31.311 -23.805 -16.850  0.00  0.00    +0.158 HD
ENDROOT
BRANCH   4  10
ATOM      9  N   UNL     1      36.354 -22.858 -13.073  0.00  0.00    -0.286 N 
ATOM     10  C   UNL     1      35.006 -22.812 -14.824  0.00  0.00    +0.003 C 
ATOM     11  C   UNL     1      36.360 -24.122 -13.602  0.00  0.00    +0.047 C 
ATOM     12  C   UNL     1      35.530 -24.135 -14.707  0.00  0.00    +0.011 C 
ATOM     13  C   UNL     1      35.536 -22.047 -13.798  0.00  0.00    +0.062 C 
ATOM     14  C   UNL     1      37.163 -22.547 -11.906  0.00  0.00    +0.096 C 
ATOM     15  C   UNL     1      37.075 -25.215 -13.112  0.00  0.00    -0.009 C 
ATOM     16  C   UNL     1      37.450 -23.814 -11.069  0.00  0.00    +0.027 C 
ATOM     17  C   UNL     1      37.950 -25.014 -11.910  0.00  0.00    +0.029 C 
ATOM     18  C   UNL     1      35.399 -25.346 -15.411  0.00  0.00    +0.001 C 
ATOM     19  C   UNL     1      36.945 -26.403 -13.833  0.00  0.00    -0.003 C 
ATOM     20  C   UNL     1      36.117 -26.468 -14.960  0.00  0.00    -0.000 C 
ENDBRANCH   4  10
BRANCH   5  22
ATOM     21  N   UNL     1      36.240 -20.326 -19.182  0.00  0.00    -0.312 N 
ATOM     22  C   UNL     1      34.904 -21.777 -18.167  0.00  0.00    +0.003 C 
ATOM     23  C   UNL     1      34.129 -21.042 -19.106  0.00  0.00    +0.011 C 
ATOM     24  C   UNL     1      36.197 -21.316 -18.236  0.00  0.00    +0.058 C 
ATOM     25  C   UNL     1      34.992 -20.138 -19.730  0.00  0.00    +0.048 C 
ATOM     26  C   UNL     1      32.772 -21.057 -19.487  0.00  0.00    +0.001 C 
ATOM     27  C   UNL     1      34.564 -19.245 -20.718  0.00  0.00    +0.015 C 
ATOM     28  C   UNL     1      32.330 -20.170 -20.474  0.00  0.00    +0.000 C 
ATOM     29  C   UNL     1      33.214 -19.279 -21.080  0.00  0.00    +0.001 C 
ATOM     30  H   UNL     1      37.049 -19.823 -19.434  0.00  0.00    +0.152 HD
ENDBRANCH   5  22
TORSDOF 2
ENDMDL
