MODEL 1
REMARK VINA RESULT:     -11.6      0.000      0.000
REMARK  Name = 24836811
REMARK  4 active torsions:
REMARK  status: ('A' for Active; 'I' for Inactive)
REMARK    1  A    between atoms: C_9  and  C_12
REMARK    2  A    between atoms: C_11  and  C_19
REMARK    3  A    between atoms: C_21  and  C_25
REMARK    4  A    between atoms: N_24  and  O_27
REMARK                            x       y       z     vdW  Elec       q    Type
REMARK                         _______ _______ _______ _____ _____    ______ ____
ROOT
ATOM      1  O   UNL     1      37.476 -21.642 -16.289  0.00  0.00    -0.269 OA
ATOM      2  N   UNL     1      34.287 -20.405 -19.670  0.00  0.00    -0.271 N 
ATOM      3  N   UNL     1      35.614 -21.831 -17.691  0.00  0.00    -0.267 N 
ATOM      4  N   UNL     1      32.281 -21.224 -19.229  0.00  0.00    -0.230 NA
ATOM      5  C   UNL     1      35.718 -20.220 -19.541  0.00  0.00    +0.118 C 
ATOM      6  C   UNL     1      36.357 -21.444 -18.896  0.00  0.00    +0.116 C 
ATOM      7  C   UNL     1      34.189 -22.164 -17.884  0.00  0.00    +0.155 C 
ATOM      8  C   UNL     1      33.557 -21.281 -18.906  0.00  0.00    +0.133 C 
ATOM      9  C   UNL     1      33.442 -19.758 -20.516  0.00  0.00    +0.072 C 
ATOM     10  C   UNL     1      32.203 -20.281 -20.225  0.00  0.00    +0.115 C 
ATOM     11  C   UNL     1      36.290 -21.915 -16.469  0.00  0.00    +0.255 C 
ENDROOT
BRANCH   9  12
ATOM     12  C   UNL     1      33.833 -18.766 -21.488  0.00  0.00    +0.015 C 
ATOM     13  C   UNL     1      33.593 -18.987 -22.844  0.00  0.00    +0.001 C 
ATOM     14  C   UNL     1      34.451 -17.587 -21.072  0.00  0.00    +0.001 C 
ATOM     15  C   UNL     1      33.972 -18.028 -23.784  0.00  0.00    +0.000 C 
ATOM     16  C   UNL     1      34.829 -16.628 -22.012  0.00  0.00    +0.000 C 
ATOM     17  C   UNL     1      34.590 -16.849 -23.369  0.00  0.00    +0.000 C 
ENDBRANCH   9  12
BRANCH  11  19
ATOM     18  S   UNL     1      36.397 -22.835 -13.882  0.00  0.00    -0.078 S 
ATOM     19  C   UNL     1      35.539 -22.372 -15.289  0.00  0.00    +0.083 C 
ATOM     20  C   UNL     1      34.177 -22.492 -15.128  0.00  0.00    +0.012 C 
ATOM     21  C   UNL     1      34.944 -23.200 -13.052  0.00  0.00    +0.085 C 
ATOM     22  C   UNL     1      33.831 -22.971 -13.831  0.00  0.00    +0.012 C 
BRANCH  21  25
ATOM     23  O   UNL     1      34.228 -24.559 -11.276  0.00  0.00    -0.268 OA
ATOM     24  N   UNL     1      35.976 -23.117 -10.858  0.00  0.00    -0.193 N 
ATOM     25  C   UNL     1      35.012 -23.674 -11.707  0.00  0.00    +0.274 C 
ATOM     26  H   UNL     1      36.596 -22.423 -11.181  0.00  0.00    +0.183 HD
BRANCH  24  27
ATOM     27  O   UNL     1      36.028 -23.578  -9.535  0.00  0.00    -0.295 OA
ATOM     28  H   UNL     1      35.942 -24.544  -9.526  0.00  0.00    +0.241 HD
ENDBRANCH  24  27
ENDBRANCH  21  25
ENDBRANCH  11  19
TORSDOF 4
ENDMDL
MODEL 2
REMARK VINA RESULT:     -10.9      8.622     11.815
REMARK  Name = 24836811
REMARK  4 active torsions:
REMARK  status: ('A' for Active; 'I' for Inactive)
REMARK    1  A    between atoms: C_9  and  C_12
REMARK    2  A    between atoms: C_11  and  C_19
REMARK    3  A    between atoms: C_21  and  C_25
REMARK    4  A    between atoms: N_24  and  O_27
REMARK                            x       y       z     vdW  Elec       q    Type
REMARK                         _______ _______ _______ _____ _____    ______ ____
ROOT
ATOM      1  O   UNL     1      33.551 -12.683 -24.394  0.00  0.00    -0.269 OA
ATOM      2  N   UNL     1      31.626  -9.444 -21.405  0.00  0.00    -0.271 N 
ATOM      3  N   UNL     1      32.221 -11.848 -22.661  0.00  0.00    -0.267 N 
ATOM      4  N   UNL     1      31.190 -10.328 -19.425  0.00  0.00    -0.230 NA
ATOM      5  C   UNL     1      31.987  -9.408 -22.807  0.00  0.00    +0.118 C 
ATOM      6  C   UNL     1      31.684 -10.747 -23.469  0.00  0.00    +0.116 C 
ATOM      7  C   UNL     1      31.714 -11.948 -21.279  0.00  0.00    +0.155 C 
ATOM      8  C   UNL     1      31.511 -10.600 -20.674  0.00  0.00    +0.133 C 
ATOM      9  C   UNL     1      31.369  -8.387 -20.589  0.00  0.00    +0.072 C 
ATOM     10  C   UNL     1      31.102  -8.958 -19.366  0.00  0.00    +0.115 C 
ATOM     11  C   UNL     1      33.118 -12.750 -23.245  0.00  0.00    +0.255 C 
ENDROOT
BRANCH   9  12
ATOM     12  C   UNL     1      31.379  -7.002 -20.992  0.00  0.00    +0.015 C 
ATOM     13  C   UNL     1      30.721  -6.612 -22.159  0.00  0.00    +0.001 C 
ATOM     14  C   UNL     1      32.044  -6.053 -20.216  0.00  0.00    +0.001 C 
ATOM     15  C   UNL     1      30.731  -5.273 -22.549  0.00  0.00    +0.000 C 
ATOM     16  C   UNL     1      32.052  -4.714 -20.606  0.00  0.00    +0.000 C 
ATOM     17  C   UNL     1      31.396  -4.323 -21.774  0.00  0.00    +0.000 C 
ENDBRANCH   9  12
BRANCH  11  19
ATOM     18  S   UNL     1      34.220 -15.267 -23.222  0.00  0.00    -0.078 S 
ATOM     19  C   UNL     1      33.589 -13.885 -22.435  0.00  0.00    +0.083 C 
ATOM     20  C   UNL     1      33.602 -14.018 -21.064  0.00  0.00    +0.012 C 
ATOM     21  C   UNL     1      34.514 -16.050 -21.728  0.00  0.00    +0.085 C 
ATOM     22  C   UNL     1      34.139 -15.273 -20.654  0.00  0.00    +0.012 C 
BRANCH  21  25
ATOM     23  O   UNL     1      35.082 -18.082 -22.757  0.00  0.00    -0.268 OA
ATOM     24  N   UNL     1      35.662 -17.827 -20.541  0.00  0.00    -0.193 N 
ATOM     25  C   UNL     1      35.090 -17.356 -21.729  0.00  0.00    +0.274 C 
ATOM     26  H   UNL     1      35.676 -17.271 -19.729  0.00  0.00    +0.183 HD
BRANCH  24  27
ATOM     27  O   UNL     1      36.213 -19.116 -20.547  0.00  0.00    -0.295 OA
ATOM     28  H   UNL     1      35.868 -19.612 -21.307  0.00  0.00    +0.241 HD
ENDBRANCH  24  27
ENDBRANCH  21  25
ENDBRANCH  11  19
TORSDOF 4
ENDMDL
MODEL 3
REMARK VINA RESULT:     -10.8     10.834     14.788
REMARK  Name = 24836811
REMARK  4 active torsions:
REMARK  status: ('A' for Active; 'I' for Inactive)
REMARK    1  A    between atoms: C_9  and  C_12
REMARK    2  A    between atoms: C_11  and  C_19
REMARK    3  A    between atoms: C_21  and  C_25
REMARK    4  A    between atoms: N_24  and  O_27
REMARK                            x       y       z     vdW  Elec       q    Type
REMARK                         _______ _______ _______ _____ _____    ______ ____
ROOT
ATOM      1  O   UNL     1      31.322  -8.515 -19.534  0.00  0.00    -0.269 OA
ATOM      2  N   UNL     1      32.723 -12.138 -22.369  0.00  0.00    -0.271 N 
ATOM      3  N   UNL     1      31.513  -9.804 -21.476  0.00  0.00    -0.267 N 
ATOM      4  N   UNL     1      32.954 -11.481 -24.468  0.00  0.00    -0.230 NA
ATOM      5  C   UNL     1      32.340 -12.062 -20.975  0.00  0.00    +0.118 C 
ATOM      6  C   UNL     1      31.202 -11.064 -20.789  0.00  0.00    +0.116 C 
ATOM      7  C   UNL     1      31.747  -9.896 -22.929  0.00  0.00    +0.155 C 
ATOM      8  C   UNL     1      32.478 -11.147 -23.286  0.00  0.00    +0.133 C 
ATOM      9  C   UNL     1      33.386 -13.150 -22.991  0.00  0.00    +0.072 C 
ATOM     10  C   UNL     1      33.518 -12.721 -24.292  0.00  0.00    +0.115 C 
ATOM     11  C   UNL     1      31.515  -8.611 -20.745  0.00  0.00    +0.255 C 
ENDROOT
BRANCH   9  12
ATOM     12  C   UNL     1      33.810 -14.378 -22.364  0.00  0.00    +0.015 C 
ATOM     13  C   UNL     1      34.241 -15.448 -23.148  0.00  0.00    +0.001 C 
ATOM     14  C   UNL     1      33.790 -14.496 -20.974  0.00  0.00    +0.001 C 
ATOM     15  C   UNL     1      34.650 -16.636 -22.542  0.00  0.00    +0.000 C 
ATOM     16  C   UNL     1      34.200 -15.683 -20.368  0.00  0.00    +0.000 C 
ATOM     17  C   UNL     1      34.630 -16.754 -21.153  0.00  0.00    +0.000 C 
ENDBRANCH   9  12
BRANCH  11  19
ATOM     18  S   UNL     1      30.549  -6.735 -22.505  0.00  0.00    -0.078 S 
ATOM     19  C   UNL     1      31.761  -7.353 -21.467  0.00  0.00    +0.083 C 
ATOM     20  C   UNL     1      32.879  -6.548 -21.439  0.00  0.00    +0.012 C 
ATOM     21  C   UNL     1      31.517  -5.386 -22.922  0.00  0.00    +0.085 C 
ATOM     22  C   UNL     1      32.737  -5.407 -22.282  0.00  0.00    +0.012 C 
BRANCH  21  25
ATOM     23  O   UNL     1      31.255  -4.469 -25.067  0.00  0.00    -0.268 OA
ATOM     24  N   UNL     1      30.211  -3.382 -23.323  0.00  0.00    -0.193 N 
ATOM     25  C   UNL     1      31.003  -4.417 -23.835  0.00  0.00    +0.274 C 
ATOM     26  H   UNL     1      30.006  -3.327 -22.361  0.00  0.00    +0.183 HD
BRANCH  24  27
ATOM     27  O   UNL     1      29.721  -2.426 -24.224  0.00  0.00    -0.295 OA
ATOM     28  H   UNL     1      29.034  -2.828 -24.780  0.00  0.00    +0.241 HD
ENDBRANCH  24  27
ENDBRANCH  21  25
ENDBRANCH  11  19
TORSDOF 4
ENDMDL
MODEL 4
REMARK VINA RESULT:     -10.5      1.956      2.291
REMARK  Name = 24836811
REMARK  4 active torsions:
REMARK  status: ('A' for Active; 'I' for Inactive)
REMARK    1  A    between atoms: C_9  and  C_12
REMARK    2  A    between atoms: C_11  and  C_19
REMARK    3  A    between atoms: C_21  and  C_25
REMARK    4  A    between atoms: N_24  and  O_27
REMARK                            x       y       z     vdW  Elec       q    Type
REMARK                         _______ _______ _______ _____ _____    ______ ____
ROOT
ATOM      1  O   UNL     1      37.065 -21.807 -15.914  0.00  0.00    -0.269 OA
ATOM      2  N   UNL     1      34.191 -20.528 -19.553  0.00  0.00    -0.271 N 
ATOM      3  N   UNL     1      35.351 -21.989 -17.495  0.00  0.00    -0.267 N 
ATOM      4  N   UNL     1      32.170 -21.397 -19.331  0.00  0.00    -0.230 NA
ATOM      5  C   UNL     1      35.598 -20.321 -19.280  0.00  0.00    +0.118 C 
ATOM      6  C   UNL     1      36.199 -21.551 -18.611  0.00  0.00    +0.116 C 
ATOM      7  C   UNL     1      33.960 -22.342 -17.835  0.00  0.00    +0.155 C 
ATOM      8  C   UNL     1      33.410 -21.440 -18.889  0.00  0.00    +0.133 C 
ATOM      9  C   UNL     1      33.418 -19.872 -20.459  0.00  0.00    +0.072 C 
ATOM     10  C   UNL     1      32.168 -20.427 -20.304  0.00  0.00    +0.115 C 
ATOM     11  C   UNL     1      35.908 -22.096 -16.216  0.00  0.00    +0.255 C 
ENDROOT
BRANCH   9  12
ATOM     12  C   UNL     1      33.880 -18.844 -21.359  0.00  0.00    +0.015 C 
ATOM     13  C   UNL     1      33.702 -18.992 -22.735  0.00  0.00    +0.001 C 
ATOM     14  C   UNL     1      34.503 -17.703 -20.856  0.00  0.00    +0.001 C 
ATOM     15  C   UNL     1      34.149 -17.999 -23.606  0.00  0.00    +0.000 C 
ATOM     16  C   UNL     1      34.949 -16.709 -21.727  0.00  0.00    +0.000 C 
ATOM     17  C   UNL     1      34.773 -16.858 -23.103  0.00  0.00    +0.000 C 
ENDBRANCH   9  12
BRANCH  11  19
ATOM     18  S   UNL     1      33.358 -22.610 -15.331  0.00  0.00    -0.078 S 
ATOM     19  C   UNL     1      35.057 -22.602 -15.128  0.00  0.00    +0.083 C 
ATOM     20  C   UNL     1      35.434 -23.100 -13.899  0.00  0.00    +0.012 C 
ATOM     21  C   UNL     1      33.120 -23.279 -13.773  0.00  0.00    +0.085 C 
ATOM     22  C   UNL     1      34.311 -23.492 -13.114  0.00  0.00    +0.012 C 
BRANCH  21  25
ATOM     23  O   UNL     1      31.166 -22.737 -12.588  0.00  0.00    -0.268 OA
ATOM     24  N   UNL     1      31.189 -24.746 -13.718  0.00  0.00    -0.193 N 
ATOM     25  C   UNL     1      31.791 -23.544 -13.326  0.00  0.00    +0.274 C 
ATOM     26  H   UNL     1      31.664 -25.387 -14.295  0.00  0.00    +0.183 HD
BRANCH  24  27
ATOM     27  O   UNL     1      29.888 -25.005 -13.264  0.00  0.00    -0.295 OA
ATOM     28  H   UNL     1      29.582 -25.852 -13.624  0.00  0.00    +0.241 HD
ENDBRANCH  24  27
ENDBRANCH  21  25
ENDBRANCH  11  19
TORSDOF 4
ENDMDL
MODEL 5
REMARK VINA RESULT:     -10.0      9.491     13.307
REMARK  Name = 24836811
REMARK  4 active torsions:
REMARK  status: ('A' for Active; 'I' for Inactive)
REMARK    1  A    between atoms: C_9  and  C_12
REMARK    2  A    between atoms: C_11  and  C_19
REMARK    3  A    between atoms: C_21  and  C_25
REMARK    4  A    between atoms: N_24  and  O_27
REMARK                            x       y       z     vdW  Elec       q    Type
REMARK                         _______ _______ _______ _____ _____    ______ ____
ROOT
ATOM      1  O   UNL     1      31.678 -10.395 -19.361  0.00  0.00    -0.269 OA
ATOM      2  N   UNL     1      32.886 -13.840 -22.492  0.00  0.00    -0.271 N 
ATOM      3  N   UNL     1      31.658 -11.627 -21.349  0.00  0.00    -0.267 N 
ATOM      4  N   UNL     1      32.735 -13.125 -24.580  0.00  0.00    -0.230 NA
ATOM      5  C   UNL     1      32.721 -13.821 -21.053  0.00  0.00    +0.118 C 
ATOM      6  C   UNL     1      31.554 -12.921 -20.663  0.00  0.00    +0.116 C 
ATOM      7  C   UNL     1      31.669 -11.672 -22.824  0.00  0.00    +0.155 C 
ATOM      8  C   UNL     1      32.427 -12.853 -23.328  0.00  0.00    +0.133 C 
ATOM      9  C   UNL     1      33.518 -14.784 -23.241  0.00  0.00    +0.072 C 
ATOM     10  C   UNL     1      33.412 -14.320 -24.532  0.00  0.00    +0.115 C 
ATOM     11  C   UNL     1      31.685 -10.452 -20.590  0.00  0.00    +0.255 C 
ENDROOT
BRANCH   9  12
ATOM     12  C   UNL     1      34.125 -15.986 -22.725  0.00  0.00    +0.015 C 
ATOM     13  C   UNL     1      34.549 -16.038 -21.397  0.00  0.00    +0.001 C 
ATOM     14  C   UNL     1      34.290 -17.096 -23.553  0.00  0.00    +0.001 C 
ATOM     15  C   UNL     1      35.137 -17.200 -20.898  0.00  0.00    +0.000 C 
ATOM     16  C   UNL     1      34.877 -18.258 -23.054  0.00  0.00    +0.000 C 
ATOM     17  C   UNL     1      35.301 -18.310 -21.726  0.00  0.00    +0.000 C 
ENDBRANCH   9  12
BRANCH  11  19
ATOM     18  S   UNL     1      31.428  -7.720 -20.431  0.00  0.00    -0.078 S 
ATOM     19  C   UNL     1      31.720  -9.165 -21.302  0.00  0.00    +0.083 C 
ATOM     20  C   UNL     1      31.965  -8.925 -22.636  0.00  0.00    +0.012 C 
ATOM     21  C   UNL     1      31.628  -6.767 -21.840  0.00  0.00    +0.085 C 
ATOM     22  C   UNL     1      31.912  -7.535 -22.948  0.00  0.00    +0.012 C 
BRANCH  21  25
ATOM     23  O   UNL     1      32.409  -4.571 -22.124  0.00  0.00    -0.268 OA
ATOM     24  N   UNL     1      30.315  -4.832 -21.197  0.00  0.00    -0.193 N 
ATOM     25  C   UNL     1      31.495  -5.350 -21.744  0.00  0.00    +0.274 C 
ATOM     26  H   UNL     1      29.591  -5.428 -20.894  0.00  0.00    +0.183 HD
BRANCH  24  27
ATOM     27  O   UNL     1      30.198  -3.439 -21.092  0.00  0.00    -0.295 OA
ATOM     28  H   UNL     1      30.952  -3.087 -20.594  0.00  0.00    +0.241 HD
ENDBRANCH  24  27
ENDBRANCH  21  25
ENDBRANCH  11  19
TORSDOF 4
ENDMDL
MODEL 6
REMARK VINA RESULT:     -10.0     10.508     14.494
REMARK  Name = 24836811
REMARK  4 active torsions:
REMARK  status: ('A' for Active; 'I' for Inactive)
REMARK    1  A    between atoms: C_9  and  C_12
REMARK    2  A    between atoms: C_11  and  C_19
REMARK    3  A    between atoms: C_21  and  C_25
REMARK    4  A    between atoms: N_24  and  O_27
REMARK                            x       y       z     vdW  Elec       q    Type
REMARK                         _______ _______ _______ _____ _____    ______ ____
ROOT
ATOM      1  O   UNL     1      31.446  -8.566 -18.925  0.00  0.00    -0.269 OA
ATOM      2  N   UNL     1      32.590 -11.951 -22.144  0.00  0.00    -0.271 N 
ATOM      3  N   UNL     1      31.452  -9.709 -20.965  0.00  0.00    -0.267 N 
ATOM      4  N   UNL     1      32.600 -11.140 -24.202  0.00  0.00    -0.230 NA
ATOM      5  C   UNL     1      32.348 -11.981 -20.716  0.00  0.00    +0.118 C 
ATOM      6  C   UNL     1      31.225 -11.020 -20.346  0.00  0.00    +0.116 C 
ATOM      7  C   UNL     1      31.539  -9.692 -22.438  0.00  0.00    +0.155 C 
ATOM      8  C   UNL     1      32.243 -10.901 -22.956  0.00  0.00    +0.133 C 
ATOM      9  C   UNL     1      33.196 -12.904 -22.902  0.00  0.00    +0.072 C 
ATOM     10  C   UNL     1      33.192 -12.380 -24.174  0.00  0.00    +0.115 C 
ATOM     11  C   UNL     1      31.516  -8.571 -20.153  0.00  0.00    +0.255 C 
ENDROOT
BRANCH   9  12
ATOM     12  C   UNL     1      33.694 -14.166 -22.412  0.00  0.00    +0.015 C 
ATOM     13  C   UNL     1      33.746 -14.408 -21.038  0.00  0.00    +0.001 C 
ATOM     14  C   UNL     1      34.122 -15.144 -23.308  0.00  0.00    +0.001 C 
ATOM     15  C   UNL     1      34.228 -15.628 -20.564  0.00  0.00    +0.000 C 
ATOM     16  C   UNL     1      34.602 -16.364 -22.834  0.00  0.00    +0.000 C 
ATOM     17  C   UNL     1      34.656 -16.606 -21.461  0.00  0.00    +0.000 C 
ENDBRANCH   9  12
BRANCH  11  19
ATOM     18  S   UNL     1      32.517  -7.163 -22.290  0.00  0.00    -0.078 S 
ATOM     19  C   UNL     1      31.676  -7.261 -20.802  0.00  0.00    +0.083 C 
ATOM     20  C   UNL     1      31.229  -6.029 -20.378  0.00  0.00    +0.012 C 
ATOM     21  C   UNL     1      32.286  -5.468 -22.370  0.00  0.00    +0.085 C 
ATOM     22  C   UNL     1      31.582  -4.990 -21.287  0.00  0.00    +0.012 C 
BRANCH  21  25
ATOM     23  O   UNL     1      32.141  -3.852 -24.068  0.00  0.00    -0.268 OA
ATOM     24  N   UNL     1      34.091  -5.074 -23.942  0.00  0.00    -0.193 N 
ATOM     25  C   UNL     1      32.808  -4.749 -23.487  0.00  0.00    +0.274 C 
ATOM     26  H   UNL     1      34.625  -5.773 -23.498  0.00  0.00    +0.183 HD
BRANCH  24  27
ATOM     27  O   UNL     1      34.591  -4.373 -25.048  0.00  0.00    -0.295 OA
ATOM     28  H   UNL     1      35.489  -4.060 -24.854  0.00  0.00    +0.241 HD
ENDBRANCH  24  27
ENDBRANCH  21  25
ENDBRANCH  11  19
TORSDOF 4
ENDMDL
MODEL 7
REMARK VINA RESULT:      -9.9      3.998      9.381
REMARK  Name = 24836811
REMARK  4 active torsions:
REMARK  status: ('A' for Active; 'I' for Inactive)
REMARK    1  A    between atoms: C_9  and  C_12
REMARK    2  A    between atoms: C_11  and  C_19
REMARK    3  A    between atoms: C_21  and  C_25
REMARK    4  A    between atoms: N_24  and  O_27
REMARK                            x       y       z     vdW  Elec       q    Type
REMARK                         _______ _______ _______ _____ _____    ______ ____
ROOT
ATOM      1  O   UNL     1      32.187 -20.927 -19.976  0.00  0.00    -0.269 OA
ATOM      2  N   UNL     1      35.187 -22.162 -16.427  0.00  0.00    -0.271 N 
ATOM      3  N   UNL     1      34.190 -21.554 -18.946  0.00  0.00    -0.267 N 
ATOM      4  N   UNL     1      37.246 -21.458 -16.825  0.00  0.00    -0.230 NA
ATOM      5  C   UNL     1      33.796 -22.461 -16.698  0.00  0.00    +0.118 C 
ATOM      6  C   UNL     1      33.575 -22.654 -18.194  0.00  0.00    +0.116 C 
ATOM      7  C   UNL     1      35.643 -21.374 -18.764  0.00  0.00    +0.155 C 
ATOM      8  C   UNL     1      36.054 -21.645 -17.356  0.00  0.00    +0.133 C 
ATOM      9  C   UNL     1      35.852 -22.313 -15.250  0.00  0.00    +0.072 C 
ATOM     10  C   UNL     1      37.127 -21.870 -15.520  0.00  0.00    +0.115 C 
ATOM     11  C   UNL     1      33.398 -20.792 -19.812  0.00  0.00    +0.255 C 
ENDROOT
BRANCH   9  12
ATOM     12  C   UNL     1      35.284 -22.841 -14.034  0.00  0.00    +0.015 C 
ATOM     13  C   UNL     1      36.009 -22.784 -12.843  0.00  0.00    +0.001 C 
ATOM     14  C   UNL     1      34.010 -23.410 -14.047  0.00  0.00    +0.001 C 
ATOM     15  C   UNL     1      35.460 -23.295 -11.668  0.00  0.00    +0.000 C 
ATOM     16  C   UNL     1      33.461 -23.921 -12.872  0.00  0.00    +0.000 C 
ATOM     17  C   UNL     1      34.187 -23.864 -11.681  0.00  0.00    +0.000 C 
ENDBRANCH   9  12
BRANCH  11  19
ATOM     18  S   UNL     1      33.202 -19.033 -21.914  0.00  0.00    -0.078 S 
ATOM     19  C   UNL     1      34.051 -19.739 -20.606  0.00  0.00    +0.083 C 
ATOM     20  C   UNL     1      35.310 -19.201 -20.455  0.00  0.00    +0.012 C 
ATOM     21  C   UNL     1      34.520 -18.003 -22.283  0.00  0.00    +0.085 C 
ATOM     22  C   UNL     1      35.582 -18.195 -21.427  0.00  0.00    +0.012 C 
BRANCH  21  25
ATOM     23  O   UNL     1      33.854 -17.422 -24.459  0.00  0.00    -0.268 OA
ATOM     24  N   UNL     1      34.937 -15.806 -23.223  0.00  0.00    -0.193 N 
ATOM     25  C   UNL     1      34.405 -17.092 -23.375  0.00  0.00    +0.274 C 
ATOM     26  H   UNL     1      35.372 -15.533 -22.382  0.00  0.00    +0.183 HD
BRANCH  24  27
ATOM     27  O   UNL     1      34.833 -14.922 -24.305  0.00  0.00    -0.295 OA
ATOM     28  H   UNL     1      35.474 -15.170 -24.989  0.00  0.00    +0.241 HD
ENDBRANCH  24  27
ENDBRANCH  21  25
ENDBRANCH  11  19
TORSDOF 4
ENDMDL
MODEL 8
REMARK VINA RESULT:      -9.7     10.744     14.335
REMARK  Name = 24836811
REMARK  4 active torsions:
REMARK  status: ('A' for Active; 'I' for Inactive)
REMARK    1  A    between atoms: C_9  and  C_12
REMARK    2  A    between atoms: C_11  and  C_19
REMARK    3  A    between atoms: C_21  and  C_25
REMARK    4  A    between atoms: N_24  and  O_27
REMARK                            x       y       z     vdW  Elec       q    Type
REMARK                         _______ _______ _______ _____ _____    ______ ____
ROOT
ATOM      1  O   UNL     1      30.144 -10.641 -21.595  0.00  0.00    -0.269 OA
ATOM      2  N   UNL     1      32.339  -6.731 -23.333  0.00  0.00    -0.271 N 
ATOM      3  N   UNL     1      31.896  -9.169 -22.080  0.00  0.00    -0.267 N 
ATOM      4  N   UNL     1      34.410  -7.180 -23.969  0.00  0.00    -0.230 NA
ATOM      5  C   UNL     1      31.052  -6.949 -22.706  0.00  0.00    +0.118 C 
ATOM      6  C   UNL     1      31.170  -7.988 -21.597  0.00  0.00    +0.116 C 
ATOM      7  C   UNL     1      33.267  -8.933 -22.571  0.00  0.00    +0.155 C 
ATOM      8  C   UNL     1      33.370  -7.637 -23.301  0.00  0.00    +0.133 C 
ATOM      9  C   UNL     1      32.736  -5.648 -24.054  0.00  0.00    +0.072 C 
ATOM     10  C   UNL     1      34.023  -5.948 -24.439  0.00  0.00    +0.115 C 
ATOM     11  C   UNL     1      31.285 -10.425 -22.000  0.00  0.00    +0.255 C 
ENDROOT
BRANCH   9  12
ATOM     12  C   UNL     1      31.935  -4.475 -24.305  0.00  0.00    +0.015 C 
ATOM     13  C   UNL     1      31.503  -3.686 -23.238  0.00  0.00    +0.001 C 
ATOM     14  C   UNL     1      31.592  -4.129 -25.611  0.00  0.00    +0.001 C 
ATOM     15  C   UNL     1      30.728  -2.552 -23.480  0.00  0.00    +0.000 C 
ATOM     16  C   UNL     1      30.817  -2.994 -25.853  0.00  0.00    +0.000 C 
ATOM     17  C   UNL     1      30.385  -2.206 -24.786  0.00  0.00    +0.000 C 
ENDBRANCH   9  12
BRANCH  11  19
ATOM     18  S   UNL     1      32.682 -12.667 -21.241  0.00  0.00    -0.078 S 
ATOM     19  C   UNL     1      32.059 -11.602 -22.427  0.00  0.00    +0.083 C 
ATOM     20  C   UNL     1      32.379 -12.006 -23.704  0.00  0.00    +0.012 C 
ATOM     21  C   UNL     1      33.385 -13.673 -22.435  0.00  0.00    +0.085 C 
ATOM     22  C   UNL     1      33.147 -13.206 -23.709  0.00  0.00    +0.012 C 
BRANCH  21  25
ATOM     23  O   UNL     1      34.228 -15.148 -20.814  0.00  0.00    -0.268 OA
ATOM     24  N   UNL     1      34.695 -15.629 -23.019  0.00  0.00    -0.193 N 
ATOM     25  C   UNL     1      34.105 -14.836 -22.028  0.00  0.00    +0.274 C 
ATOM     26  H   UNL     1      34.608 -15.398 -23.973  0.00  0.00    +0.183 HD
BRANCH  24  27
ATOM     27  O   UNL     1      35.413 -16.761 -22.610  0.00  0.00    -0.295 OA
ATOM     28  H   UNL     1      35.971 -16.533 -21.850  0.00  0.00    +0.241 HD
ENDBRANCH  24  27
ENDBRANCH  21  25
ENDBRANCH  11  19
TORSDOF 4
ENDMDL
MODEL 9
REMARK VINA RESULT:      -9.6      3.532      8.936
REMARK  Name = 24836811
REMARK  4 active torsions:
REMARK  status: ('A' for Active; 'I' for Inactive)
REMARK    1  A    between atoms: C_9  and  C_12
REMARK    2  A    between atoms: C_11  and  C_19
REMARK    3  A    between atoms: C_21  and  C_25
REMARK    4  A    between atoms: N_24  and  O_27
REMARK                            x       y       z     vdW  Elec       q    Type
REMARK                         _______ _______ _______ _____ _____    ______ ____
ROOT
ATOM      1  O   UNL     1      31.362 -21.921 -18.101  0.00  0.00    -0.269 OA
ATOM      2  N   UNL     1      35.219 -22.634 -15.318  0.00  0.00    -0.271 N 
ATOM      3  N   UNL     1      33.589 -22.378 -17.551  0.00  0.00    -0.267 N 
ATOM      4  N   UNL     1      37.074 -21.960 -16.317  0.00  0.00    -0.230 NA
ATOM      5  C   UNL     1      33.820 -22.985 -15.183  0.00  0.00    +0.118 C 
ATOM      6  C   UNL     1      33.237 -23.378 -16.535  0.00  0.00    +0.116 C 
ATOM      7  C   UNL     1      35.030 -22.156 -17.773  0.00  0.00    +0.155 C 
ATOM      8  C   UNL     1      35.796 -22.232 -16.496  0.00  0.00    +0.133 C 
ATOM      9  C   UNL     1      36.166 -22.618 -14.342  0.00  0.00    +0.072 C 
ATOM     10  C   UNL     1      37.308 -22.197 -14.983  0.00  0.00    +0.115 C 
ATOM     11  C   UNL     1      32.568 -21.748 -18.272  0.00  0.00    +0.255 C 
ENDROOT
BRANCH   9  12
ATOM     12  C   UNL     1      35.950 -22.989 -12.965  0.00  0.00    +0.015 C 
ATOM     13  C   UNL     1      36.774 -22.469 -11.966  0.00  0.00    +0.001 C 
ATOM     14  C   UNL     1      34.918 -23.866 -12.631  0.00  0.00    +0.001 C 
ATOM     15  C   UNL     1      36.565 -22.828 -10.634  0.00  0.00    +0.000 C 
ATOM     16  C   UNL     1      34.709 -24.224 -11.300  0.00  0.00    +0.000 C 
ATOM     17  C   UNL     1      35.533 -23.705 -10.301  0.00  0.00    +0.000 C 
ENDBRANCH   9  12
BRANCH  11  19
ATOM     18  S   UNL     1      34.606 -20.558 -19.680  0.00  0.00    -0.078 S 
ATOM     19  C   UNL     1      32.948 -20.801 -19.332  0.00  0.00    +0.083 C 
ATOM     20  C   UNL     1      32.132 -20.035 -20.135  0.00  0.00    +0.012 C 
ATOM     21  C   UNL     1      34.237 -19.424 -20.909  0.00  0.00    +0.085 C 
ATOM     22  C   UNL     1      32.879 -19.237 -21.049  0.00  0.00    +0.012 C 
BRANCH  21  25
ATOM     23  O   UNL     1      35.185 -18.498 -22.847  0.00  0.00    -0.268 OA
ATOM     24  N   UNL     1      36.512 -18.585 -20.965  0.00  0.00    -0.193 N 
ATOM     25  C   UNL     1      35.304 -18.815 -21.635  0.00  0.00    +0.274 C 
ATOM     26  H   UNL     1      36.621 -18.827 -20.017  0.00  0.00    +0.183 HD
BRANCH  24  27
ATOM     27  O   UNL     1      37.560 -18.000 -21.689  0.00  0.00    -0.295 OA
ATOM     28  H   UNL     1      38.013 -18.681 -22.211  0.00  0.00    +0.241 HD
ENDBRANCH  24  27
ENDBRANCH  21  25
ENDBRANCH  11  19
TORSDOF 4
ENDMDL
