MODEL 1
REMARK VINA RESULT:     -13.3      0.000      0.000
REMARK  Name = 45268539
REMARK  6 active torsions:
REMARK  status: ('A' for Active; 'I' for Inactive)
REMARK    1  A    between atoms: N_2  and  C_22
REMARK    2  A    between atoms: N_3  and  C_7
REMARK    3  A    between atoms: N_3  and  O_12
REMARK    4  A    between atoms: C_8  and  C_14
REMARK    5  A    between atoms: C_15  and  C_16
REMARK    6  A    between atoms: C_22  and  C_26
REMARK                            x       y       z     vdW  Elec       q    Type
REMARK                         _______ _______ _______ _____ _____    ______ ____
ROOT
ATOM      1  O   UNL     1      31.359 -23.260 -16.625  0.00  0.00    -0.273 OA
ATOM      2  N   UNL     1      33.575 -22.929 -15.832  0.00  0.00    -0.253 N 
ATOM      3  C   UNL     1      34.710 -22.304 -16.384  0.00  0.00    +0.052 C 
ATOM      4  C   UNL     1      34.420 -21.796 -17.650  0.00  0.00    +0.018 C 
ATOM      5  C   UNL     1      32.500 -22.858 -16.702  0.00  0.00    +0.252 C 
ATOM      6  C   UNL     1      33.030 -22.117 -17.907  0.00  0.00    +0.202 C 
ATOM      7  C   UNL     1      35.349 -21.132 -18.424  0.00  0.00    -0.001 C 
ATOM      8  C   UNL     1      35.974 -22.159 -15.842  0.00  0.00    +0.015 C 
ATOM      9  C   UNL     1      36.626 -20.981 -17.883  0.00  0.00    -0.000 C 
ATOM     10  C   UNL     1      36.936 -21.489 -16.606  0.00  0.00    +0.001 C 
ENDROOT
BRANCH   7  11
ATOM     11  C   UNL     1      35.053 -20.602 -19.742  0.00  0.00    -0.000 C 
ATOM     12  C   UNL     1      34.965 -19.285 -20.055  0.00  0.00    -0.000 C 
BRANCH  12  13
ATOM     13  C   UNL     1      34.681 -18.746 -21.397  0.00  0.00    -0.000 C 
ATOM     14  C   UNL     1      34.897 -17.394 -21.666  0.00  0.00    -0.000 C 
ATOM     15  C   UNL     1      34.199 -19.588 -22.399  0.00  0.00    -0.000 C 
ATOM     16  C   UNL     1      34.629 -16.884 -22.937  0.00  0.00    +0.000 C 
ATOM     17  C   UNL     1      33.932 -19.078 -23.669  0.00  0.00    +0.000 C 
ATOM     18  C   UNL     1      34.146 -17.726 -23.938  0.00  0.00    +0.000 C 
ENDBRANCH  12  13
ENDBRANCH   7  11
BRANCH   6  19
ATOM     19  N   UNL     1      32.321 -21.851 -18.946  0.00  0.00    -0.075 NA
BRANCH  19  20
ATOM     20  O   UNL     1      31.590 -20.686 -18.699  0.00  0.00    -0.294 OA
ATOM     21  H   UNL     1      30.852 -20.710 -18.122  0.00  0.00    +0.238 HD
ENDBRANCH  19  20
ENDBRANCH   6  19
BRANCH   2  22
ATOM     22  C   UNL     1      33.565 -23.550 -14.531  0.00  0.00    +0.128 C 
BRANCH  22  26
ATOM     23  F   UNL     1      36.552 -27.142 -15.881  0.00  0.00    -0.204 F 
ATOM     24  O   UNL     1      35.250 -23.148 -12.335  0.00  0.00    -0.448 OA
ATOM     25  O   UNL     1      36.891 -23.976 -10.791  0.00  0.00    -0.311 OA
ATOM     26  C   UNL     1      34.792 -24.382 -14.294  0.00  0.00    +0.034 C 
ATOM     27  C   UNL     1      35.616 -24.157 -13.191  0.00  0.00    +0.138 C 
ATOM     28  C   UNL     1      36.748 -24.953 -12.975  0.00  0.00    +0.043 C 
ATOM     29  C   UNL     1      35.110 -25.392 -15.201  0.00  0.00    +0.030 C 
ATOM     30  C   UNL     1      37.620 -24.698 -11.784  0.00  0.00    +0.176 C 
ATOM     31  C   UNL     1      37.066 -25.956 -13.896  0.00  0.00    +0.031 C 
ATOM     32  C   UNL     1      36.247 -26.176 -15.005  0.00  0.00    +0.140 C 
ATOM     33  C   UNL     1      36.261 -22.836 -11.371  0.00  0.00    +0.361 C 
ENDBRANCH  22  26
ENDBRANCH   2  22
TORSDOF 6
ENDMDL
MODEL 2
REMARK VINA RESULT:     -12.2      8.218     13.757
REMARK  Name = 45268539
REMARK  6 active torsions:
REMARK  status: ('A' for Active; 'I' for Inactive)
REMARK    1  A    between atoms: N_2  and  C_22
REMARK    2  A    between atoms: N_3  and  C_7
REMARK    3  A    between atoms: N_3  and  O_12
REMARK    4  A    between atoms: C_8  and  C_14
REMARK    5  A    between atoms: C_15  and  C_16
REMARK    6  A    between atoms: C_22  and  C_26
REMARK                            x       y       z     vdW  Elec       q    Type
REMARK                         _______ _______ _______ _____ _____    ______ ____
ROOT
ATOM      1  O   UNL     1      31.460 -11.180 -19.897  0.00  0.00    -0.273 OA
ATOM      2  N   UNL     1      31.837 -11.258 -22.243  0.00  0.00    -0.253 N 
ATOM      3  C   UNL     1      32.474 -12.191 -23.084  0.00  0.00    +0.052 C 
ATOM      4  C   UNL     1      32.965 -13.264 -22.339  0.00  0.00    +0.018 C 
ATOM      5  C   UNL     1      31.879 -11.673 -20.923  0.00  0.00    +0.252 C 
ATOM      6  C   UNL     1      32.617 -12.991 -20.958  0.00  0.00    +0.202 C 
ATOM      7  C   UNL     1      33.636 -14.326 -22.906  0.00  0.00    -0.001 C 
ATOM      8  C   UNL     1      32.647 -12.151 -24.455  0.00  0.00    +0.015 C 
ATOM      9  C   UNL     1      33.814 -14.294 -24.290  0.00  0.00    -0.000 C 
ATOM     10  C   UNL     1      33.325 -13.218 -25.056  0.00  0.00    +0.001 C 
ENDROOT
BRANCH   7  11
ATOM     11  C   UNL     1      34.150 -15.444 -22.136  0.00  0.00    -0.000 C 
ATOM     12  C   UNL     1      34.210 -16.729 -22.566  0.00  0.00    -0.000 C 
BRANCH  12  13
ATOM     13  C   UNL     1      34.748 -17.862 -21.791  0.00  0.00    -0.000 C 
ATOM     14  C   UNL     1      33.913 -18.920 -21.432  0.00  0.00    -0.000 C 
ATOM     15  C   UNL     1      36.092 -17.876 -21.419  0.00  0.00    -0.000 C 
ATOM     16  C   UNL     1      34.422 -19.993 -20.699  0.00  0.00    +0.000 C 
ATOM     17  C   UNL     1      36.601 -18.948 -20.686  0.00  0.00    +0.000 C 
ATOM     18  C   UNL     1      35.766 -20.006 -20.325  0.00  0.00    +0.000 C 
ENDBRANCH  12  13
ENDBRANCH   7  11
BRANCH   6  19
ATOM     19  N   UNL     1      32.863 -13.697 -19.912  0.00  0.00    -0.075 NA
BRANCH  19  20
ATOM     20  O   UNL     1      31.690 -14.359 -19.539  0.00  0.00    -0.294 OA
ATOM     21  H   UNL     1      30.897 -13.875 -19.415  0.00  0.00    +0.238 HD
ENDBRANCH  19  20
ENDBRANCH   6  19
BRANCH   2  22
ATOM     22  C   UNL     1      31.228 -10.042 -22.723  0.00  0.00    +0.128 C 
BRANCH  22  26
ATOM     23  F   UNL     1      34.855  -7.358 -24.537  0.00  0.00    -0.204 F 
ATOM     24  O   UNL     1      31.158  -8.259 -20.570  0.00  0.00    -0.448 OA
ATOM     25  O   UNL     1      32.242  -6.627 -19.182  0.00  0.00    -0.311 OA
ATOM     26  C   UNL     1      32.158  -8.868 -22.619  0.00  0.00    +0.034 C 
ATOM     27  C   UNL     1      32.099  -7.993 -21.534  0.00  0.00    +0.138 C 
ATOM     28  C   UNL     1      32.984  -6.912 -21.443  0.00  0.00    +0.043 C 
ATOM     29  C   UNL     1      33.092  -8.651 -23.632  0.00  0.00    +0.030 C 
ATOM     30  C   UNL     1      32.907  -5.985 -20.269  0.00  0.00    +0.176 C 
ATOM     31  C   UNL     1      33.909  -6.696 -22.469  0.00  0.00    +0.031 C 
ATOM     32  C   UNL     1      33.964  -7.565 -23.560  0.00  0.00    +0.140 C 
ATOM     33  C   UNL     1      31.011  -7.196 -19.622  0.00  0.00    +0.361 C 
ENDBRANCH  22  26
ENDBRANCH   2  22
TORSDOF 6
ENDMDL
MODEL 3
REMARK VINA RESULT:     -11.9      1.861      2.496
REMARK  Name = 45268539
REMARK  6 active torsions:
REMARK  status: ('A' for Active; 'I' for Inactive)
REMARK    1  A    between atoms: N_2  and  C_22
REMARK    2  A    between atoms: N_3  and  C_7
REMARK    3  A    between atoms: N_3  and  O_12
REMARK    4  A    between atoms: C_8  and  C_14
REMARK    5  A    between atoms: C_15  and  C_16
REMARK    6  A    between atoms: C_22  and  C_26
REMARK                            x       y       z     vdW  Elec       q    Type
REMARK                         _______ _______ _______ _____ _____    ______ ____
ROOT
ATOM      1  O   UNL     1      31.431 -23.657 -15.937  0.00  0.00    -0.273 OA
ATOM      2  N   UNL     1      33.721 -23.468 -15.327  0.00  0.00    -0.253 N 
ATOM      3  C   UNL     1      34.822 -22.817 -15.916  0.00  0.00    +0.052 C 
ATOM      4  C   UNL     1      34.436 -22.170 -17.090  0.00  0.00    +0.018 C 
ATOM      5  C   UNL     1      32.574 -23.278 -16.080  0.00  0.00    +0.252 C 
ATOM      6  C   UNL     1      33.017 -22.428 -17.246  0.00  0.00    +0.202 C 
ATOM      7  C   UNL     1      35.313 -21.452 -17.875  0.00  0.00    -0.001 C 
ATOM      8  C   UNL     1      36.134 -22.762 -15.483  0.00  0.00    +0.015 C 
ATOM      9  C   UNL     1      36.639 -21.391 -17.445  0.00  0.00    -0.000 C 
ATOM     10  C   UNL     1      37.046 -22.039 -16.262  0.00  0.00    +0.001 C 
ENDROOT
BRANCH   7  11
ATOM     11  C   UNL     1      34.917 -20.779 -19.098  0.00  0.00    -0.000 C 
ATOM     12  C   UNL     1      35.592 -19.758 -19.684  0.00  0.00    -0.000 C 
BRANCH  12  13
ATOM     13  C   UNL     1      35.200 -19.085 -20.935  0.00  0.00    -0.000 C 
ATOM     14  C   UNL     1      34.157 -19.599 -21.706  0.00  0.00    -0.000 C 
ATOM     15  C   UNL     1      35.870 -17.933 -21.347  0.00  0.00    -0.000 C 
ATOM     16  C   UNL     1      33.786 -18.962 -22.891  0.00  0.00    +0.000 C 
ATOM     17  C   UNL     1      35.499 -17.297 -22.531  0.00  0.00    +0.000 C 
ATOM     18  C   UNL     1      34.457 -17.811 -23.303  0.00  0.00    +0.000 C 
ENDBRANCH  12  13
ENDBRANCH   7  11
BRANCH   6  19
ATOM     19  N   UNL     1      32.227 -22.036 -18.182  0.00  0.00    -0.075 NA
BRANCH  19  20
ATOM     20  O   UNL     1      31.050 -21.559 -17.597  0.00  0.00    -0.294 OA
ATOM     21  H   UNL     1      30.218 -21.867 -17.901  0.00  0.00    +0.238 HD
ENDBRANCH  19  20
ENDBRANCH   6  19
BRANCH   2  22
ATOM     22  C   UNL     1      33.807 -24.223 -14.101  0.00  0.00    +0.128 C 
BRANCH  22  26
ATOM     23  F   UNL     1      36.666 -21.781 -11.016  0.00  0.00    -0.204 F 
ATOM     24  O   UNL     1      35.973 -25.934 -14.551  0.00  0.00    -0.448 OA
ATOM     25  O   UNL     1      38.338 -26.346 -14.538  0.00  0.00    -0.311 OA
ATOM     26  C   UNL     1      35.132 -24.041 -13.420  0.00  0.00    +0.034 C 
ATOM     27  C   UNL     1      36.195 -24.912 -13.662  0.00  0.00    +0.138 C 
ATOM     28  C   UNL     1      37.431 -24.719 -13.032  0.00  0.00    +0.043 C 
ATOM     29  C   UNL     1      35.295 -22.983 -12.526  0.00  0.00    +0.030 C 
ATOM     30  C   UNL     1      38.561 -25.663 -13.305  0.00  0.00    +0.176 C 
ATOM     31  C   UNL     1      37.581 -23.662 -12.128  0.00  0.00    +0.031 C 
ATOM     32  C   UNL     1      36.516 -22.795 -11.878  0.00  0.00    +0.140 C 
ATOM     33  C   UNL     1      37.026 -26.903 -14.565  0.00  0.00    +0.361 C 
ENDBRANCH  22  26
ENDBRANCH   2  22
TORSDOF 6
ENDMDL
MODEL 4
REMARK VINA RESULT:     -11.7      3.778      8.957
REMARK  Name = 45268539
REMARK  6 active torsions:
REMARK  status: ('A' for Active; 'I' for Inactive)
REMARK    1  A    between atoms: N_2  and  C_22
REMARK    2  A    between atoms: N_3  and  C_7
REMARK    3  A    between atoms: N_3  and  O_12
REMARK    4  A    between atoms: C_8  and  C_14
REMARK    5  A    between atoms: C_15  and  C_16
REMARK    6  A    between atoms: C_22  and  C_26
REMARK                            x       y       z     vdW  Elec       q    Type
REMARK                         _______ _______ _______ _____ _____    ______ ____
ROOT
ATOM      1  O   UNL     1      32.929 -20.114 -20.799  0.00  0.00    -0.273 OA
ATOM      2  N   UNL     1      34.985 -20.230 -19.612  0.00  0.00    -0.253 N 
ATOM      3  C   UNL     1      35.385 -20.910 -18.446  0.00  0.00    +0.052 C 
ATOM      4  C   UNL     1      34.322 -21.649 -17.924  0.00  0.00    +0.018 C 
ATOM      5  C   UNL     1      33.656 -20.489 -19.905  0.00  0.00    +0.252 C 
ATOM      6  C   UNL     1      33.197 -21.420 -18.809  0.00  0.00    +0.202 C 
ATOM      7  C   UNL     1      34.430 -22.414 -16.782  0.00  0.00    -0.001 C 
ATOM      8  C   UNL     1      36.619 -20.918 -17.822  0.00  0.00    +0.015 C 
ATOM      9  C   UNL     1      35.672 -22.427 -16.146  0.00  0.00    -0.000 C 
ATOM     10  C   UNL     1      36.755 -21.687 -16.660  0.00  0.00    +0.001 C 
ENDROOT
BRANCH   7  11
ATOM     11  C   UNL     1      33.328 -23.183 -16.233  0.00  0.00    -0.000 C 
ATOM     12  C   UNL     1      32.380 -22.701 -15.391  0.00  0.00    -0.000 C 
BRANCH  12  13
ATOM     13  C   UNL     1      31.251 -23.476 -14.847  0.00  0.00    -0.000 C 
ATOM     14  C   UNL     1      31.335 -24.028 -13.568  0.00  0.00    -0.000 C 
ATOM     15  C   UNL     1      30.097 -23.658 -15.610  0.00  0.00    -0.000 C 
ATOM     16  C   UNL     1      30.266 -24.762 -13.053  0.00  0.00    +0.000 C 
ATOM     17  C   UNL     1      29.029 -24.391 -15.095  0.00  0.00    +0.000 C 
ATOM     18  C   UNL     1      29.113 -24.944 -13.817  0.00  0.00    +0.000 C 
ENDBRANCH  12  13
ENDBRANCH   7  11
BRANCH   6  19
ATOM     19  N   UNL     1      32.003 -21.891 -18.729  0.00  0.00    -0.075 NA
BRANCH  19  20
ATOM     20  O   UNL     1      31.150 -20.868 -18.304  0.00  0.00    -0.294 OA
ATOM     21  H   UNL     1      30.667 -20.962 -17.506  0.00  0.00    +0.238 HD
ENDBRANCH  19  20
ENDBRANCH   6  19
BRANCH   2  22
ATOM     22  C   UNL     1      35.866 -19.383 -20.379  0.00  0.00    +0.128 C 
BRANCH  22  26
ATOM     23  F   UNL     1      34.250 -20.109 -24.907  0.00  0.00    -0.204 F 
ATOM     24  O   UNL     1      34.963 -16.747 -20.617  0.00  0.00    -0.448 OA
ATOM     25  O   UNL     1      34.367 -14.866 -21.985  0.00  0.00    -0.311 OA
ATOM     26  C   UNL     1      35.207 -18.867 -21.625  0.00  0.00    +0.034 C 
ATOM     27  C   UNL     1      34.764 -17.547 -21.714  0.00  0.00    +0.138 C 
ATOM     28  C   UNL     1      34.166 -17.076 -22.890  0.00  0.00    +0.043 C 
ATOM     29  C   UNL     1      35.033 -19.730 -22.706  0.00  0.00    +0.030 C 
ATOM     30  C   UNL     1      33.699 -15.655 -22.969  0.00  0.00    +0.176 C 
ATOM     31  C   UNL     1      33.986 -17.952 -23.965  0.00  0.00    +0.031 C 
ATOM     32  C   UNL     1      34.420 -19.275 -23.873  0.00  0.00    +0.140 C 
ATOM     33  C   UNL     1      34.280 -15.492 -20.707  0.00  0.00    +0.361 C 
ENDBRANCH  22  26
ENDBRANCH   2  22
TORSDOF 6
ENDMDL
MODEL 5
REMARK VINA RESULT:     -11.7      7.051     12.935
REMARK  Name = 45268539
REMARK  6 active torsions:
REMARK  status: ('A' for Active; 'I' for Inactive)
REMARK    1  A    between atoms: N_2  and  C_22
REMARK    2  A    between atoms: N_3  and  C_7
REMARK    3  A    between atoms: N_3  and  O_12
REMARK    4  A    between atoms: C_8  and  C_14
REMARK    5  A    between atoms: C_15  and  C_16
REMARK    6  A    between atoms: C_22  and  C_26
REMARK                            x       y       z     vdW  Elec       q    Type
REMARK                         _______ _______ _______ _____ _____    ______ ____
ROOT
ATOM      1  O   UNL     1      33.636 -12.274 -20.879  0.00  0.00    -0.273 OA
ATOM      2  N   UNL     1      33.527 -13.172 -23.077  0.00  0.00    -0.253 N 
ATOM      3  C   UNL     1      33.674 -14.475 -23.592  0.00  0.00    +0.052 C 
ATOM      4  C   UNL     1      33.935 -15.380 -22.562  0.00  0.00    +0.018 C 
ATOM      5  C   UNL     1      33.683 -13.164 -21.701  0.00  0.00    +0.252 C 
ATOM      6  C   UNL     1      33.952 -14.604 -21.337  0.00  0.00    +0.202 C 
ATOM      7  C   UNL     1      34.123 -16.728 -22.778  0.00  0.00    -0.001 C 
ATOM      8  C   UNL     1      33.592 -14.907 -24.903  0.00  0.00    +0.015 C 
ATOM      9  C   UNL     1      34.042 -17.173 -24.099  0.00  0.00    -0.000 C 
ATOM     10  C   UNL     1      33.780 -16.272 -25.150  0.00  0.00    +0.001 C 
ENDROOT
BRANCH   7  11
ATOM     11  C   UNL     1      34.396 -17.674 -21.711  0.00  0.00    -0.000 C 
ATOM     12  C   UNL     1      33.818 -18.894 -21.579  0.00  0.00    -0.000 C 
BRANCH  12  13
ATOM     13  C   UNL     1      34.108 -19.861 -20.506  0.00  0.00    -0.000 C 
ATOM     14  C   UNL     1      33.063 -20.534 -19.873  0.00  0.00    -0.000 C 
ATOM     15  C   UNL     1      35.427 -20.105 -20.125  0.00  0.00    -0.000 C 
ATOM     16  C   UNL     1      33.337 -21.451 -18.857  0.00  0.00    +0.000 C 
ATOM     17  C   UNL     1      35.701 -21.021 -19.109  0.00  0.00    +0.000 C 
ATOM     18  C   UNL     1      34.656 -21.693 -18.475  0.00  0.00    +0.000 C 
ENDBRANCH  12  13
ENDBRANCH   7  11
BRANCH   6  19
ATOM     19  N   UNL     1      34.155 -15.008 -20.133  0.00  0.00    -0.075 NA
BRANCH  19  20
ATOM     20  O   UNL     1      32.966 -14.870 -19.412  0.00  0.00    -0.294 OA
ATOM     21  H   UNL     1      32.414 -14.127 -19.558  0.00  0.00    +0.238 HD
ENDBRANCH  19  20
ENDBRANCH   6  19
BRANCH   2  22
ATOM     22  C   UNL     1      33.251 -12.020 -23.900  0.00  0.00    +0.128 C 
BRANCH  22  26
ATOM     23  F   UNL     1      29.569 -10.655 -21.032  0.00  0.00    -0.204 F 
ATOM     24  O   UNL     1      34.104  -9.357 -23.854  0.00  0.00    -0.448 OA
ATOM     25  O   UNL     1      33.626  -7.023 -23.559  0.00  0.00    -0.311 OA
ATOM     26  C   UNL     1      32.516 -10.952 -23.143  0.00  0.00    +0.034 C 
ATOM     27  C   UNL     1      32.966  -9.631 -23.137  0.00  0.00    +0.138 C 
ATOM     28  C   UNL     1      32.261  -8.643 -22.439  0.00  0.00    +0.043 C 
ATOM     29  C   UNL     1      31.366 -11.295 -22.432  0.00  0.00    +0.030 C 
ATOM     30  C   UNL     1      32.758  -7.230 -22.445  0.00  0.00    +0.176 C 
ATOM     31  C   UNL     1      31.115  -8.998 -21.720  0.00  0.00    +0.031 C 
ATOM     32  C   UNL     1      30.669 -10.320 -21.718  0.00  0.00    +0.140 C 
ATOM     33  C   UNL     1      34.620  -8.045 -23.607  0.00  0.00    +0.361 C 
ENDBRANCH  22  26
ENDBRANCH   2  22
TORSDOF 6
ENDMDL
MODEL 6
REMARK VINA RESULT:     -11.3      8.227     13.849
REMARK  Name = 45268539
REMARK  6 active torsions:
REMARK  status: ('A' for Active; 'I' for Inactive)
REMARK    1  A    between atoms: N_2  and  C_22
REMARK    2  A    between atoms: N_3  and  C_7
REMARK    3  A    between atoms: N_3  and  O_12
REMARK    4  A    between atoms: C_8  and  C_14
REMARK    5  A    between atoms: C_15  and  C_16
REMARK    6  A    between atoms: C_22  and  C_26
REMARK                            x       y       z     vdW  Elec       q    Type
REMARK                         _______ _______ _______ _____ _____    ______ ____
ROOT
ATOM      1  O   UNL     1      31.307 -11.337 -19.859  0.00  0.00    -0.273 OA
ATOM      2  N   UNL     1      31.767 -11.361 -22.191  0.00  0.00    -0.253 N 
ATOM      3  C   UNL     1      32.462 -12.259 -23.024  0.00  0.00    +0.052 C 
ATOM      4  C   UNL     1      32.959 -13.329 -22.281  0.00  0.00    +0.018 C 
ATOM      5  C   UNL     1      31.777 -11.799 -20.877  0.00  0.00    +0.252 C 
ATOM      6  C   UNL     1      32.555 -13.092 -20.909  0.00  0.00    +0.202 C 
ATOM      7  C   UNL     1      33.682 -14.361 -22.841  0.00  0.00    -0.001 C 
ATOM      8  C   UNL     1      32.681 -12.189 -24.388  0.00  0.00    +0.015 C 
ATOM      9  C   UNL     1      33.907 -14.298 -24.217  0.00  0.00    -0.000 C 
ATOM     10  C   UNL     1      33.412 -13.224 -24.982  0.00  0.00    +0.001 C 
ENDROOT
BRANCH   7  11
ATOM     11  C   UNL     1      34.204 -15.476 -22.073  0.00  0.00    -0.000 C 
ATOM     12  C   UNL     1      34.214 -16.770 -22.479  0.00  0.00    -0.000 C 
BRANCH  12  13
ATOM     13  C   UNL     1      34.759 -17.901 -21.706  0.00  0.00    -0.000 C 
ATOM     14  C   UNL     1      36.111 -17.926 -21.366  0.00  0.00    -0.000 C 
ATOM     15  C   UNL     1      33.922 -18.945 -21.313  0.00  0.00    -0.000 C 
ATOM     16  C   UNL     1      36.627 -18.996 -20.635  0.00  0.00    +0.000 C 
ATOM     17  C   UNL     1      34.437 -20.015 -20.582  0.00  0.00    +0.000 C 
ATOM     18  C   UNL     1      35.790 -20.041 -20.243  0.00  0.00    +0.000 C 
ENDBRANCH  12  13
ENDBRANCH   7  11
BRANCH   6  19
ATOM     19  N   UNL     1      32.786 -13.809 -19.867  0.00  0.00    -0.075 NA
BRANCH  19  20
ATOM     20  O   UNL     1      31.596 -14.433 -19.485  0.00  0.00    -0.294 OA
ATOM     21  H   UNL     1      30.773 -14.089 -19.773  0.00  0.00    +0.238 HD
ENDBRANCH  19  20
ENDBRANCH   6  19
BRANCH   2  22
ATOM     22  C   UNL     1      31.138 -10.156 -22.672  0.00  0.00    +0.128 C 
BRANCH  22  26
ATOM     23  F   UNL     1      31.107  -7.186 -18.822  0.00  0.00    -0.204 F 
ATOM     24  O   UNL     1      33.093  -8.490 -23.779  0.00  0.00    -0.448 OA
ATOM     25  O   UNL     1      34.166  -6.346 -23.918  0.00  0.00    -0.311 OA
ATOM     26  C   UNL     1      31.649  -8.934 -21.966  0.00  0.00    +0.034 C 
ATOM     27  C   UNL     1      32.627  -8.122 -22.541  0.00  0.00    +0.138 C 
ATOM     28  C   UNL     1      33.082  -6.976 -21.876  0.00  0.00    +0.043 C 
ATOM     29  C   UNL     1      31.136  -8.614 -20.709  0.00  0.00    +0.030 C 
ATOM     30  C   UNL     1      34.131  -6.115 -22.511  0.00  0.00    +0.176 C 
ATOM     31  C   UNL     1      32.570  -6.670 -20.611  0.00  0.00    +0.031 C 
ATOM     32  C   UNL     1      31.598  -7.486 -20.031  0.00  0.00    +0.140 C 
ATOM     33  C   UNL     1      34.245  -7.744 -24.188  0.00  0.00    +0.361 C 
ENDBRANCH  22  26
ENDBRANCH   2  22
TORSDOF 6
ENDMDL
MODEL 7
REMARK VINA RESULT:     -11.2      2.471      3.347
REMARK  Name = 45268539
REMARK  6 active torsions:
REMARK  status: ('A' for Active; 'I' for Inactive)
REMARK    1  A    between atoms: N_2  and  C_22
REMARK    2  A    between atoms: N_3  and  C_7
REMARK    3  A    between atoms: N_3  and  O_12
REMARK    4  A    between atoms: C_8  and  C_14
REMARK    5  A    between atoms: C_15  and  C_16
REMARK    6  A    between atoms: C_22  and  C_26
REMARK                            x       y       z     vdW  Elec       q    Type
REMARK                         _______ _______ _______ _____ _____    ______ ____
ROOT
ATOM      1  O   UNL     1      36.894 -22.727 -15.293  0.00  0.00    -0.273 OA
ATOM      2  N   UNL     1      34.558 -23.141 -15.432  0.00  0.00    -0.253 N 
ATOM      3  C   UNL     1      33.564 -22.742 -16.347  0.00  0.00    +0.052 C 
ATOM      4  C   UNL     1      34.116 -21.947 -17.352  0.00  0.00    +0.018 C 
ATOM      5  C   UNL     1      35.794 -22.630 -15.792  0.00  0.00    +0.252 C 
ATOM      6  C   UNL     1      35.531 -21.840 -17.052  0.00  0.00    +0.202 C 
ATOM      7  C   UNL     1      33.371 -21.415 -18.383  0.00  0.00    -0.001 C 
ATOM      8  C   UNL     1      32.213 -23.036 -16.347  0.00  0.00    +0.015 C 
ATOM      9  C   UNL     1      32.006 -21.708 -18.390  0.00  0.00    -0.000 C 
ATOM     10  C   UNL     1      31.433 -22.509 -17.384  0.00  0.00    +0.001 C 
ENDROOT
BRANCH   7  11
ATOM     11  C   UNL     1      33.939 -20.586 -19.430  0.00  0.00    -0.000 C 
ATOM     12  C   UNL     1      33.227 -19.848 -20.317  0.00  0.00    -0.000 C 
BRANCH  12  13
ATOM     13  C   UNL     1      33.804 -18.992 -21.369  0.00  0.00    -0.000 C 
ATOM     14  C   UNL     1      34.741 -18.014 -21.037  0.00  0.00    -0.000 C 
ATOM     15  C   UNL     1      33.414 -19.161 -22.698  0.00  0.00    -0.000 C 
ATOM     16  C   UNL     1      35.287 -17.204 -22.033  0.00  0.00    +0.000 C 
ATOM     17  C   UNL     1      33.960 -18.352 -23.693  0.00  0.00    +0.000 C 
ATOM     18  C   UNL     1      34.896 -17.372 -23.361  0.00  0.00    +0.000 C 
ENDBRANCH  12  13
ENDBRANCH   7  11
BRANCH   6  19
ATOM     19  N   UNL     1      36.443 -21.206 -17.698  0.00  0.00    -0.075 NA
BRANCH  19  20
ATOM     20  O   UNL     1      36.909 -20.160 -16.895  0.00  0.00    -0.294 OA
ATOM     21  H   UNL     1      37.680 -20.276 -16.376  0.00  0.00    +0.238 HD
ENDBRANCH  19  20
ENDBRANCH   6  19
BRANCH   2  22
ATOM     22  C   UNL     1      34.292 -23.971 -14.284  0.00  0.00    +0.128 C 
BRANCH  22  26
ATOM     23  F   UNL     1      36.493 -22.342 -10.265  0.00  0.00    -0.204 F 
ATOM     24  O   UNL     1      36.477 -25.683 -14.630  0.00  0.00    -0.448 OA
ATOM     25  O   UNL     1      38.781 -26.224 -14.232  0.00  0.00    -0.311 OA
ATOM     26  C   UNL     1      35.452 -24.001 -13.331  0.00  0.00    +0.034 C 
ATOM     27  C   UNL     1      36.527 -24.867 -13.528  0.00  0.00    +0.138 C 
ATOM     28  C   UNL     1      37.609 -24.871 -12.638  0.00  0.00    +0.043 C 
ATOM     29  C   UNL     1      35.443 -23.148 -12.228  0.00  0.00    +0.030 C 
ATOM     30  C   UNL     1      38.756 -25.807 -12.867  0.00  0.00    +0.176 C 
ATOM     31  C   UNL     1      37.587 -24.020 -11.529  0.00  0.00    +0.031 C 
ATOM     32  C   UNL     1      36.507 -23.159 -11.326  0.00  0.00    +0.140 C 
ATOM     33  C   UNL     1      37.494 -26.690 -14.630  0.00  0.00    +0.361 C 
ENDBRANCH  22  26
ENDBRANCH   2  22
TORSDOF 6
ENDMDL
MODEL 8
REMARK VINA RESULT:     -11.1      1.845      2.477
REMARK  Name = 45268539
REMARK  6 active torsions:
REMARK  status: ('A' for Active; 'I' for Inactive)
REMARK    1  A    between atoms: N_2  and  C_22
REMARK    2  A    between atoms: N_3  and  C_7
REMARK    3  A    between atoms: N_3  and  O_12
REMARK    4  A    between atoms: C_8  and  C_14
REMARK    5  A    between atoms: C_15  and  C_16
REMARK    6  A    between atoms: C_22  and  C_26
REMARK                            x       y       z     vdW  Elec       q    Type
REMARK                         _______ _______ _______ _____ _____    ______ ____
ROOT
ATOM      1  O   UNL     1      36.973 -21.975 -15.481  0.00  0.00    -0.273 OA
ATOM      2  N   UNL     1      34.688 -22.614 -15.624  0.00  0.00    -0.253 N 
ATOM      3  C   UNL     1      33.685 -22.390 -16.587  0.00  0.00    +0.052 C 
ATOM      4  C   UNL     1      34.187 -21.637 -17.648  0.00  0.00    +0.018 C 
ATOM      5  C   UNL     1      35.881 -22.024 -16.006  0.00  0.00    +0.252 C 
ATOM      6  C   UNL     1      35.579 -21.374 -17.335  0.00  0.00    +0.202 C 
ATOM      7  C   UNL     1      33.423 -21.268 -18.735  0.00  0.00    -0.001 C 
ATOM      8  C   UNL     1      32.367 -22.807 -16.584  0.00  0.00    +0.015 C 
ATOM      9  C   UNL     1      32.091 -21.685 -18.739  0.00  0.00    -0.000 C 
ATOM     10  C   UNL     1      31.568 -22.446 -17.676  0.00  0.00    +0.001 C 
ENDROOT
BRANCH   7  11
ATOM     11  C   UNL     1      33.940 -20.483 -19.841  0.00  0.00    -0.000 C 
ATOM     12  C   UNL     1      33.267 -19.494 -20.481  0.00  0.00    -0.000 C 
BRANCH  12  13
ATOM     13  C   UNL     1      33.798 -18.685 -21.593  0.00  0.00    -0.000 C 
ATOM     14  C   UNL     1      34.604 -17.578 -21.327  0.00  0.00    -0.000 C 
ATOM     15  C   UNL     1      33.496 -19.028 -22.911  0.00  0.00    -0.000 C 
ATOM     16  C   UNL     1      35.106 -16.812 -22.380  0.00  0.00    +0.000 C 
ATOM     17  C   UNL     1      33.998 -18.263 -23.963  0.00  0.00    +0.000 C 
ATOM     18  C   UNL     1      34.802 -17.155 -23.698  0.00  0.00    +0.000 C 
ENDBRANCH  12  13
ENDBRANCH   7  11
BRANCH   6  19
ATOM     19  N   UNL     1      36.446 -20.716 -18.019  0.00  0.00    -0.075 NA
BRANCH  19  20
ATOM     20  O   UNL     1      37.027 -19.753 -17.189  0.00  0.00    -0.294 OA
ATOM     21  H   UNL     1      36.769 -18.854 -17.263  0.00  0.00    +0.238 HD
ENDBRANCH  19  20
ENDBRANCH   6  19
BRANCH   2  22
ATOM     22  C   UNL     1      34.470 -23.363 -14.410  0.00  0.00    +0.128 C 
BRANCH  22  26
ATOM     23  F   UNL     1      36.491 -27.515 -15.937  0.00  0.00    -0.204 F 
ATOM     24  O   UNL     1      36.287 -23.411 -12.284  0.00  0.00    -0.448 OA
ATOM     25  O   UNL     1      37.750 -24.631 -10.824  0.00  0.00    -0.311 OA
ATOM     26  C   UNL     1      35.480 -24.461 -14.238  0.00  0.00    +0.034 C 
ATOM     27  C   UNL     1      36.375 -24.457 -13.168  0.00  0.00    +0.138 C 
ATOM     28  C   UNL     1      37.300 -25.497 -13.012  0.00  0.00    +0.043 C 
ATOM     29  C   UNL     1      35.520 -25.496 -15.171  0.00  0.00    +0.030 C 
ATOM     30  C   UNL     1      38.253 -25.478 -11.857  0.00  0.00    +0.176 C 
ATOM     31  C   UNL     1      37.341 -26.525 -13.960  0.00  0.00    +0.031 C 
ATOM     32  C   UNL     1      36.452 -26.525 -15.035  0.00  0.00    +0.140 C 
ATOM     33  C   UNL     1      37.379 -23.364 -11.361  0.00  0.00    +0.361 C 
ENDBRANCH  22  26
ENDBRANCH   2  22
TORSDOF 6
ENDMDL
MODEL 9
REMARK VINA RESULT:     -10.9      4.015      9.244
REMARK  Name = 45268539
REMARK  6 active torsions:
REMARK  status: ('A' for Active; 'I' for Inactive)
REMARK    1  A    between atoms: N_2  and  C_22
REMARK    2  A    between atoms: N_3  and  C_7
REMARK    3  A    between atoms: N_3  and  O_12
REMARK    4  A    between atoms: C_8  and  C_14
REMARK    5  A    between atoms: C_15  and  C_16
REMARK    6  A    between atoms: C_22  and  C_26
REMARK                            x       y       z     vdW  Elec       q    Type
REMARK                         _______ _______ _______ _____ _____    ______ ____
ROOT
ATOM      1  O   UNL     1      32.996 -20.139 -21.030  0.00  0.00    -0.273 OA
ATOM      2  N   UNL     1      35.040 -20.250 -19.822  0.00  0.00    -0.253 N 
ATOM      3  C   UNL     1      35.418 -20.895 -18.629  0.00  0.00    +0.052 C 
ATOM      4  C   UNL     1      34.338 -21.595 -18.090  0.00  0.00    +0.018 C 
ATOM      5  C   UNL     1      33.709 -20.495 -20.117  0.00  0.00    +0.252 C 
ATOM      6  C   UNL     1      33.223 -21.377 -18.992  0.00  0.00    +0.202 C 
ATOM      7  C   UNL     1      34.422 -22.320 -16.920  0.00  0.00    -0.001 C 
ATOM      8  C   UNL     1      36.646 -20.903 -17.995  0.00  0.00    +0.015 C 
ATOM      9  C   UNL     1      35.659 -22.334 -16.274  0.00  0.00    -0.000 C 
ATOM     10  C   UNL     1      36.759 -21.633 -16.805  0.00  0.00    +0.001 C 
ENDROOT
BRANCH   7  11
ATOM     11  C   UNL     1      33.301 -23.049 -16.354  0.00  0.00    -0.000 C 
ATOM     12  C   UNL     1      32.428 -22.555 -15.441  0.00  0.00    -0.000 C 
BRANCH  12  13
ATOM     13  C   UNL     1      31.280 -23.288 -14.878  0.00  0.00    -0.000 C 
ATOM     14  C   UNL     1      30.061 -23.301 -15.556  0.00  0.00    -0.000 C 
ATOM     15  C   UNL     1      31.413 -23.970 -13.669  0.00  0.00    -0.000 C 
ATOM     16  C   UNL     1      28.974 -23.995 -15.023  0.00  0.00    +0.000 C 
ATOM     17  C   UNL     1      30.327 -24.664 -13.136  0.00  0.00    +0.000 C 
ATOM     18  C   UNL     1      29.107 -24.676 -13.813  0.00  0.00    +0.000 C 
ENDBRANCH  12  13
ENDBRANCH   7  11
BRANCH   6  19
ATOM     19  N   UNL     1      32.021 -21.823 -18.906  0.00  0.00    -0.075 NA
BRANCH  19  20
ATOM     20  O   UNL     1      31.213 -20.819 -18.363  0.00  0.00    -0.294 OA
ATOM     21  H   UNL     1      31.328 -19.929 -18.633  0.00  0.00    +0.238 HD
ENDBRANCH  19  20
ENDBRANCH   6  19
BRANCH   2  22
ATOM     22  C   UNL     1      35.943 -19.448 -20.611  0.00  0.00    +0.128 C 
BRANCH  22  26
ATOM     23  F   UNL     1      34.322 -14.863 -20.643  0.00  0.00    -0.204 F 
ATOM     24  O   UNL     1      34.887 -19.703 -23.188  0.00  0.00    -0.448 OA
ATOM     25  O   UNL     1      33.340 -18.998 -24.883  0.00  0.00    -0.311 OA
ATOM     26  C   UNL     1      35.234 -18.322 -21.306  0.00  0.00    +0.034 C 
ATOM     27  C   UNL     1      34.720 -18.477 -22.594  0.00  0.00    +0.138 C 
ATOM     28  C   UNL     1      34.047 -17.422 -23.222  0.00  0.00    +0.043 C 
ATOM     29  C   UNL     1      35.097 -17.100 -20.649  0.00  0.00    +0.030 C 
ATOM     30  C   UNL     1      33.499 -17.608 -24.604  0.00  0.00    +0.176 C 
ATOM     31  C   UNL     1      33.924 -16.196 -22.560  0.00  0.00    +0.031 C 
ATOM     32  C   UNL     1      34.447 -16.037 -21.276  0.00  0.00    +0.140 C 
ATOM     33  C   UNL     1      34.540 -19.704 -24.577  0.00  0.00    +0.361 C 
ENDBRANCH  22  26
ENDBRANCH   2  22
TORSDOF 6
ENDMDL
