MODEL 1
REMARK VINA RESULT:     -11.9      0.000      0.000
REMARK  Name = 25262792
REMARK  2 active torsions:
REMARK  status: ('A' for Active; 'I' for Inactive)
REMARK    1  A    between atoms: C_24  and  C_25
REMARK    2  A    between atoms: C_28  and  C_33
REMARK                            x       y       z     vdW  Elec       q    Type
REMARK                         _______ _______ _______ _____ _____    ______ ____
ROOT
ATOM      1  O   UNL     1      37.277 -24.514 -12.071  0.00  0.00    -0.350 OA
ATOM      2  O   UNL     1      28.577 -24.672 -14.850  0.00  0.00    -0.350 OA
ATOM      3  N   UNL     1      35.695 -23.744 -14.265  0.00  0.00    -0.282 N 
ATOM      4  N   UNL     1      31.137 -23.582 -15.247  0.00  0.00    -0.230 N 
ATOM      5  N   UNL     1      33.404 -23.673 -14.741  0.00  0.00    -0.315 NA
ATOM      6  N   UNL     1      32.610 -22.455 -16.661  0.00  0.00    -0.265 NA
ATOM      7  N   UNL     1      34.067 -21.336 -18.071  0.00  0.00    -0.342 NA
ATOM      8  C   UNL     1      35.832 -25.176 -13.929  0.00  0.00    +0.105 C 
ATOM      9  C   UNL     1      30.783 -24.153 -13.933  0.00  0.00    +0.114 C 
ATOM     10  C   UNL     1      35.990 -22.799 -13.174  0.00  0.00    +0.125 C 
ATOM     11  C   UNL     1      37.161 -25.395 -13.187  0.00  0.00    +0.162 C 
ATOM     12  C   UNL     1      34.648 -23.300 -15.087  0.00  0.00    +0.194 C 
ATOM     13  C   UNL     1      30.006 -23.144 -16.078  0.00  0.00    +0.135 C 
ATOM     14  C   UNL     1      29.690 -25.212 -14.137  0.00  0.00    +0.163 C 
ATOM     15  C   UNL     1      37.310 -23.159 -12.511  0.00  0.00    +0.164 C 
ATOM     16  C   UNL     1      32.446 -23.220 -15.561  0.00  0.00    +0.213 C 
ATOM     17  C   UNL     1      28.968 -24.257 -16.159  0.00  0.00    +0.164 C 
ATOM     18  C   UNL     1      35.838 -26.065 -15.178  0.00  0.00    +0.024 C 
ATOM     19  C   UNL     1      34.936 -22.512 -16.199  0.00  0.00    +0.199 C 
ATOM     20  C   UNL     1      30.316 -23.059 -12.968  0.00  0.00    +0.025 C 
ATOM     21  C   UNL     1      33.857 -22.095 -16.987  0.00  0.00    +0.138 C 
ATOM     22  C   UNL     1      36.241 -22.133 -16.547  0.00  0.00    +0.002 C 
ATOM     23  C   UNL     1      36.448 -21.347 -17.668  0.00  0.00    +0.030 C 
ATOM     24  C   UNL     1      35.334 -20.979 -18.391  0.00  0.00    +0.143 C 
ENDROOT
BRANCH  24  25
ATOM     25  C   UNL     1      35.453 -20.158 -19.572  0.00  0.00    +0.031 C 
ATOM     26  C   UNL     1      34.377 -20.045 -20.454  0.00  0.00    +0.007 C 
ATOM     27  C   UNL     1      36.641 -19.476 -19.831  0.00  0.00    +0.003 C 
ATOM     28  C   UNL     1      34.492 -19.251 -21.595  0.00  0.00    +0.053 C 
ATOM     29  C   UNL     1      36.756 -18.682 -20.973  0.00  0.00    +0.000 C 
ATOM     30  C   UNL     1      35.680 -18.570 -21.855  0.00  0.00    +0.005 C 
BRANCH  28  33
ATOM     31  O   UNL     1      32.235 -19.511 -22.176  0.00  0.00    -0.270 OA
ATOM     32  N   UNL     1      33.632 -18.559 -23.764  0.00  0.00    -0.299 N 
ATOM     33  C   UNL     1      33.371 -19.133 -22.514  0.00  0.00    +0.246 C 
ATOM     34  C   UNL     1      32.620 -18.351 -24.775  0.00  0.00    +0.111 C 
ATOM     35  H   UNL     1      34.555 -18.282 -23.965  0.00  0.00    +0.150 HD
ENDBRANCH  28  33
ENDBRANCH  24  25
TORSDOF 2
ENDMDL
MODEL 2
REMARK VINA RESULT:     -10.9      1.452      1.621
REMARK  Name = 25262792
REMARK  2 active torsions:
REMARK  status: ('A' for Active; 'I' for Inactive)
REMARK    1  A    between atoms: C_24  and  C_25
REMARK    2  A    between atoms: C_28  and  C_33
REMARK                            x       y       z     vdW  Elec       q    Type
REMARK                         _______ _______ _______ _____ _____    ______ ____
ROOT
ATOM      1  O   UNL     1      37.362 -24.103 -12.735  0.00  0.00    -0.350 OA
ATOM      2  O   UNL     1      28.456 -24.550 -14.714  0.00  0.00    -0.350 OA
ATOM      3  N   UNL     1      35.576 -23.470 -14.814  0.00  0.00    -0.282 N 
ATOM      4  N   UNL     1      30.946 -23.436 -15.391  0.00  0.00    -0.230 N 
ATOM      5  N   UNL     1      33.251 -23.463 -15.086  0.00  0.00    -0.315 NA
ATOM      6  N   UNL     1      32.264 -22.357 -16.984  0.00  0.00    -0.265 NA
ATOM      7  N   UNL     1      33.566 -21.285 -18.572  0.00  0.00    -0.342 NA
ATOM      8  C   UNL     1      35.773 -24.881 -14.423  0.00  0.00    +0.105 C 
ATOM      9  C   UNL     1      30.723 -23.947 -14.025  0.00  0.00    +0.114 C 
ATOM     10  C   UNL     1      35.947 -22.467 -13.801  0.00  0.00    +0.125 C 
ATOM     11  C   UNL     1      37.167 -25.040 -13.793  0.00  0.00    +0.162 C 
ATOM     12  C   UNL     1      34.451 -23.086 -15.560  0.00  0.00    +0.194 C 
ATOM     13  C   UNL     1      29.737 -23.060 -16.139  0.00  0.00    +0.135 C 
ATOM     14  C   UNL     1      29.640 -25.034 -14.079  0.00  0.00    +0.163 C 
ATOM     15  C   UNL     1      37.327 -22.771 -13.242  0.00  0.00    +0.164 C 
ATOM     16  C   UNL     1      32.215 -23.069 -15.839  0.00  0.00    +0.213 C 
ATOM     17  C   UNL     1      28.721 -24.194 -16.072  0.00  0.00    +0.164 C 
ATOM     18  C   UNL     1      35.689 -25.832 -15.623  0.00  0.00    +0.024 C 
ATOM     19  C   UNL     1      34.623 -22.351 -16.730  0.00  0.00    +0.199 C 
ATOM     20  C   UNL     1      30.319 -22.815 -13.076  0.00  0.00    +0.025 C 
ATOM     21  C   UNL     1      33.469 -21.992 -17.438  0.00  0.00    +0.138 C 
ATOM     22  C   UNL     1      35.883 -21.966 -17.211  0.00  0.00    +0.002 C 
ATOM     23  C   UNL     1      35.973 -21.235 -18.382  0.00  0.00    +0.030 C 
ATOM     24  C   UNL     1      34.792 -20.923 -19.020  0.00  0.00    +0.143 C 
ENDROOT
BRANCH  24  25
ATOM     25  C   UNL     1      34.788 -20.160 -20.246  0.00  0.00    +0.031 C 
ATOM     26  C   UNL     1      34.631 -18.774 -20.205  0.00  0.00    +0.007 C 
ATOM     27  C   UNL     1      34.944 -20.808 -21.471  0.00  0.00    +0.003 C 
ATOM     28  C   UNL     1      34.628 -18.038 -21.389  0.00  0.00    +0.053 C 
ATOM     29  C   UNL     1      34.941 -20.071 -22.656  0.00  0.00    +0.000 C 
ATOM     30  C   UNL     1      34.783 -18.685 -22.614  0.00  0.00    +0.005 C 
BRANCH  28  33
ATOM     31  O   UNL     1      34.489 -15.987 -20.260  0.00  0.00    -0.270 OA
ATOM     32  N   UNL     1      34.308 -15.935 -22.572  0.00  0.00    -0.299 N 
ATOM     33  C   UNL     1      34.464 -16.593 -21.347  0.00  0.00    +0.246 C 
ATOM     34  C   UNL     1      34.159 -14.503 -22.697  0.00  0.00    +0.111 C 
ATOM     35  H   UNL     1      34.298 -16.477 -23.394  0.00  0.00    +0.150 HD
ENDBRANCH  28  33
ENDBRANCH  24  25
TORSDOF 2
ENDMDL
MODEL 3
REMARK VINA RESULT:     -10.8      1.315      4.875
REMARK  Name = 25262792
REMARK  2 active torsions:
REMARK  status: ('A' for Active; 'I' for Inactive)
REMARK    1  A    between atoms: C_24  and  C_25
REMARK    2  A    between atoms: C_28  and  C_33
REMARK                            x       y       z     vdW  Elec       q    Type
REMARK                         _______ _______ _______ _____ _____    ______ ____
ROOT
ATOM      1  O   UNL     1      29.101 -24.391 -15.129  0.00  0.00    -0.350 OA
ATOM      2  O   UNL     1      37.901 -24.850 -12.725  0.00  0.00    -0.350 OA
ATOM      3  N   UNL     1      31.587 -23.266 -15.808  0.00  0.00    -0.282 N 
ATOM      4  N   UNL     1      36.050 -24.006 -14.664  0.00  0.00    -0.230 N 
ATOM      5  N   UNL     1      33.821 -23.649 -15.219  0.00  0.00    -0.315 NA
ATOM      6  N   UNL     1      35.594 -22.651 -16.507  0.00  0.00    -0.265 NA
ATOM      7  N   UNL     1      35.149 -21.302 -18.337  0.00  0.00    -0.342 NA
ATOM      8  C   UNL     1      31.018 -23.025 -14.466  0.00  0.00    +0.105 C 
ATOM      9  C   UNL     1      35.682 -25.082 -13.725  0.00  0.00    +0.114 C 
ATOM     10  C   UNL     1      31.068 -24.445 -16.523  0.00  0.00    +0.125 C 
ATOM     11  C   UNL     1      29.487 -23.150 -14.539  0.00  0.00    +0.162 C 
ATOM     12  C   UNL     1      32.953 -23.051 -16.054  0.00  0.00    +0.194 C 
ATOM     13  C   UNL     1      37.491 -23.809 -14.878  0.00  0.00    +0.135 C 
ATOM     14  C   UNL     1      36.503 -24.913 -12.439  0.00  0.00    +0.163 C 
ATOM     15  C   UNL     1      29.548 -24.456 -16.481  0.00  0.00    +0.164 C 
ATOM     16  C   UNL     1      35.109 -23.409 -15.502  0.00  0.00    +0.213 C 
ATOM     17  C   UNL     1      38.200 -23.711 -13.533  0.00  0.00    +0.164 C 
ATOM     18  C   UNL     1      31.351 -21.625 -13.939  0.00  0.00    +0.024 C 
ATOM     19  C   UNL     1      33.339 -22.247 -17.123  0.00  0.00    +0.199 C 
ATOM     20  C   UNL     1      35.919 -26.461 -14.351  0.00  0.00    +0.025 C 
ATOM     21  C   UNL     1      34.712 -22.065 -17.325  0.00  0.00    +0.138 C 
ATOM     22  C   UNL     1      32.419 -21.630 -17.983  0.00  0.00    +0.002 C 
ATOM     23  C   UNL     1      32.880 -20.845 -19.026  0.00  0.00    +0.030 C 
ATOM     24  C   UNL     1      34.246 -20.714 -19.157  0.00  0.00    +0.143 C 
ENDROOT
BRANCH  24  25
ATOM     25  C   UNL     1      34.818 -19.918 -20.217  0.00  0.00    +0.031 C 
ATOM     26  C   UNL     1      34.010 -19.456 -21.257  0.00  0.00    +0.007 C 
ATOM     27  C   UNL     1      36.178 -19.608 -20.200  0.00  0.00    +0.003 C 
ATOM     28  C   UNL     1      34.563 -18.686 -22.280  0.00  0.00    +0.053 C 
ATOM     29  C   UNL     1      36.731 -18.838 -21.224  0.00  0.00    +0.000 C 
ATOM     30  C   UNL     1      35.923 -18.377 -22.264  0.00  0.00    +0.005 C 
BRANCH  28  33
ATOM     31  O   UNL     1      32.830 -18.930 -23.840  0.00  0.00    -0.270 OA
ATOM     32  N   UNL     1      33.949 -16.899 -23.812  0.00  0.00    -0.299 N 
ATOM     33  C   UNL     1      33.721 -18.204 -23.364  0.00  0.00    +0.246 C 
ATOM     34  C   UNL     1      33.181 -16.269 -24.863  0.00  0.00    +0.111 C 
ATOM     35  H   UNL     1      34.671 -16.380 -23.389  0.00  0.00    +0.150 HD
ENDBRANCH  28  33
ENDBRANCH  24  25
TORSDOF 2
ENDMDL
