MODEL 1
REMARK VINA RESULT:     -14.1      0.000      0.000
REMARK  Name = 46926973
REMARK  4 active torsions:
REMARK  status: ('A' for Active; 'I' for Inactive)
REMARK    1  A    between atoms: C_4  and  C_17
REMARK    2  A    between atoms: C_6  and  C_13
REMARK    3  A    between atoms: C_17  and  C_19
REMARK    4  A    between atoms: C_21  and  C_26
REMARK                            x       y       z     vdW  Elec       q    Type
REMARK                         _______ _______ _______ _____ _____    ______ ____
ROOT
ATOM      1  O   UNL     1      36.437 -18.301 -22.077  0.00  0.00    -0.274 OA
ATOM      2  N   UNL     1      34.313 -19.219 -21.655  0.00  0.00    -0.269 N 
ATOM      3  N   UNL     1      33.456 -20.630 -19.961  0.00  0.00    -0.229 NA
ATOM      4  C   UNL     1      35.254 -18.457 -22.362  0.00  0.00    +0.232 C 
ATOM      5  C   UNL     1      34.509 -19.962 -20.484  0.00  0.00    +0.134 C 
ATOM      6  C   UNL     1      34.925 -21.394 -18.199  0.00  0.00    +0.038 C 
ATOM      7  C   UNL     1      35.779 -19.961 -19.931  0.00  0.00    +0.035 C 
ATOM      8  C   UNL     1      35.983 -20.694 -18.768  0.00  0.00    +0.006 C 
ATOM      9  C   UNL     1      33.692 -21.332 -18.830  0.00  0.00    +0.102 C 
ATOM     10  H   UNL     1      33.402 -19.233 -22.028  0.00  0.00    +0.156 HD
ENDROOT
BRANCH   6  13
ATOM     11  N   UNL     1      34.056 -22.922 -16.613  0.00  0.00    -0.241 NA
ATOM     12  N   UNL     1      36.442 -22.851 -15.142  0.00  0.00    -0.239 NA
ATOM     13  C   UNL     1      35.105 -22.165 -16.992  0.00  0.00    +0.102 C 
ATOM     14  C   UNL     1      36.277 -22.131 -16.269  0.00  0.00    +0.118 C 
ATOM     15  C   UNL     1      34.221 -23.643 -15.487  0.00  0.00    +0.119 C 
ATOM     16  C   UNL     1      35.392 -23.608 -14.764  0.00  0.00    +0.120 C 
ENDBRANCH   6  13
BRANCH   4  17
ATOM     17  C   UNL     1      34.620 -17.808 -23.582  0.00  0.00    +0.113 C 
BRANCH  17  19
ATOM     18  N   UNL     1      33.187 -14.360 -24.208  0.00  0.00    -0.244 NA
ATOM     19  C   UNL     1      34.163 -16.393 -23.338  0.00  0.00    +0.006 C 
ATOM     20  C   UNL     1      33.849 -14.501 -21.887  0.00  0.00    -0.004 C 
ATOM     21  C   UNL     1      33.315 -13.826 -22.973  0.00  0.00    +0.077 C 
ATOM     22  C   UNL     1      34.278 -15.809 -22.082  0.00  0.00    -0.005 C 
ATOM     23  C   UNL     1      33.615 -15.632 -24.359  0.00  0.00    +0.095 C 
ATOM     24  C   UNL     1      33.975 -13.876 -20.540  0.00  0.00    +0.033 C 
BRANCH  21  26
ATOM     25  N   UNL     1      31.930  -9.828 -22.664  0.00  0.00    -0.248 NA
ATOM     26  C   UNL     1      32.843 -12.463 -22.868  0.00  0.00    +0.020 C 
ATOM     27  C   UNL     1      31.813 -12.147 -21.987  0.00  0.00    +0.016 C 
ATOM     28  C   UNL     1      33.417 -11.464 -23.646  0.00  0.00    +0.022 C 
ATOM     29  C   UNL     1      31.398 -10.826 -21.924  0.00  0.00    +0.059 C 
ATOM     30  C   UNL     1      32.929 -10.174 -23.509  0.00  0.00    +0.098 C 
ATOM     31  C   UNL     1      30.295 -10.450 -20.991  0.00  0.00    +0.052 C 
ENDBRANCH  21  26
ENDBRANCH  17  19
ENDBRANCH   4  17
TORSDOF 4
ENDMDL
MODEL 2
REMARK VINA RESULT:     -13.8      1.372      2.106
REMARK  Name = 46926973
REMARK  4 active torsions:
REMARK  status: ('A' for Active; 'I' for Inactive)
REMARK    1  A    between atoms: C_4  and  C_17
REMARK    2  A    between atoms: C_6  and  C_13
REMARK    3  A    between atoms: C_17  and  C_19
REMARK    4  A    between atoms: C_21  and  C_26
REMARK                            x       y       z     vdW  Elec       q    Type
REMARK                         _______ _______ _______ _____ _____    ______ ____
ROOT
ATOM      1  O   UNL     1      33.282 -19.440 -21.785  0.00  0.00    -0.274 OA
ATOM      2  N   UNL     1      35.346 -19.544 -20.662  0.00  0.00    -0.269 N 
ATOM      3  N   UNL     1      36.073 -20.624 -18.687  0.00  0.00    -0.229 NA
ATOM      4  C   UNL     1      34.468 -19.144 -21.679  0.00  0.00    +0.232 C 
ATOM      5  C   UNL     1      35.072 -20.359 -19.557  0.00  0.00    +0.134 C 
ATOM      6  C   UNL     1      34.503 -21.953 -17.417  0.00  0.00    +0.038 C 
ATOM      7  C   UNL     1      33.781 -20.846 -19.426  0.00  0.00    +0.035 C 
ATOM      8  C   UNL     1      33.499 -21.657 -18.332  0.00  0.00    +0.006 C 
ATOM      9  C   UNL     1      35.761 -21.416 -17.637  0.00  0.00    +0.102 C 
ATOM     10  H   UNL     1      36.269 -19.212 -20.734  0.00  0.00    +0.156 HD
ENDROOT
BRANCH   6  13
ATOM     11  N   UNL     1      35.305 -23.448 -15.765  0.00  0.00    -0.241 NA
ATOM     12  N   UNL     1      32.742 -23.699 -14.656  0.00  0.00    -0.239 NA
ATOM     13  C   UNL     1      34.241 -22.792 -16.271  0.00  0.00    +0.102 C 
ATOM     14  C   UNL     1      32.982 -22.915 -15.726  0.00  0.00    +0.118 C 
ATOM     15  C   UNL     1      35.064 -24.231 -14.695  0.00  0.00    +0.119 C 
ATOM     16  C   UNL     1      33.805 -24.355 -14.151  0.00  0.00    +0.120 C 
ENDBRANCH   6  13
BRANCH   4  17
ATOM     17  C   UNL     1      35.178 -18.259 -22.692  0.00  0.00    +0.113 C 
BRANCH  17  19
ATOM     18  N   UNL     1      34.070 -14.796 -21.635  0.00  0.00    -0.244 NA
ATOM     19  C   UNL     1      34.617 -16.862 -22.764  0.00  0.00    +0.006 C 
ATOM     20  C   UNL     1      33.625 -15.052 -23.998  0.00  0.00    -0.004 C 
ATOM     21  C   UNL     1      33.614 -14.326 -22.818  0.00  0.00    +0.077 C 
ATOM     22  C   UNL     1      34.139 -16.344 -23.962  0.00  0.00    -0.005 C 
ATOM     23  C   UNL     1      34.560 -16.055 -21.639  0.00  0.00    +0.095 C 
ATOM     24  C   UNL     1      33.112 -14.498 -25.283  0.00  0.00    +0.033 C 
BRANCH  21  26
ATOM     25  N   UNL     1      32.106 -10.365 -22.639  0.00  0.00    -0.248 NA
ATOM     26  C   UNL     1      33.100 -12.976 -22.757  0.00  0.00    +0.020 C 
ATOM     27  C   UNL     1      32.163 -12.628 -21.789  0.00  0.00    +0.016 C 
ATOM     28  C   UNL     1      33.540 -12.020 -23.666  0.00  0.00    +0.022 C 
ATOM     29  C   UNL     1      31.702 -11.321 -21.773  0.00  0.00    +0.059 C 
ATOM     30  C   UNL     1      33.016 -10.741 -23.566  0.00  0.00    +0.098 C 
ATOM     31  C   UNL     1      30.696 -10.913 -20.749  0.00  0.00    +0.052 C 
ENDBRANCH  21  26
ENDBRANCH  17  19
ENDBRANCH   4  17
TORSDOF 4
ENDMDL
MODEL 3
REMARK VINA RESULT:     -13.3      1.241      2.078
REMARK  Name = 46926973
REMARK  4 active torsions:
REMARK  status: ('A' for Active; 'I' for Inactive)
REMARK    1  A    between atoms: C_4  and  C_17
REMARK    2  A    between atoms: C_6  and  C_13
REMARK    3  A    between atoms: C_17  and  C_19
REMARK    4  A    between atoms: C_21  and  C_26
REMARK                            x       y       z     vdW  Elec       q    Type
REMARK                         _______ _______ _______ _____ _____    ______ ____
ROOT
ATOM      1  O   UNL     1      36.963 -18.547 -20.866  0.00  0.00    -0.274 OA
ATOM      2  N   UNL     1      34.867 -19.609 -20.977  0.00  0.00    -0.269 N 
ATOM      3  N   UNL     1      33.739 -21.138 -19.569  0.00  0.00    -0.229 NA
ATOM      4  C   UNL     1      35.892 -18.763 -21.424  0.00  0.00    +0.232 C 
ATOM      5  C   UNL     1      34.836 -20.386 -19.813  0.00  0.00    +0.134 C 
ATOM      6  C   UNL     1      34.808 -21.884 -17.532  0.00  0.00    +0.038 C 
ATOM      7  C   UNL     1      35.940 -20.331 -18.978  0.00  0.00    +0.035 C 
ATOM      8  C   UNL     1      35.919 -21.098 -17.818  0.00  0.00    +0.006 C 
ATOM      9  C   UNL     1      33.754 -21.870 -18.432  0.00  0.00    +0.102 C 
ATOM     10  H   UNL     1      34.071 -19.663 -21.554  0.00  0.00    +0.156 HD
ENDROOT
BRANCH   6  13
ATOM     11  N   UNL     1      35.943 -22.989 -15.773  0.00  0.00    -0.241 NA
ATOM     12  N   UNL     1      33.519 -23.887 -14.687  0.00  0.00    -0.239 NA
ATOM     13  C   UNL     1      34.755 -22.692 -16.337  0.00  0.00    +0.102 C 
ATOM     14  C   UNL     1      33.565 -23.133 -15.803  0.00  0.00    +0.118 C 
ATOM     15  C   UNL     1      35.897 -23.742 -14.657  0.00  0.00    +0.119 C 
ATOM     16  C   UNL     1      34.707 -24.184 -14.123  0.00  0.00    +0.120 C 
ENDBRANCH   6  13
BRANCH   4  17
ATOM     17  C   UNL     1      35.515 -18.104 -22.742  0.00  0.00    +0.113 C 
BRANCH  17  19
ATOM     18  N   UNL     1      34.022 -15.038 -21.096  0.00  0.00    -0.244 NA
ATOM     19  C   UNL     1      34.796 -16.790 -22.570  0.00  0.00    +0.006 C 
ATOM     20  C   UNL     1      33.596 -14.912 -23.473  0.00  0.00    -0.004 C 
ATOM     21  C   UNL     1      33.508 -14.417 -22.182  0.00  0.00    +0.077 C 
ATOM     22  C   UNL     1      34.255 -16.122 -23.662  0.00  0.00    -0.005 C 
ATOM     23  C   UNL     1      34.654 -16.211 -21.319  0.00  0.00    +0.095 C 
ATOM     24  C   UNL     1      33.015 -14.197 -24.645  0.00  0.00    +0.033 C 
BRANCH  21  26
ATOM     25  N   UNL     1      31.555 -10.753 -21.316  0.00  0.00    -0.248 NA
ATOM     26  C   UNL     1      32.842 -13.168 -21.887  0.00  0.00    +0.020 C 
ATOM     27  C   UNL     1      32.923 -12.105 -22.780  0.00  0.00    +0.016 C 
ATOM     28  C   UNL     1      32.118 -13.025 -20.709  0.00  0.00    +0.022 C 
ATOM     29  C   UNL     1      32.267 -10.929 -22.450  0.00  0.00    +0.059 C 
ATOM     30  C   UNL     1      31.499 -11.808 -20.472  0.00  0.00    +0.098 C 
ATOM     31  C   UNL     1      32.333  -9.768 -23.386  0.00  0.00    +0.052 C 
ENDBRANCH  21  26
ENDBRANCH  17  19
ENDBRANCH   4  17
TORSDOF 4
ENDMDL
MODEL 4
REMARK VINA RESULT:     -13.2      2.630     11.341
REMARK  Name = 46926973
REMARK  4 active torsions:
REMARK  status: ('A' for Active; 'I' for Inactive)
REMARK    1  A    between atoms: C_4  and  C_17
REMARK    2  A    between atoms: C_6  and  C_13
REMARK    3  A    between atoms: C_17  and  C_19
REMARK    4  A    between atoms: C_21  and  C_26
REMARK                            x       y       z     vdW  Elec       q    Type
REMARK                         _______ _______ _______ _____ _____    ______ ____
ROOT
ATOM      1  O   UNL     1      32.298 -13.631 -22.498  0.00  0.00    -0.274 OA
ATOM      2  N   UNL     1      33.661 -12.000 -23.504  0.00  0.00    -0.269 N 
ATOM      3  N   UNL     1      33.642  -9.635 -23.501  0.00  0.00    -0.229 NA
ATOM      4  C   UNL     1      33.251 -13.305 -23.198  0.00  0.00    +0.232 C 
ATOM      5  C   UNL     1      33.084 -10.794 -23.087  0.00  0.00    +0.134 C 
ATOM      6  C   UNL     1      31.935  -8.464 -22.251  0.00  0.00    +0.038 C 
ATOM      7  C   UNL     1      31.969 -10.869 -22.268  0.00  0.00    +0.035 C 
ATOM      8  C   UNL     1      31.389  -9.678 -21.847  0.00  0.00    +0.006 C 
ATOM      9  C   UNL     1      33.051  -8.497 -23.072  0.00  0.00    +0.102 C 
ATOM     10  H   UNL     1      34.453 -11.921 -24.084  0.00  0.00    +0.156 HD
ENDROOT
BRANCH   6  13
ATOM     11  N   UNL     1      31.713  -6.776 -20.606  0.00  0.00    -0.241 NA
ATOM     12  N   UNL     1      29.951  -5.329 -22.239  0.00  0.00    -0.239 NA
ATOM     13  C   UNL     1      31.356  -7.210 -21.832  0.00  0.00    +0.102 C 
ATOM     14  C   UNL     1      30.491  -6.499 -22.634  0.00  0.00    +0.118 C 
ATOM     15  C   UNL     1      31.174  -5.606 -20.212  0.00  0.00    +0.119 C 
ATOM     16  C   UNL     1      30.308  -4.895 -21.013  0.00  0.00    +0.120 C 
ENDBRANCH   6  13
BRANCH   4  17
ATOM     17  C   UNL     1      34.163 -14.328 -23.858  0.00  0.00    +0.113 C 
BRANCH  17  19
ATOM     18  N   UNL     1      34.632 -16.716 -20.957  0.00  0.00    -0.244 NA
ATOM     19  C   UNL     1      34.283 -15.613 -23.079  0.00  0.00    +0.006 C 
ATOM     20  C   UNL     1      34.284 -18.016 -22.966  0.00  0.00    -0.004 C 
ATOM     21  C   UNL     1      34.514 -17.896 -21.605  0.00  0.00    +0.077 C 
ATOM     22  C   UNL     1      34.167 -16.846 -23.710  0.00  0.00    -0.005 C 
ATOM     23  C   UNL     1      34.513 -15.602 -21.713  0.00  0.00    +0.095 C 
ATOM     24  C   UNL     1      34.161 -19.337 -23.644  0.00  0.00    +0.033 C 
BRANCH  21  26
ATOM     25  N   UNL     1      34.914 -21.293 -19.096  0.00  0.00    -0.248 NA
ATOM     26  C   UNL     1      34.650 -19.054 -20.749  0.00  0.00    +0.020 C 
ATOM     27  C   UNL     1      33.518 -19.711 -20.277  0.00  0.00    +0.016 C 
ATOM     28  C   UNL     1      35.913 -19.516 -20.396  0.00  0.00    +0.022 C 
ATOM     29  C   UNL     1      33.703 -20.816 -19.461  0.00  0.00    +0.059 C 
ATOM     30  C   UNL     1      35.990 -20.629 -19.574  0.00  0.00    +0.098 C 
ATOM     31  C   UNL     1      32.511 -21.545 -18.936  0.00  0.00    +0.052 C 
ENDBRANCH  21  26
ENDBRANCH  17  19
ENDBRANCH   4  17
TORSDOF 4
ENDMDL
MODEL 5
REMARK VINA RESULT:     -13.1      0.821      1.486
REMARK  Name = 46926973
REMARK  4 active torsions:
REMARK  status: ('A' for Active; 'I' for Inactive)
REMARK    1  A    between atoms: C_4  and  C_17
REMARK    2  A    between atoms: C_6  and  C_13
REMARK    3  A    between atoms: C_17  and  C_19
REMARK    4  A    between atoms: C_21  and  C_26
REMARK                            x       y       z     vdW  Elec       q    Type
REMARK                         _______ _______ _______ _____ _____    ______ ____
ROOT
ATOM      1  O   UNL     1      36.184 -18.463 -22.086  0.00  0.00    -0.274 OA
ATOM      2  N   UNL     1      33.896 -18.973 -21.892  0.00  0.00    -0.269 N 
ATOM      3  N   UNL     1      32.639 -20.265 -20.361  0.00  0.00    -0.229 NA
ATOM      4  C   UNL     1      35.023 -18.377 -22.475  0.00  0.00    +0.232 C 
ATOM      5  C   UNL     1      33.842 -19.789 -20.756  0.00  0.00    +0.134 C 
ATOM      6  C   UNL     1      33.773 -21.373 -18.534  0.00  0.00    +0.038 C 
ATOM      7  C   UNL     1      35.034 -20.056 -20.103  0.00  0.00    +0.035 C 
ATOM      8  C   UNL     1      34.991 -20.865 -18.973  0.00  0.00    +0.006 C 
ATOM      9  C   UNL     1      32.637 -21.047 -19.257  0.00  0.00    +0.102 C 
ATOM     10  H   UNL     1      33.036 -18.797 -22.338  0.00  0.00    +0.156 HD
ENDROOT
BRANCH   6  13
ATOM     11  N   UNL     1      32.470 -22.684 -17.056  0.00  0.00    -0.241 NA
ATOM     12  N   UNL     1      34.729 -23.308 -15.517  0.00  0.00    -0.239 NA
ATOM     13  C   UNL     1      33.695 -22.215 -17.365  0.00  0.00    +0.102 C 
ATOM     14  C   UNL     1      34.805 -22.522 -16.608  0.00  0.00    +0.118 C 
ATOM     15  C   UNL     1      32.394 -23.471 -15.964  0.00  0.00    +0.119 C 
ATOM     16  C   UNL     1      33.503 -23.777 -15.208  0.00  0.00    +0.120 C 
ENDBRANCH   6  13
BRANCH   4  17
ATOM     17  C   UNL     1      34.635 -17.566 -23.701  0.00  0.00    +0.113 C 
BRANCH  17  19
ATOM     18  N   UNL     1      32.902 -14.220 -24.070  0.00  0.00    -0.244 NA
ATOM     19  C   UNL     1      34.112 -16.192 -23.370  0.00  0.00    +0.006 C 
ATOM     20  C   UNL     1      33.838 -14.353 -21.844  0.00  0.00    -0.004 C 
ATOM     21  C   UNL     1      33.136 -13.699 -22.844  0.00  0.00    +0.077 C 
ATOM     22  C   UNL     1      34.332 -15.623 -22.121  0.00  0.00    -0.005 C 
ATOM     23  C   UNL     1      33.397 -15.455 -24.302  0.00  0.00    +0.095 C 
ATOM     24  C   UNL     1      34.076 -13.745 -20.505  0.00  0.00    +0.033 C 
BRANCH  21  26
ATOM     25  N   UNL     1      31.520  -9.819 -22.276  0.00  0.00    -0.248 NA
ATOM     26  C   UNL     1      32.585 -12.376 -22.650  0.00  0.00    +0.020 C 
ATOM     27  C   UNL     1      33.254 -11.262 -23.146  0.00  0.00    +0.016 C 
ATOM     28  C   UNL     1      31.385 -12.213 -21.968  0.00  0.00    +0.022 C 
ATOM     29  C   UNL     1      32.684 -10.017 -22.934  0.00  0.00    +0.059 C 
ATOM     30  C   UNL     1      30.899 -10.925 -21.809  0.00  0.00    +0.098 C 
ATOM     31  C   UNL     1      33.374  -8.799 -23.452  0.00  0.00    +0.052 C 
ENDBRANCH  21  26
ENDBRANCH  17  19
ENDBRANCH   4  17
TORSDOF 4
ENDMDL
MODEL 6
REMARK VINA RESULT:     -13.0      1.927     10.659
REMARK  Name = 46926973
REMARK  4 active torsions:
REMARK  status: ('A' for Active; 'I' for Inactive)
REMARK    1  A    between atoms: C_4  and  C_17
REMARK    2  A    between atoms: C_6  and  C_13
REMARK    3  A    between atoms: C_17  and  C_19
REMARK    4  A    between atoms: C_21  and  C_26
REMARK                            x       y       z     vdW  Elec       q    Type
REMARK                         _______ _______ _______ _____ _____    ______ ____
ROOT
ATOM      1  O   UNL     1      36.132 -18.687 -19.815  0.00  0.00    -0.274 OA
ATOM      2  N   UNL     1      34.990 -19.344 -21.764  0.00  0.00    -0.269 N 
ATOM      3  N   UNL     1      33.909 -18.154 -23.499  0.00  0.00    -0.229 NA
ATOM      4  C   UNL     1      35.707 -19.550 -20.577  0.00  0.00    +0.232 C 
ATOM      5  C   UNL     1      34.602 -18.127 -22.338  0.00  0.00    +0.134 C 
ATOM      6  C   UNL     1      33.866 -15.737 -23.429  0.00  0.00    +0.038 C 
ATOM      7  C   UNL     1      34.959 -16.965 -21.673  0.00  0.00    +0.035 C 
ATOM      8  C   UNL     1      34.579 -15.751 -22.235  0.00  0.00    +0.006 C 
ATOM      9  C   UNL     1      33.558 -16.954 -24.015  0.00  0.00    +0.102 C 
ATOM     10  H   UNL     1      34.727 -20.156 -22.255  0.00  0.00    +0.156 HD
ENDROOT
BRANCH   6  13
ATOM     11  N   UNL     1      33.158 -14.550 -25.351  0.00  0.00    -0.241 NA
ATOM     12  N   UNL     1      32.997 -12.160 -23.893  0.00  0.00    -0.239 NA
ATOM     13  C   UNL     1      33.458 -14.493 -24.037  0.00  0.00    +0.102 C 
ATOM     14  C   UNL     1      33.379 -13.319 -23.321  0.00  0.00    +0.118 C 
ATOM     15  C   UNL     1      32.775 -13.390 -25.921  0.00  0.00    +0.119 C 
ATOM     16  C   UNL     1      32.697 -12.216 -25.206  0.00  0.00    +0.120 C 
ENDBRANCH   6  13
BRANCH   4  17
ATOM     17  C   UNL     1      35.918 -21.035 -20.321  0.00  0.00    +0.113 C 
BRANCH  17  19
ATOM     18  N   UNL     1      33.657 -22.443 -17.631  0.00  0.00    -0.244 NA
ATOM     19  C   UNL     1      35.427 -21.485 -18.970  0.00  0.00    +0.006 C 
ATOM     20  C   UNL     1      35.750 -21.798 -16.607  0.00  0.00    -0.004 C 
ATOM     21  C   UNL     1      34.468 -22.320 -16.556  0.00  0.00    +0.077 C 
ATOM     22  C   UNL     1      36.231 -21.375 -17.842  0.00  0.00    -0.005 C 
ATOM     23  C   UNL     1      34.158 -22.021 -18.812  0.00  0.00    +0.095 C 
ATOM     24  C   UNL     1      36.614 -21.678 -15.399  0.00  0.00    +0.033 C 
BRANCH  21  26
ATOM     25  N   UNL     1      32.749 -23.685 -12.926  0.00  0.00    -0.248 NA
ATOM     26  C   UNL     1      33.882 -22.785 -15.319  0.00  0.00    +0.020 C 
ATOM     27  C   UNL     1      32.525 -22.598 -15.075  0.00  0.00    +0.016 C 
ATOM     28  C   UNL     1      34.672 -23.422 -14.368  0.00  0.00    +0.022 C 
ATOM     29  C   UNL     1      32.013 -23.062 -13.873  0.00  0.00    +0.059 C 
ATOM     30  C   UNL     1      34.063 -23.849 -13.199  0.00  0.00    +0.098 C 
ATOM     31  C   UNL     1      30.561 -22.877 -13.577  0.00  0.00    +0.052 C 
ENDBRANCH  21  26
ENDBRANCH  17  19
ENDBRANCH   4  17
TORSDOF 4
ENDMDL
MODEL 7
REMARK VINA RESULT:     -13.0      2.374      3.836
REMARK  Name = 46926973
REMARK  4 active torsions:
REMARK  status: ('A' for Active; 'I' for Inactive)
REMARK    1  A    between atoms: C_4  and  C_17
REMARK    2  A    between atoms: C_6  and  C_13
REMARK    3  A    between atoms: C_17  and  C_19
REMARK    4  A    between atoms: C_21  and  C_26
REMARK                            x       y       z     vdW  Elec       q    Type
REMARK                         _______ _______ _______ _____ _____    ______ ____
ROOT
ATOM      1  O   UNL     1      32.848 -20.244 -20.508  0.00  0.00    -0.274 OA
ATOM      2  N   UNL     1      34.585 -20.955 -19.090  0.00  0.00    -0.269 N 
ATOM      3  N   UNL     1      34.637 -22.166 -17.059  0.00  0.00    -0.229 NA
ATOM      4  C   UNL     1      34.037 -20.324 -20.216  0.00  0.00    +0.232 C 
ATOM      5  C   UNL     1      33.910 -21.623 -18.061  0.00  0.00    +0.134 C 
ATOM      6  C   UNL     1      32.561 -22.922 -16.077  0.00  0.00    +0.038 C 
ATOM      7  C   UNL     1      32.528 -21.688 -18.140  0.00  0.00    +0.035 C 
ATOM      8  C   UNL     1      31.848 -22.350 -17.125  0.00  0.00    +0.006 C 
ATOM      9  C   UNL     1      33.942 -22.803 -16.090  0.00  0.00    +0.102 C 
ATOM     10  H   UNL     1      35.566 -20.924 -19.013  0.00  0.00    +0.156 HD
ENDROOT
BRANCH   6  13
ATOM     11  N   UNL     1      30.587 -23.912 -15.224  0.00  0.00    -0.241 NA
ATOM     12  N   UNL     1      31.889 -24.606 -12.839  0.00  0.00    -0.239 NA
ATOM     13  C   UNL     1      31.885 -23.617 -15.007  0.00  0.00    +0.102 C 
ATOM     14  C   UNL     1      32.524 -23.958 -13.836  0.00  0.00    +0.118 C 
ATOM     15  C   UNL     1      29.953 -24.560 -14.227  0.00  0.00    +0.119 C 
ATOM     16  C   UNL     1      30.591 -24.901 -13.056  0.00  0.00    +0.120 C 
ENDBRANCH   6  13
BRANCH   4  17
ATOM     17  C   UNL     1      35.130 -19.721 -21.085  0.00  0.00    +0.113 C 
BRANCH  17  19
ATOM     18  N   UNL     1      34.548 -15.994 -21.411  0.00  0.00    -0.244 NA
ATOM     19  C   UNL     1      34.755 -18.387 -21.678  0.00  0.00    +0.006 C 
ATOM     20  C   UNL     1      33.946 -17.046 -23.503  0.00  0.00    -0.004 C 
ATOM     21  C   UNL     1      34.095 -15.939 -22.684  0.00  0.00    +0.077 C 
ATOM     22  C   UNL     1      34.285 -18.290 -22.983  0.00  0.00    -0.005 C 
ATOM     23  C   UNL     1      34.868 -17.220 -20.940  0.00  0.00    +0.095 C 
ATOM     24  C   UNL     1      33.442 -16.944 -24.902  0.00  0.00    +0.033 C 
BRANCH  21  26
ATOM     25  N   UNL     1      33.135 -12.026 -24.010  0.00  0.00    -0.248 NA
ATOM     26  C   UNL     1      33.768 -14.605 -23.136  0.00  0.00    +0.020 C 
ATOM     27  C   UNL     1      33.335 -14.396 -24.441  0.00  0.00    +0.016 C 
ATOM     28  C   UNL     1      33.885 -13.525 -22.267  0.00  0.00    +0.022 C 
ATOM     29  C   UNL     1      33.034 -13.099 -24.825  0.00  0.00    +0.059 C 
ATOM     30  C   UNL     1      33.560 -12.267 -22.748  0.00  0.00    +0.098 C 
ATOM     31  C   UNL     1      32.566 -12.838 -26.218  0.00  0.00    +0.052 C 
ENDBRANCH  21  26
ENDBRANCH  17  19
ENDBRANCH   4  17
TORSDOF 4
ENDMDL
MODEL 8
REMARK VINA RESULT:     -13.0      1.523      2.586
REMARK  Name = 46926973
REMARK  4 active torsions:
REMARK  status: ('A' for Active; 'I' for Inactive)
REMARK    1  A    between atoms: C_4  and  C_17
REMARK    2  A    between atoms: C_6  and  C_13
REMARK    3  A    between atoms: C_17  and  C_19
REMARK    4  A    between atoms: C_21  and  C_26
REMARK                            x       y       z     vdW  Elec       q    Type
REMARK                         _______ _______ _______ _____ _____    ______ ____
ROOT
ATOM      1  O   UNL     1      36.800 -18.864 -19.932  0.00  0.00    -0.274 OA
ATOM      2  N   UNL     1      35.142 -20.527 -19.810  0.00  0.00    -0.269 N 
ATOM      3  N   UNL     1      34.496 -22.064 -18.132  0.00  0.00    -0.229 NA
ATOM      4  C   UNL     1      35.868 -19.495 -20.420  0.00  0.00    +0.232 C 
ATOM      5  C   UNL     1      35.314 -21.062 -18.528  0.00  0.00    +0.134 C 
ATOM      6  C   UNL     1      35.675 -22.078 -16.021  0.00  0.00    +0.038 C 
ATOM      7  C   UNL     1      36.318 -20.523 -17.740  0.00  0.00    +0.035 C 
ATOM      8  C   UNL     1      36.497 -21.047 -16.465  0.00  0.00    +0.006 C 
ATOM      9  C   UNL     1      34.700 -22.548 -16.886  0.00  0.00    +0.102 C 
ATOM     10  H   UNL     1      34.421 -20.925 -20.350  0.00  0.00    +0.156 HD
ENDROOT
BRANCH   6  13
ATOM     11  N   UNL     1      37.103 -22.749 -14.256  0.00  0.00    -0.241 NA
ATOM     12  N   UNL     1      34.913 -23.577 -12.714  0.00  0.00    -0.239 NA
ATOM     13  C   UNL     1      35.835 -22.643 -14.702  0.00  0.00    +0.102 C 
ATOM     14  C   UNL     1      34.760 -23.050 -13.944  0.00  0.00    +0.118 C 
ATOM     15  C   UNL     1      37.256 -23.275 -13.025  0.00  0.00    +0.119 C 
ATOM     16  C   UNL     1      36.181 -23.683 -12.268  0.00  0.00    +0.120 C 
ENDBRANCH   6  13
BRANCH   4  17
ATOM     17  C   UNL     1      35.350 -19.223 -21.824  0.00  0.00    +0.113 C 
BRANCH  17  19
ATOM     18  N   UNL     1      34.364 -15.649 -21.057  0.00  0.00    -0.244 NA
ATOM     19  C   UNL     1      34.841 -17.817 -22.013  0.00  0.00    +0.006 C 
ATOM     20  C   UNL     1      33.927 -16.075 -23.396  0.00  0.00    -0.004 C 
ATOM     21  C   UNL     1      33.934 -15.258 -22.278  0.00  0.00    +0.077 C 
ATOM     22  C   UNL     1      34.391 -17.379 -23.252  0.00  0.00    -0.005 C 
ATOM     23  C   UNL     1      34.807 -16.921 -20.956  0.00  0.00    +0.095 C 
ATOM     24  C   UNL     1      33.443 -15.608 -24.726  0.00  0.00    +0.033 C 
BRANCH  21  26
ATOM     25  N   UNL     1      32.573 -11.244 -22.429  0.00  0.00    -0.248 NA
ATOM     26  C   UNL     1      33.470 -13.890 -22.329  0.00  0.00    +0.020 C 
ATOM     27  C   UNL     1      32.699 -13.374 -21.292  0.00  0.00    +0.016 C 
ATOM     28  C   UNL     1      33.793 -13.084 -23.415  0.00  0.00    +0.022 C 
ATOM     29  C   UNL     1      32.280 -12.057 -21.390  0.00  0.00    +0.059 C 
ATOM     30  C   UNL     1      33.324 -11.780 -23.417  0.00  0.00    +0.098 C 
ATOM     31  C   UNL     1      31.451 -11.470 -20.296  0.00  0.00    +0.052 C 
ENDBRANCH  21  26
ENDBRANCH  17  19
ENDBRANCH   4  17
TORSDOF 4
ENDMDL
MODEL 9
REMARK VINA RESULT:     -12.9      2.151      4.165
REMARK  Name = 46926973
REMARK  4 active torsions:
REMARK  status: ('A' for Active; 'I' for Inactive)
REMARK    1  A    between atoms: C_4  and  C_17
REMARK    2  A    between atoms: C_6  and  C_13
REMARK    3  A    between atoms: C_17  and  C_19
REMARK    4  A    between atoms: C_21  and  C_26
REMARK                            x       y       z     vdW  Elec       q    Type
REMARK                         _______ _______ _______ _____ _____    ______ ____
ROOT
ATOM      1  O   UNL     1      33.992 -21.169 -19.396  0.00  0.00    -0.274 OA
ATOM      2  N   UNL     1      36.191 -21.214 -18.564  0.00  0.00    -0.269 N 
ATOM      3  N   UNL     1      37.130 -21.791 -16.471  0.00  0.00    -0.229 NA
ATOM      4  C   UNL     1      35.200 -21.003 -19.532  0.00  0.00    +0.232 C 
ATOM      5  C   UNL     1      36.029 -21.653 -17.244  0.00  0.00    +0.134 C 
ATOM      6  C   UNL     1      35.675 -22.514 -14.679  0.00  0.00    +0.038 C 
ATOM      7  C   UNL     1      34.739 -21.922 -16.814  0.00  0.00    +0.035 C 
ATOM      8  C   UNL     1      34.568 -22.359 -15.505  0.00  0.00    +0.006 C 
ATOM      9  C   UNL     1      36.923 -22.218 -15.204  0.00  0.00    +0.102 C 
ATOM     10  H   UNL     1      37.116 -21.032 -18.847  0.00  0.00    +0.156 HD
ENDROOT
BRANCH   6  13
ATOM     11  N   UNL     1      36.541 -22.654 -12.480  0.00  0.00    -0.241 NA
ATOM     12  N   UNL     1      34.293 -24.092 -11.619  0.00  0.00    -0.239 NA
ATOM     13  C   UNL     1      35.530 -22.965 -13.316  0.00  0.00    +0.102 C 
ATOM     14  C   UNL     1      34.425 -23.672 -12.892  0.00  0.00    +0.118 C 
ATOM     15  C   UNL     1      36.407 -23.074 -11.206  0.00  0.00    +0.119 C 
ATOM     16  C   UNL     1      35.304 -23.781 -10.783  0.00  0.00    +0.120 C 
ENDBRANCH   6  13
BRANCH   4  17
ATOM     17  C   UNL     1      35.812 -20.526 -20.840  0.00  0.00    +0.113 C 
BRANCH  17  19
ATOM     18  N   UNL     1      35.020 -16.825 -20.766  0.00  0.00    -0.244 NA
ATOM     19  C   UNL     1      35.320 -19.169 -21.272  0.00  0.00    +0.006 C 
ATOM     20  C   UNL     1      34.283 -17.720 -22.887  0.00  0.00    -0.004 C 
ATOM     21  C   UNL     1      34.451 -16.683 -21.984  0.00  0.00    +0.077 C 
ATOM     22  C   UNL     1      34.729 -18.984 -22.516  0.00  0.00    -0.005 C 
ATOM     23  C   UNL     1      35.441 -18.067 -20.441  0.00  0.00    +0.095 C 
ATOM     24  C   UNL     1      33.648 -17.524 -24.222  0.00  0.00    +0.033 C 
BRANCH  21  26
ATOM     25  N   UNL     1      33.182 -12.730 -22.851  0.00  0.00    -0.248 NA
ATOM     26  C   UNL     1      34.018 -15.336 -22.280  0.00  0.00    +0.020 C 
ATOM     27  C   UNL     1      33.656 -14.987 -23.577  0.00  0.00    +0.016 C 
ATOM     28  C   UNL     1      33.963 -14.383 -21.269  0.00  0.00    +0.022 C 
ATOM     29  C   UNL     1      33.248 -13.682 -23.807  0.00  0.00    +0.059 C 
ATOM     30  C   UNL     1      33.543 -13.105 -21.603  0.00  0.00    +0.098 C 
ATOM     31  C   UNL     1      32.852 -13.273 -25.187  0.00  0.00    +0.052 C 
ENDBRANCH  21  26
ENDBRANCH  17  19
ENDBRANCH   4  17
TORSDOF 4
ENDMDL
