MODEL 1
REMARK VINA RESULT:     -12.6      0.000      0.000
REMARK  Name = 46207586
REMARK  7 active torsions:
REMARK  status: ('A' for Active; 'I' for Inactive)
REMARK    1  A    between atoms: C_6  and  C_13
REMARK    2  A    between atoms: C_7  and  C_34
REMARK    3  A    between atoms: C_16  and  N_20
REMARK    4  A    between atoms: N_21  and  C_26
REMARK    5  A    between atoms: N_32  and  C_37
REMARK    6  A    between atoms: C_37  and  C_38
REMARK    7  A    between atoms: C_38  and  O_39
REMARK                            x       y       z     vdW  Elec       q    Type
REMARK                         _______ _______ _______ _____ _____    ______ ____
ROOT
ATOM      1  S   UNL     1      34.142 -15.084 -20.304  0.00  0.00    -0.086 S 
ATOM      2  N   UNL     1      33.670 -15.779 -24.705  0.00  0.00    -0.230 NA
ATOM      3  N   UNL     1      32.812 -13.586 -24.914  0.00  0.00    -0.343 N 
ATOM      4  C   UNL     1      33.494 -14.434 -22.722  0.00  0.00    +0.038 C 
ATOM      5  C   UNL     1      34.018 -15.492 -21.974  0.00  0.00    +0.034 C 
ATOM      6  C   UNL     1      33.207 -13.302 -21.887  0.00  0.00    +0.010 C 
ATOM      7  C   UNL     1      34.373 -16.704 -22.581  0.00  0.00    +0.028 C 
ATOM      8  C   UNL     1      33.333 -14.615 -24.104  0.00  0.00    +0.126 C 
ATOM      9  C   UNL     1      33.511 -13.522 -20.564  0.00  0.00    +0.036 C 
ATOM     10  C   UNL     1      34.171 -16.774 -23.947  0.00  0.00    +0.101 C 
ATOM     11  H   UNL     1      32.704 -13.729 -25.882  0.00  0.00    +0.144 HD
ATOM     12  H   UNL     1      32.556 -12.725 -24.511  0.00  0.00    +0.144 HD
ENDROOT
BRANCH   6  13
ATOM     13  C   UNL     1      32.662 -12.024 -22.273  0.00  0.00    +0.001 C 
ATOM     14  C   UNL     1      31.467 -11.576 -21.712  0.00  0.00    +0.001 C 
ATOM     15  C   UNL     1      33.333 -11.235 -23.208  0.00  0.00    +0.001 C 
ATOM     16  C   UNL     1      31.611  -9.550 -23.021  0.00  0.00    +0.052 C 
ATOM     17  C   UNL     1      30.940 -10.339 -22.086  0.00  0.00    +0.015 C 
ATOM     18  C   UNL     1      32.807  -9.997 -23.582  0.00  0.00    +0.015 C 
BRANCH  16  20
ATOM     19  O   UNL     1      32.504  -6.787 -22.321  0.00  0.00    -0.252 OA
ATOM     20  N   UNL     1      31.086  -8.313 -23.394  0.00  0.00    -0.268 N 
ATOM     21  N   UNL     1      30.718  -6.045 -23.635  0.00  0.00    -0.268 N 
ATOM     22  C   UNL     1      31.538  -7.018 -23.040  0.00  0.00    +0.308 C 
ATOM     23  H   UNL     1      30.295  -8.344 -23.980  0.00  0.00    +0.156 HD
ATOM     24  H   UNL     1      29.978  -6.384 -24.189  0.00  0.00    +0.156 HD
BRANCH  21  26
ATOM     25  F   UNL     1      29.614  -1.915 -21.451  0.00  0.00    -0.204 F 
ATOM     26  C   UNL     1      30.825  -4.637 -23.538  0.00  0.00    +0.054 C 
ATOM     27  C   UNL     1      30.154  -3.957 -22.522  0.00  0.00    +0.044 C 
ATOM     28  C   UNL     1      31.600  -3.931 -24.458  0.00  0.00    +0.015 C 
ATOM     29  C   UNL     1      30.257  -2.569 -22.426  0.00  0.00    +0.141 C 
ATOM     30  C   UNL     1      31.703  -2.543 -24.362  0.00  0.00    +0.004 C 
ATOM     31  C   UNL     1      31.032  -1.862 -23.346  0.00  0.00    +0.030 C 
ENDBRANCH  21  26
ENDBRANCH  16  20
ENDBRANCH   6  13
BRANCH   7  34
ATOM     32  N   UNL     1      35.033 -19.638 -20.659  0.00  0.00    -0.208 N 
ATOM     33  N   UNL     1      36.316 -19.247 -20.762  0.00  0.00    -0.176 NA
ATOM     34  C   UNL     1      34.911 -17.798 -21.831  0.00  0.00    +0.039 C 
ATOM     35  C   UNL     1      34.153 -18.803 -21.282  0.00  0.00    +0.086 C 
ATOM     36  C   UNL     1      36.234 -18.124 -21.479  0.00  0.00    +0.119 C 
BRANCH  32  37
ATOM     37  C   UNL     1      34.708 -20.842 -19.935  0.00  0.00    +0.148 C 
BRANCH  37  38
ATOM     38  C   UNL     1      35.672 -21.107 -18.784  0.00  0.00    +0.161 C 
BRANCH  38  39
ATOM     39  O   UNL     1      35.021 -21.879 -17.782  0.00  0.00    -0.380 OA
ATOM     40  H   UNL     1      35.596 -21.948 -17.003  0.00  0.00    +0.211 HD
ENDBRANCH  38  39
ENDBRANCH  37  38
ENDBRANCH  32  37
ENDBRANCH   7  34
TORSDOF 7
ENDMDL
MODEL 2
REMARK VINA RESULT:     -10.9      4.390     12.733
REMARK  Name = 46207586
REMARK  7 active torsions:
REMARK  status: ('A' for Active; 'I' for Inactive)
REMARK    1  A    between atoms: C_6  and  C_13
REMARK    2  A    between atoms: C_7  and  C_34
REMARK    3  A    between atoms: C_16  and  N_20
REMARK    4  A    between atoms: N_21  and  C_26
REMARK    5  A    between atoms: N_32  and  C_37
REMARK    6  A    between atoms: C_37  and  C_38
REMARK    7  A    between atoms: C_38  and  O_39
REMARK                            x       y       z     vdW  Elec       q    Type
REMARK                         _______ _______ _______ _____ _____    ______ ____
ROOT
ATOM      1  S   UNL     1      31.349  -7.097 -23.820  0.00  0.00    -0.086 S 
ATOM      2  N   UNL     1      31.566  -7.809 -19.402  0.00  0.00    -0.230 NA
ATOM      3  N   UNL     1      32.170 -10.053 -19.839  0.00  0.00    -0.343 N 
ATOM      4  C   UNL     1      31.742  -8.513 -21.693  0.00  0.00    +0.038 C 
ATOM      5  C   UNL     1      31.393  -7.223 -22.101  0.00  0.00    +0.034 C 
ATOM      6  C   UNL     1      31.967  -9.371 -22.821  0.00  0.00    +0.010 C 
ATOM      7  C   UNL     1      31.126  -6.213 -21.168  0.00  0.00    +0.028 C 
ATOM      8  C   UNL     1      31.820  -8.773 -20.316  0.00  0.00    +0.126 C 
ATOM      9  C   UNL     1      31.788  -8.730 -24.024  0.00  0.00    +0.036 C 
ATOM     10  C   UNL     1      31.232  -6.579 -19.838  0.00  0.00    +0.101 C 
ATOM     11  H   UNL     1      32.220 -10.221 -18.870  0.00  0.00    +0.144 HD
ATOM     12  H   UNL     1      32.363 -10.779 -20.475  0.00  0.00    +0.144 HD
ENDROOT
BRANCH   6  13
ATOM     13  C   UNL     1      32.343 -10.763 -22.823  0.00  0.00    +0.001 C 
ATOM     14  C   UNL     1      31.606 -11.687 -22.082  0.00  0.00    +0.001 C 
ATOM     15  C   UNL     1      33.445 -11.187 -23.566  0.00  0.00    +0.001 C 
ATOM     16  C   UNL     1      33.072 -13.456 -22.828  0.00  0.00    +0.052 C 
ATOM     17  C   UNL     1      31.970 -13.034 -22.084  0.00  0.00    +0.015 C 
ATOM     18  C   UNL     1      33.809 -12.534 -23.569  0.00  0.00    +0.015 C 
BRANCH  16  20
ATOM     19  O   UNL     1      34.194 -15.155 -20.643  0.00  0.00    -0.252 OA
ATOM     20  N   UNL     1      33.435 -14.803 -22.831  0.00  0.00    -0.268 N 
ATOM     21  N   UNL     1      34.191 -16.894 -22.206  0.00  0.00    -0.268 N 
ATOM     22  C   UNL     1      33.967 -15.578 -21.772  0.00  0.00    +0.308 C 
ATOM     23  H   UNL     1      33.306 -15.278 -23.684  0.00  0.00    +0.156 HD
ATOM     24  H   UNL     1      33.959 -17.086 -23.143  0.00  0.00    +0.156 HD
BRANCH  21  26
ATOM     25  F   UNL     1      33.539 -20.978 -19.766  0.00  0.00    -0.204 F 
ATOM     26  C   UNL     1      34.711 -17.981 -21.463  0.00  0.00    +0.054 C 
ATOM     27  C   UNL     1      33.852 -18.963 -20.972  0.00  0.00    +0.044 C 
ATOM     28  C   UNL     1      36.082 -18.068 -21.220  0.00  0.00    +0.015 C 
ATOM     29  C   UNL     1      34.363 -20.034 -20.238  0.00  0.00    +0.141 C 
ATOM     30  C   UNL     1      36.593 -19.138 -20.487  0.00  0.00    +0.004 C 
ATOM     31  C   UNL     1      35.734 -20.121 -19.995  0.00  0.00    +0.030 C 
ENDBRANCH  21  26
ENDBRANCH  16  20
ENDBRANCH   6  13
BRANCH   7  34
ATOM     32  N   UNL     1      30.844  -2.928 -22.533  0.00  0.00    -0.208 N 
ATOM     33  N   UNL     1      29.693  -2.889 -21.839  0.00  0.00    -0.176 NA
ATOM     34  C   UNL     1      30.767  -4.887 -21.568  0.00  0.00    +0.039 C 
ATOM     35  C   UNL     1      31.525  -4.102 -22.404  0.00  0.00    +0.086 C 
ATOM     36  C   UNL     1      29.652  -4.088 -21.253  0.00  0.00    +0.119 C 
BRANCH  32  37
ATOM     37  C   UNL     1      31.246  -1.786 -23.317  0.00  0.00    +0.148 C 
BRANCH  37  38
ATOM     38  C   UNL     1      30.744  -1.861 -24.755  0.00  0.00    +0.161 C 
BRANCH  38  39
ATOM     39  O   UNL     1      29.334  -2.047 -24.761  0.00  0.00    -0.380 OA
ATOM     40  H   UNL     1      29.053  -2.366 -25.633  0.00  0.00    +0.211 HD
ENDBRANCH  38  39
ENDBRANCH  37  38
ENDBRANCH  32  37
ENDBRANCH   7  34
TORSDOF 7
ENDMDL
MODEL 3
REMARK VINA RESULT:     -10.8      1.692      2.055
REMARK  Name = 46207586
REMARK  7 active torsions:
REMARK  status: ('A' for Active; 'I' for Inactive)
REMARK    1  A    between atoms: C_6  and  C_13
REMARK    2  A    between atoms: C_7  and  C_34
REMARK    3  A    between atoms: C_16  and  N_20
REMARK    4  A    between atoms: N_21  and  C_26
REMARK    5  A    between atoms: N_32  and  C_37
REMARK    6  A    between atoms: C_37  and  C_38
REMARK    7  A    between atoms: C_38  and  O_39
REMARK                            x       y       z     vdW  Elec       q    Type
REMARK                         _______ _______ _______ _____ _____    ______ ____
ROOT
ATOM      1  S   UNL     1      33.830 -14.773 -20.908  0.00  0.00    -0.086 S 
ATOM      2  N   UNL     1      33.317 -14.893 -25.356  0.00  0.00    -0.230 NA
ATOM      3  N   UNL     1      32.597 -12.642 -25.289  0.00  0.00    -0.343 N 
ATOM      4  C   UNL     1      33.224 -13.792 -23.223  0.00  0.00    +0.038 C 
ATOM      5  C   UNL     1      33.681 -14.965 -22.614  0.00  0.00    +0.034 C 
ATOM      6  C   UNL     1      33.007 -12.756 -22.253  0.00  0.00    +0.010 C 
ATOM      7  C   UNL     1      33.960 -16.113 -23.367  0.00  0.00    +0.028 C 
ATOM      8  C   UNL     1      33.052 -13.793 -24.615  0.00  0.00    +0.126 C 
ATOM      9  C   UNL     1      33.297 -13.156 -20.970  0.00  0.00    +0.036 C 
ATOM     10  C   UNL     1      33.755 -16.002 -24.731  0.00  0.00    +0.101 C 
ATOM     11  H   UNL     1      32.480 -12.657 -26.267  0.00  0.00    +0.144 HD
ATOM     12  H   UNL     1      32.394 -11.823 -24.782  0.00  0.00    +0.144 HD
ENDROOT
BRANCH   6  13
ATOM     13  C   UNL     1      32.543 -11.410 -22.476  0.00  0.00    +0.001 C 
ATOM     14  C   UNL     1      31.294 -11.014 -22.000  0.00  0.00    +0.001 C 
ATOM     15  C   UNL     1      33.346 -10.501 -23.167  0.00  0.00    +0.001 C 
ATOM     16  C   UNL     1      31.648  -8.803 -22.906  0.00  0.00    +0.052 C 
ATOM     17  C   UNL     1      30.845  -9.710 -22.215  0.00  0.00    +0.015 C 
ATOM     18  C   UNL     1      32.898  -9.197 -23.382  0.00  0.00    +0.015 C 
BRANCH  16  20
ATOM     19  O   UNL     1      32.581  -6.740 -24.855  0.00  0.00    -0.252 OA
ATOM     20  N   UNL     1      31.200  -7.499 -23.121  0.00  0.00    -0.268 N 
ATOM     21  N   UNL     1      30.937  -5.354 -23.937  0.00  0.00    -0.268 N 
ATOM     22  C   UNL     1      31.669  -6.546 -24.058  0.00  0.00    +0.308 C 
ATOM     23  H   UNL     1      30.460  -7.201 -22.543  0.00  0.00    +0.156 HD
ATOM     24  H   UNL     1      30.232  -5.348 -23.249  0.00  0.00    +0.156 HD
BRANCH  21  26
ATOM     25  F   UNL     1      32.574  -3.017 -27.799  0.00  0.00    -0.204 F 
ATOM     26  C   UNL     1      31.086  -4.160 -24.682  0.00  0.00    +0.054 C 
ATOM     27  C   UNL     1      31.769  -4.178 -25.897  0.00  0.00    +0.044 C 
ATOM     28  C   UNL     1      30.551  -2.965 -24.199  0.00  0.00    +0.015 C 
ATOM     29  C   UNL     1      31.918  -3.001 -26.632  0.00  0.00    +0.141 C 
ATOM     30  C   UNL     1      30.699  -1.789 -24.933  0.00  0.00    +0.004 C 
ATOM     31  C   UNL     1      31.383  -1.807 -26.149  0.00  0.00    +0.030 C 
ENDBRANCH  21  26
ENDBRANCH  16  20
ENDBRANCH   6  13
BRANCH   7  34
ATOM     32  N   UNL     1      35.495 -18.687 -21.430  0.00  0.00    -0.208 N 
ATOM     33  N   UNL     1      34.807 -19.513 -22.237  0.00  0.00    -0.176 NA
ATOM     34  C   UNL     1      34.430 -17.322 -22.762  0.00  0.00    +0.039 C 
ATOM     35  C   UNL     1      35.304 -17.364 -21.703  0.00  0.00    +0.086 C 
ATOM     36  C   UNL     1      34.158 -18.673 -23.048  0.00  0.00    +0.119 C 
BRANCH  32  37
ATOM     37  C   UNL     1      36.337 -19.235 -20.395  0.00  0.00    +0.148 C 
BRANCH  37  38
ATOM     38  C   UNL     1      35.741 -20.489 -19.764  0.00  0.00    +0.161 C 
BRANCH  38  39
ATOM     39  O   UNL     1      36.057 -20.526 -18.378  0.00  0.00    -0.380 OA
ATOM     40  H   UNL     1      35.476 -21.161 -17.931  0.00  0.00    +0.211 HD
ENDBRANCH  38  39
ENDBRANCH  37  38
ENDBRANCH  32  37
ENDBRANCH   7  34
TORSDOF 7
ENDMDL
MODEL 4
REMARK VINA RESULT:     -10.7      4.198     12.700
REMARK  Name = 46207586
REMARK  7 active torsions:
REMARK  status: ('A' for Active; 'I' for Inactive)
REMARK    1  A    between atoms: C_6  and  C_13
REMARK    2  A    between atoms: C_7  and  C_34
REMARK    3  A    between atoms: C_16  and  N_20
REMARK    4  A    between atoms: N_21  and  C_26
REMARK    5  A    between atoms: N_32  and  C_37
REMARK    6  A    between atoms: C_37  and  C_38
REMARK    7  A    between atoms: C_38  and  O_39
REMARK                            x       y       z     vdW  Elec       q    Type
REMARK                         _______ _______ _______ _____ _____    ______ ____
ROOT
ATOM      1  S   UNL     1      33.927  -8.332 -24.002  0.00  0.00    -0.086 S 
ATOM      2  N   UNL     1      30.078  -9.299 -21.925  0.00  0.00    -0.230 NA
ATOM      3  N   UNL     1      30.750 -11.563 -21.828  0.00  0.00    -0.343 N 
ATOM      4  C   UNL     1      32.209  -9.892 -22.863  0.00  0.00    +0.038 C 
ATOM      5  C   UNL     1      32.411  -8.554 -23.213  0.00  0.00    +0.034 C 
ATOM      6  C   UNL     1      33.323 -10.706 -23.259  0.00  0.00    +0.010 C 
ATOM      7  C   UNL     1      31.452  -7.575 -22.925  0.00  0.00    +0.028 C 
ATOM      8  C   UNL     1      31.014 -10.232 -22.210  0.00  0.00    +0.126 C 
ATOM      9  C   UNL     1      34.316  -9.987 -23.882  0.00  0.00    +0.036 C 
ATOM     10  C   UNL     1      30.312  -8.021 -22.280  0.00  0.00    +0.101 C 
ATOM     11  H   UNL     1      29.907 -11.787 -21.372  0.00  0.00    +0.144 HD
ATOM     12  H   UNL     1      31.409 -12.269 -22.019  0.00  0.00    +0.144 HD
ENDROOT
BRANCH   6  13
ATOM     13  C   UNL     1      33.500 -12.125 -23.078  0.00  0.00    +0.001 C 
ATOM     14  C   UNL     1      33.333 -12.993 -24.157  0.00  0.00    +0.001 C 
ATOM     15  C   UNL     1      33.838 -12.631 -21.823  0.00  0.00    +0.001 C 
ATOM     16  C   UNL     1      33.843 -14.872 -22.727  0.00  0.00    +0.052 C 
ATOM     17  C   UNL     1      33.504 -14.367 -23.982  0.00  0.00    +0.015 C 
ATOM     18  C   UNL     1      34.010 -14.005 -21.647  0.00  0.00    +0.015 C 
BRANCH  16  20
ATOM     19  O   UNL     1      34.384 -16.445 -20.247  0.00  0.00    -0.252 OA
ATOM     20  N   UNL     1      34.016 -16.245 -22.551  0.00  0.00    -0.268 N 
ATOM     21  N   UNL     1      34.378 -18.331 -21.629  0.00  0.00    -0.268 N 
ATOM     22  C   UNL     1      34.273 -16.958 -21.355  0.00  0.00    +0.308 C 
ATOM     23  H   UNL     1      33.951 -16.791 -23.368  0.00  0.00    +0.156 HD
ATOM     24  H   UNL     1      34.264 -18.594 -22.570  0.00  0.00    +0.156 HD
BRANCH  21  26
ATOM     25  F   UNL     1      32.787 -21.850 -18.775  0.00  0.00    -0.204 F 
ATOM     26  C   UNL     1      34.627 -19.385 -20.717  0.00  0.00    +0.054 C 
ATOM     27  C   UNL     1      33.563 -20.112 -20.186  0.00  0.00    +0.044 C 
ATOM     28  C   UNL     1      35.937 -19.694 -20.350  0.00  0.00    +0.015 C 
ATOM     29  C   UNL     1      33.808 -21.151 -19.286  0.00  0.00    +0.141 C 
ATOM     30  C   UNL     1      36.182 -20.731 -19.451  0.00  0.00    +0.004 C 
ATOM     31  C   UNL     1      35.118 -21.460 -18.919  0.00  0.00    +0.030 C 
ENDBRANCH  21  26
ENDBRANCH  16  20
ENDBRANCH   6  13
BRANCH   7  34
ATOM     32  N   UNL     1      31.540  -4.315 -24.374  0.00  0.00    -0.208 N 
ATOM     33  N   UNL     1      32.269  -4.004 -23.288  0.00  0.00    -0.176 NA
ATOM     34  C   UNL     1      31.643  -6.200 -23.275  0.00  0.00    +0.039 C 
ATOM     35  C   UNL     1      31.141  -5.619 -24.414  0.00  0.00    +0.086 C 
ATOM     36  C   UNL     1      32.327  -5.159 -22.621  0.00  0.00    +0.119 C 
BRANCH  32  37
ATOM     37  C   UNL     1      31.255  -3.301 -25.360  0.00  0.00    +0.148 C 
BRANCH  37  38
ATOM     38  C   UNL     1      30.671  -2.036 -24.739  0.00  0.00    +0.161 C 
BRANCH  38  39
ATOM     39  O   UNL     1      29.865  -2.380 -23.618  0.00  0.00    -0.380 OA
ATOM     40  H   UNL     1      28.940  -2.461 -23.898  0.00  0.00    +0.211 HD
ENDBRANCH  38  39
ENDBRANCH  37  38
ENDBRANCH  32  37
ENDBRANCH   7  34
TORSDOF 7
ENDMDL
MODEL 5
REMARK VINA RESULT:     -10.3      4.324     12.773
REMARK  Name = 46207586
REMARK  7 active torsions:
REMARK  status: ('A' for Active; 'I' for Inactive)
REMARK    1  A    between atoms: C_6  and  C_13
REMARK    2  A    between atoms: C_7  and  C_34
REMARK    3  A    between atoms: C_16  and  N_20
REMARK    4  A    between atoms: N_21  and  C_26
REMARK    5  A    between atoms: N_32  and  C_37
REMARK    6  A    between atoms: C_37  and  C_38
REMARK    7  A    between atoms: C_38  and  O_39
REMARK                            x       y       z     vdW  Elec       q    Type
REMARK                         _______ _______ _______ _____ _____    ______ ____
ROOT
ATOM      1  S   UNL     1      30.434  -7.607 -22.553  0.00  0.00    -0.086 S 
ATOM      2  N   UNL     1      34.650  -6.982 -23.933  0.00  0.00    -0.230 NA
ATOM      3  N   UNL     1      34.992  -9.318 -23.803  0.00  0.00    -0.343 N 
ATOM      4  C   UNL     1      32.816  -8.361 -23.219  0.00  0.00    +0.038 C 
ATOM      5  C   UNL     1      32.025  -7.216 -23.090  0.00  0.00    +0.034 C 
ATOM      6  C   UNL     1      32.080  -9.542 -22.868  0.00  0.00    +0.010 C 
ATOM      7  C   UNL     1      32.535  -5.944 -23.379  0.00  0.00    +0.028 C 
ATOM      8  C   UNL     1      34.143  -8.203 -23.650  0.00  0.00    +0.126 C 
ATOM      9  C   UNL     1      30.785  -9.273 -22.492  0.00  0.00    +0.036 C 
ATOM     10  C   UNL     1      33.854  -5.905 -23.795  0.00  0.00    +0.101 C 
ATOM     11  H   UNL     1      35.920  -9.192 -24.105  0.00  0.00    +0.144 HD
ATOM     12  H   UNL     1      34.656 -10.222 -23.606  0.00  0.00    +0.144 HD
ENDROOT
BRANCH   6  13
ATOM     13  C   UNL     1      32.535 -10.910 -22.871  0.00  0.00    +0.001 C 
ATOM     14  C   UNL     1      32.689 -11.592 -24.078  0.00  0.00    +0.001 C 
ATOM     15  C   UNL     1      32.822 -11.552 -21.666  0.00  0.00    +0.001 C 
ATOM     16  C   UNL     1      33.416 -13.557 -22.875  0.00  0.00    +0.052 C 
ATOM     17  C   UNL     1      33.129 -12.916 -24.080  0.00  0.00    +0.015 C 
ATOM     18  C   UNL     1      33.262 -12.876 -21.668  0.00  0.00    +0.015 C 
BRANCH  16  20
ATOM     19  O   UNL     1      34.056 -15.379 -20.597  0.00  0.00    -0.252 OA
ATOM     20  N   UNL     1      33.857 -14.881 -22.877  0.00  0.00    -0.268 N 
ATOM     21  N   UNL     1      34.567 -16.979 -22.223  0.00  0.00    -0.268 N 
ATOM     22  C   UNL     1      34.152 -15.716 -21.772  0.00  0.00    +0.308 C 
ATOM     23  H   UNL     1      33.981 -15.288 -23.765  0.00  0.00    +0.156 HD
ATOM     24  H   UNL     1      34.594 -17.102 -23.200  0.00  0.00    +0.156 HD
BRANCH  21  26
ATOM     25  F   UNL     1      33.450 -21.014 -19.872  0.00  0.00    -0.204 F 
ATOM     26  C   UNL     1      34.951 -18.099 -21.447  0.00  0.00    +0.054 C 
ATOM     27  C   UNL     1      33.992 -19.023 -21.035  0.00  0.00    +0.044 C 
ATOM     28  C   UNL     1      36.289 -18.277 -21.095  0.00  0.00    +0.015 C 
ATOM     29  C   UNL     1      34.370 -20.126 -20.269  0.00  0.00    +0.141 C 
ATOM     30  C   UNL     1      36.668 -19.379 -20.330  0.00  0.00    +0.004 C 
ATOM     31  C   UNL     1      35.708 -20.304 -19.917  0.00  0.00    +0.030 C 
ENDBRANCH  21  26
ENDBRANCH  16  20
ENDBRANCH   6  13
BRANCH   7  34
ATOM     32  N   UNL     1      30.677  -2.921 -23.763  0.00  0.00    -0.208 N 
ATOM     33  N   UNL     1      30.441  -3.063 -22.447  0.00  0.00    -0.176 NA
ATOM     34  C   UNL     1      31.739  -4.761 -23.253  0.00  0.00    +0.039 C 
ATOM     35  C   UNL     1      31.450  -3.912 -24.294  0.00  0.00    +0.086 C 
ATOM     36  C   UNL     1      31.092  -4.188 -22.142  0.00  0.00    +0.119 C 
BRANCH  32  37
ATOM     37  C   UNL     1      30.125  -1.792 -24.473  0.00  0.00    +0.148 C 
BRANCH  37  38
ATOM     38  C   UNL     1      30.260  -1.934 -25.985  0.00  0.00    +0.161 C 
BRANCH  38  39
ATOM     39  O   UNL     1      31.624  -1.786 -26.361  0.00  0.00    -0.380 OA
ATOM     40  H   UNL     1      32.167  -1.665 -25.566  0.00  0.00    +0.211 HD
ENDBRANCH  38  39
ENDBRANCH  37  38
ENDBRANCH  32  37
ENDBRANCH   7  34
TORSDOF 7
ENDMDL
MODEL 6
REMARK VINA RESULT:     -10.2      5.652      9.723
REMARK  Name = 46207586
REMARK  7 active torsions:
REMARK  status: ('A' for Active; 'I' for Inactive)
REMARK    1  A    between atoms: C_6  and  C_13
REMARK    2  A    between atoms: C_7  and  C_34
REMARK    3  A    between atoms: C_16  and  N_20
REMARK    4  A    between atoms: N_21  and  C_26
REMARK    5  A    between atoms: N_32  and  C_37
REMARK    6  A    between atoms: C_37  and  C_38
REMARK    7  A    between atoms: C_38  and  O_39
REMARK                            x       y       z     vdW  Elec       q    Type
REMARK                         _______ _______ _______ _____ _____    ______ ____
ROOT
ATOM      1  S   UNL     1      36.965 -22.134 -16.367  0.00  0.00    -0.086 S 
ATOM      2  N   UNL     1      32.634 -23.127 -16.938  0.00  0.00    -0.230 NA
ATOM      3  N   UNL     1      32.571 -21.610 -18.750  0.00  0.00    -0.343 N 
ATOM      4  C   UNL     1      34.651 -21.953 -17.508  0.00  0.00    +0.038 C 
ATOM      5  C   UNL     1      35.312 -22.613 -16.467  0.00  0.00    +0.034 C 
ATOM      6  C   UNL     1      35.537 -21.061 -18.201  0.00  0.00    +0.010 C 
ATOM      7  C   UNL     1      34.644 -23.535 -15.652  0.00  0.00    +0.028 C 
ATOM      8  C   UNL     1      33.294 -22.240 -17.717  0.00  0.00    +0.126 C 
ATOM      9  C   UNL     1      36.811 -21.065 -17.685  0.00  0.00    +0.036 C 
ATOM     10  C   UNL     1      33.308 -23.741 -15.946  0.00  0.00    +0.101 C 
ATOM     11  H   UNL     1      31.618 -21.821 -18.884  0.00  0.00    +0.144 HD
ATOM     12  H   UNL     1      33.018 -20.959 -19.337  0.00  0.00    +0.144 HD
ENDROOT
BRANCH   6  13
ATOM     13  C   UNL     1      35.243 -20.207 -19.324  0.00  0.00    +0.001 C 
ATOM     14  C   UNL     1      33.954 -20.172 -19.857  0.00  0.00    +0.001 C 
ATOM     15  C   UNL     1      36.248 -19.415 -19.880  0.00  0.00    +0.001 C 
ATOM     16  C   UNL     1      34.676 -18.553 -21.498  0.00  0.00    +0.052 C 
ATOM     17  C   UNL     1      33.670 -19.345 -20.944  0.00  0.00    +0.015 C 
ATOM     18  C   UNL     1      35.965 -18.587 -20.967  0.00  0.00    +0.015 C 
BRANCH  16  20
ATOM     19  O   UNL     1      33.999 -15.645 -21.581  0.00  0.00    -0.252 OA
ATOM     20  N   UNL     1      34.392 -17.725 -22.585  0.00  0.00    -0.268 N 
ATOM     21  N   UNL     1      33.859 -15.903 -23.901  0.00  0.00    -0.268 N 
ATOM     22  C   UNL     1      34.073 -16.345 -22.586  0.00  0.00    +0.308 C 
ATOM     23  H   UNL     1      34.415 -18.158 -23.469  0.00  0.00    +0.156 HD
ATOM     24  H   UNL     1      33.955 -16.583 -24.606  0.00  0.00    +0.156 HD
BRANCH  21  26
ATOM     25  F   UNL     1      33.465 -11.190 -23.072  0.00  0.00    -0.204 F 
ATOM     26  C   UNL     1      33.521 -14.600 -24.338  0.00  0.00    +0.054 C 
ATOM     27  C   UNL     1      33.663 -13.516 -23.472  0.00  0.00    +0.044 C 
ATOM     28  C   UNL     1      33.046 -14.401 -25.635  0.00  0.00    +0.015 C 
ATOM     29  C   UNL     1      33.329 -12.232 -23.903  0.00  0.00    +0.141 C 
ATOM     30  C   UNL     1      32.712 -13.117 -26.065  0.00  0.00    +0.004 C 
ATOM     31  C   UNL     1      32.853 -12.032 -25.199  0.00  0.00    +0.030 C 
ENDBRANCH  21  26
ENDBRANCH  16  20
ENDBRANCH   6  13
BRANCH   7  34
ATOM     32  N   UNL     1      36.098 -24.676 -12.599  0.00  0.00    -0.208 N 
ATOM     33  N   UNL     1      36.459 -25.743 -13.333  0.00  0.00    -0.176 NA
ATOM     34  C   UNL     1      35.304 -24.220 -14.583  0.00  0.00    +0.039 C 
ATOM     35  C   UNL     1      35.405 -23.735 -13.302  0.00  0.00    +0.086 C 
ATOM     36  C   UNL     1      35.971 -25.459 -14.542  0.00  0.00    +0.119 C 
BRANCH  32  37
ATOM     37  C   UNL     1      36.455 -24.613 -11.203  0.00  0.00    +0.148 C 
BRANCH  37  38
ATOM     38  C   UNL     1      35.631 -23.582 -10.439  0.00  0.00    +0.161 C 
BRANCH  38  39
ATOM     39  O   UNL     1      34.997 -24.203  -9.328  0.00  0.00    -0.380 OA
ATOM     40  H   UNL     1      34.429 -23.558  -8.877  0.00  0.00    +0.211 HD
ENDBRANCH  38  39
ENDBRANCH  37  38
ENDBRANCH  32  37
ENDBRANCH   7  34
TORSDOF 7
ENDMDL
