MODEL 1
REMARK VINA RESULT:     -12.4      0.000      0.000
REMARK  Name = 46937030
REMARK  7 active torsions:
REMARK  status: ('A' for Active; 'I' for Inactive)
REMARK    1  A    between atoms: C_3  and  C_10
REMARK    2  A    between atoms: C_7  and  C_25
REMARK    3  A    between atoms: N_9  and  C_12
REMARK    4  A    between atoms: C_12  and  C_13
REMARK    5  A    between atoms: C_18  and  C_21
REMARK    6  A    between atoms: C_25  and  N_26
REMARK    7  A    between atoms: N_26  and  C_29
REMARK                            x       y       z     vdW  Elec       q    Type
REMARK                         _______ _______ _______ _____ _____    ______ ____
ROOT
ATOM      1  O   UNL     1      35.394 -24.958 -11.837  0.00  0.00    -0.277 OA
ATOM      2  N   UNL     1      35.957 -23.655 -13.660  0.00  0.00    -0.275 N 
ATOM      3  C   UNL     1      35.739 -22.552 -14.594  0.00  0.00    +0.152 C 
ATOM      4  C   UNL     1      37.136 -22.187 -15.085  0.00  0.00    +0.031 C 
ATOM      5  C   UNL     1      37.319 -24.164 -13.759  0.00  0.00    +0.094 C 
ATOM      6  C   UNL     1      37.898 -23.507 -15.001  0.00  0.00    +0.024 C 
ATOM      7  C   UNL     1      35.091 -24.111 -12.679  0.00  0.00    +0.204 C 
ENDROOT
BRANCH   3  10
ATOM      8  O   UNL     1      34.528 -24.233 -15.781  0.00  0.00    -0.273 OA
ATOM      9  N   UNL     1      34.626 -22.079 -16.660  0.00  0.00    -0.299 N 
ATOM     10  C   UNL     1      34.897 -23.062 -15.724  0.00  0.00    +0.241 C 
ATOM     11  H   UNL     1      34.976 -21.172 -16.503  0.00  0.00    +0.150 HD
BRANCH   9  12
ATOM     12  C   UNL     1      33.851 -22.318 -17.857  0.00  0.00    +0.116 C 
BRANCH  12  13
ATOM     13  C   UNL     1      34.163 -21.320 -18.935  0.00  0.00    -0.003 C 
ATOM     14  C   UNL     1      33.126 -20.735 -19.662  0.00  0.00    -0.003 C 
ATOM     15  C   UNL     1      35.487 -20.981 -19.210  0.00  0.00    -0.003 C 
ATOM     16  C   UNL     1      33.414 -19.808 -20.665  0.00  0.00    +0.002 C 
ATOM     17  C   UNL     1      35.775 -20.054 -20.213  0.00  0.00    +0.002 C 
ATOM     18  C   UNL     1      34.739 -19.468 -20.939  0.00  0.00    +0.031 C 
BRANCH  18  21
ATOM     19  N   UNL     1      36.312 -17.945 -22.112  0.00  0.00    -0.343 N 
ATOM     20  N   UNL     1      34.096 -18.132 -22.831  0.00  0.00    -0.285 NA
ATOM     21  C   UNL     1      35.040 -18.501 -21.983  0.00  0.00    +0.117 C 
ATOM     22  H   UNL     1      36.493 -17.293 -22.826  0.00  0.00    +0.144 HD
ATOM     23  H   UNL     1      37.028 -18.205 -21.488  0.00  0.00    +0.144 HD
ATOM     24  H   UNL     1      34.298 -17.477 -23.538  0.00  0.00    +0.188 HD
ENDBRANCH  18  21
ENDBRANCH  12  13
ENDBRANCH   9  12
ENDBRANCH   3  10
BRANCH   7  25
ATOM     25  C   UNL     1      33.710 -23.505 -12.680  0.00  0.00    +0.006 C 
BRANCH  25  26
ATOM     26  N   UNL     1      32.846 -24.420 -13.409  0.00  0.00    +0.391 N 
ATOM     27  H   UNL     1      33.074 -24.377 -14.403  0.00  0.00    -0.084 HD
ATOM     28  H   UNL     1      32.993 -25.365 -13.054  0.00  0.00    -0.084 HD
BRANCH  26  29
ATOM     29  C   UNL     1      31.437 -24.057 -13.222  0.00  0.00    -0.061 C 
ATOM     30  C   UNL     1      31.218 -22.575 -13.550  0.00  0.00    -0.021 C 
ATOM     31  C   UNL     1      30.560 -25.070 -13.975  0.00  0.00    -0.021 C 
ATOM     32  C   UNL     1      29.075 -24.708 -14.044  0.00  0.00    -0.002 C 
ATOM     33  C   UNL     1      31.495 -22.117 -14.983  0.00  0.00    -0.002 C 
ATOM     34  C   UNL     1      28.618 -24.161 -15.398  0.00  0.00    -0.000 C 
ATOM     35  C   UNL     1      30.630 -22.712 -16.094  0.00  0.00    -0.000 C 
ATOM     36  C   UNL     1      29.133 -22.773 -15.791  0.00  0.00    -0.000 C 
ENDBRANCH  26  29
ENDBRANCH  25  26
ENDBRANCH   7  25
TORSDOF 7
ENDMDL
MODEL 2
REMARK VINA RESULT:     -11.0      6.031     10.016
REMARK  Name = 46937030
REMARK  7 active torsions:
REMARK  status: ('A' for Active; 'I' for Inactive)
REMARK    1  A    between atoms: C_3  and  C_10
REMARK    2  A    between atoms: C_7  and  C_25
REMARK    3  A    between atoms: N_9  and  C_12
REMARK    4  A    between atoms: C_12  and  C_13
REMARK    5  A    between atoms: C_18  and  C_21
REMARK    6  A    between atoms: C_25  and  N_26
REMARK    7  A    between atoms: N_26  and  C_29
REMARK                            x       y       z     vdW  Elec       q    Type
REMARK                         _______ _______ _______ _____ _____    ______ ____
ROOT
ATOM      1  O   UNL     1      34.460 -19.381 -23.230  0.00  0.00    -0.277 OA
ATOM      2  N   UNL     1      34.380 -17.075 -23.340  0.00  0.00    -0.275 N 
ATOM      3  C   UNL     1      34.870 -15.734 -23.022  0.00  0.00    +0.152 C 
ATOM      4  C   UNL     1      34.402 -14.871 -24.189  0.00  0.00    +0.031 C 
ATOM      5  C   UNL     1      33.430 -17.037 -24.444  0.00  0.00    +0.094 C 
ATOM      6  C   UNL     1      33.122 -15.563 -24.652  0.00  0.00    +0.024 C 
ATOM      7  C   UNL     1      34.824 -18.279 -22.816  0.00  0.00    +0.204 C 
ENDROOT
BRANCH   3  10
ATOM      8  O   UNL     1      34.471 -15.836 -20.670  0.00  0.00    -0.273 OA
ATOM      9  N   UNL     1      33.322 -14.261 -21.942  0.00  0.00    -0.299 N 
ATOM     10  C   UNL     1      34.220 -15.296 -21.744  0.00  0.00    +0.241 C 
ATOM     11  H   UNL     1      33.205 -13.909 -22.855  0.00  0.00    +0.150 HD
BRANCH   9  12
ATOM     12  C   UNL     1      32.546 -13.672 -20.875  0.00  0.00    +0.116 C 
BRANCH  12  13
ATOM     13  C   UNL     1      32.153 -12.256 -21.182  0.00  0.00    -0.003 C 
ATOM     14  C   UNL     1      32.357 -11.738 -22.461  0.00  0.00    -0.003 C 
ATOM     15  C   UNL     1      31.584 -11.458 -20.189  0.00  0.00    -0.003 C 
ATOM     16  C   UNL     1      31.992 -10.422 -22.747  0.00  0.00    +0.002 C 
ATOM     17  C   UNL     1      31.219 -10.143 -20.475  0.00  0.00    +0.002 C 
ATOM     18  C   UNL     1      31.423  -9.625 -21.754  0.00  0.00    +0.031 C 
BRANCH  18  21
ATOM     19  N   UNL     1      31.274  -7.223 -21.144  0.00  0.00    -0.343 N 
ATOM     20  N   UNL     1      30.457  -7.967 -23.203  0.00  0.00    -0.285 NA
ATOM     21  C   UNL     1      31.041  -8.254 -22.052  0.00  0.00    +0.117 C 
ATOM     22  H   UNL     1      31.007  -6.301 -21.367  0.00  0.00    +0.144 HD
ATOM     23  H   UNL     1      31.705  -7.416 -20.280  0.00  0.00    +0.144 HD
ATOM     24  H   UNL     1      30.198  -7.040 -23.406  0.00  0.00    +0.188 HD
ENDBRANCH  18  21
ENDBRANCH  12  13
ENDBRANCH   9  12
ENDBRANCH   3  10
BRANCH   7  25
ATOM     25  C   UNL     1      35.808 -18.184 -21.678  0.00  0.00    +0.006 C 
BRANCH  25  26
ATOM     26  N   UNL     1      35.092 -18.548 -20.466  0.00  0.00    +0.391 N 
ATOM     27  H   UNL     1      35.743 -18.552 -19.680  0.00  0.00    -0.084 HD
ATOM     28  H   UNL     1      34.350 -17.867 -20.305  0.00  0.00    -0.084 HD
BRANCH  26  29
ATOM     29  C   UNL     1      34.492 -19.878 -20.602  0.00  0.00    -0.061 C 
ATOM     30  C   UNL     1      35.514 -20.965 -20.243  0.00  0.00    -0.021 C 
ATOM     31  C   UNL     1      33.159 -19.902 -19.838  0.00  0.00    -0.021 C 
ATOM     32  C   UNL     1      32.512 -21.283 -19.715  0.00  0.00    -0.002 C 
ATOM     33  C   UNL     1      36.054 -20.985 -18.812  0.00  0.00    -0.002 C 
ATOM     34  C   UNL     1      32.663 -21.934 -18.338  0.00  0.00    -0.000 C 
ATOM     35  C   UNL     1      35.058 -21.248 -17.684  0.00  0.00    -0.000 C 
ATOM     36  C   UNL     1      34.070 -22.387 -17.939  0.00  0.00    -0.000 C 
ENDBRANCH  26  29
ENDBRANCH  25  26
ENDBRANCH   7  25
TORSDOF 7
ENDMDL
MODEL 3
REMARK VINA RESULT:     -11.0      2.169      6.764
REMARK  Name = 46937030
REMARK  7 active torsions:
REMARK  status: ('A' for Active; 'I' for Inactive)
REMARK    1  A    between atoms: C_3  and  C_10
REMARK    2  A    between atoms: C_7  and  C_25
REMARK    3  A    between atoms: N_9  and  C_12
REMARK    4  A    between atoms: C_12  and  C_13
REMARK    5  A    between atoms: C_18  and  C_21
REMARK    6  A    between atoms: C_25  and  N_26
REMARK    7  A    between atoms: N_26  and  C_29
REMARK                            x       y       z     vdW  Elec       q    Type
REMARK                         _______ _______ _______ _____ _____    ______ ____
ROOT
ATOM      1  O   UNL     1      37.780 -22.009 -15.980  0.00  0.00    -0.277 OA
ATOM      2  N   UNL     1      36.833 -23.807 -14.882  0.00  0.00    -0.275 N 
ATOM      3  C   UNL     1      35.772 -24.786 -14.652  0.00  0.00    +0.152 C 
ATOM      4  C   UNL     1      36.486 -25.985 -14.036  0.00  0.00    +0.031 C 
ATOM      5  C   UNL     1      38.063 -24.201 -14.207  0.00  0.00    +0.094 C 
ATOM      6  C   UNL     1      37.667 -25.356 -13.301  0.00  0.00    +0.024 C 
ATOM      7  C   UNL     1      36.800 -22.714 -15.733  0.00  0.00    +0.204 C 
ENDROOT
BRANCH   3  10
ATOM      8  O   UNL     1      35.154 -23.410 -12.801  0.00  0.00    -0.273 OA
ATOM      9  N   UNL     1      33.507 -24.645 -13.889  0.00  0.00    -0.299 N 
ATOM     10  C   UNL     1      34.798 -24.191 -13.680  0.00  0.00    +0.241 C 
ATOM     11  H   UNL     1      33.344 -25.273 -14.630  0.00  0.00    +0.150 HD
BRANCH   9  12
ATOM     12  C   UNL     1      32.384 -24.241 -13.073  0.00  0.00    +0.116 C 
BRANCH  12  13
ATOM     13  C   UNL     1      31.163 -23.957 -13.898  0.00  0.00    -0.003 C 
ATOM     14  C   UNL     1      30.047 -24.788 -13.800  0.00  0.00    -0.003 C 
ATOM     15  C   UNL     1      31.144 -22.863 -14.763  0.00  0.00    -0.003 C 
ATOM     16  C   UNL     1      28.911 -24.525 -14.567  0.00  0.00    +0.002 C 
ATOM     17  C   UNL     1      30.009 -22.600 -15.530  0.00  0.00    +0.002 C 
ATOM     18  C   UNL     1      28.893 -23.430 -15.431  0.00  0.00    +0.031 C 
BRANCH  18  21
ATOM     19  N   UNL     1      26.908 -22.042 -15.980  0.00  0.00    -0.343 N 
ATOM     20  N   UNL     1      27.374 -23.971 -17.214  0.00  0.00    -0.285 NA
ATOM     21  C   UNL     1      27.710 -23.155 -16.230  0.00  0.00    +0.117 C 
ATOM     22  H   UNL     1      26.112 -21.875 -16.534  0.00  0.00    +0.144 HD
ATOM     23  H   UNL     1      27.139 -21.424 -15.250  0.00  0.00    +0.144 HD
ATOM     24  H   UNL     1      26.573 -23.786 -17.755  0.00  0.00    +0.188 HD
ENDBRANCH  18  21
ENDBRANCH  12  13
ENDBRANCH   9  12
ENDBRANCH   3  10
BRANCH   7  25
ATOM     25  C   UNL     1      35.469 -22.411 -16.372  0.00  0.00    +0.006 C 
BRANCH  25  26
ATOM     26  N   UNL     1      35.613 -21.148 -17.077  0.00  0.00    +0.391 N 
ATOM     27  H   UNL     1      34.842 -20.531 -16.821  0.00  0.00    -0.084 HD
ATOM     28  H   UNL     1      36.504 -20.726 -16.816  0.00  0.00    -0.084 HD
BRANCH  26  29
ATOM     29  C   UNL     1      35.597 -21.363 -18.527  0.00  0.00    -0.061 C 
ATOM     30  C   UNL     1      34.334 -22.129 -18.941  0.00  0.00    -0.021 C 
ATOM     31  C   UNL     1      35.855 -20.022 -19.231  0.00  0.00    -0.021 C 
ATOM     32  C   UNL     1      35.666 -20.045 -20.749  0.00  0.00    -0.002 C 
ATOM     33  C   UNL     1      32.983 -21.459 -18.686  0.00  0.00    -0.002 C 
ATOM     34  C   UNL     1      34.364 -19.404 -21.236  0.00  0.00    -0.000 C 
ATOM     35  C   UNL     1      32.693 -20.153 -19.425  0.00  0.00    -0.000 C 
ATOM     36  C   UNL     1      33.065 -20.146 -20.908  0.00  0.00    -0.000 C 
ENDBRANCH  26  29
ENDBRANCH  25  26
ENDBRANCH   7  25
TORSDOF 7
ENDMDL
MODEL 4
REMARK VINA RESULT:     -11.0      1.523      2.050
REMARK  Name = 46937030
REMARK  7 active torsions:
REMARK  status: ('A' for Active; 'I' for Inactive)
REMARK    1  A    between atoms: C_3  and  C_10
REMARK    2  A    between atoms: C_7  and  C_25
REMARK    3  A    between atoms: N_9  and  C_12
REMARK    4  A    between atoms: C_12  and  C_13
REMARK    5  A    between atoms: C_18  and  C_21
REMARK    6  A    between atoms: C_25  and  N_26
REMARK    7  A    between atoms: N_26  and  C_29
REMARK                            x       y       z     vdW  Elec       q    Type
REMARK                         _______ _______ _______ _____ _____    ______ ____
ROOT
ATOM      1  O   UNL     1      34.822 -24.918 -14.260  0.00  0.00    -0.277 OA
ATOM      2  N   UNL     1      35.554 -23.039 -15.388  0.00  0.00    -0.275 N 
ATOM      3  C   UNL     1      35.362 -21.726 -16.001  0.00  0.00    +0.152 C 
ATOM      4  C   UNL     1      36.732 -21.062 -15.916  0.00  0.00    +0.031 C 
ATOM      5  C   UNL     1      36.970 -23.326 -15.198  0.00  0.00    +0.094 C 
ATOM      6  C   UNL     1      37.702 -22.240 -15.969  0.00  0.00    +0.024 C 
ATOM      7  C   UNL     1      34.577 -23.885 -14.887  0.00  0.00    +0.204 C 
ENDROOT
BRANCH   3  10
ATOM      8  O   UNL     1      33.981 -22.609 -17.737  0.00  0.00    -0.273 OA
ATOM      9  N   UNL     1      35.831 -21.319 -18.313  0.00  0.00    -0.299 N 
ATOM     10  C   UNL     1      34.963 -21.938 -17.430  0.00  0.00    +0.241 C 
ATOM     11  H   UNL     1      36.587 -20.805 -17.946  0.00  0.00    +0.150 HD
BRANCH   9  12
ATOM     12  C   UNL     1      35.682 -21.388 -19.749  0.00  0.00    +0.116 C 
BRANCH  12  13
ATOM     13  C   UNL     1      35.408 -20.040 -20.352  0.00  0.00    -0.003 C 
ATOM     14  C   UNL     1      34.096 -19.652 -20.623  0.00  0.00    -0.003 C 
ATOM     15  C   UNL     1      36.465 -19.177 -20.641  0.00  0.00    -0.003 C 
ATOM     16  C   UNL     1      33.840 -18.400 -21.182  0.00  0.00    +0.002 C 
ATOM     17  C   UNL     1      36.209 -17.925 -21.201  0.00  0.00    +0.002 C 
ATOM     18  C   UNL     1      34.897 -17.537 -21.471  0.00  0.00    +0.031 C 
BRANCH  18  21
ATOM     19  N   UNL     1      34.741 -16.014 -23.426  0.00  0.00    -0.343 N 
ATOM     20  N   UNL     1      34.283 -15.221 -21.276  0.00  0.00    -0.285 NA
ATOM     21  C   UNL     1      34.631 -16.231 -22.054  0.00  0.00    +0.117 C 
ATOM     22  H   UNL     1      34.556 -15.122 -23.799  0.00  0.00    +0.144 HD
ATOM     23  H   UNL     1      35.002 -16.753 -24.022  0.00  0.00    +0.144 HD
ATOM     24  H   UNL     1      34.103 -14.337 -21.669  0.00  0.00    +0.188 HD
ENDBRANCH  18  21
ENDBRANCH  12  13
ENDBRANCH   9  12
ENDBRANCH   3  10
BRANCH   7  25
ATOM     25  C   UNL     1      33.150 -23.477 -15.148  0.00  0.00    +0.006 C 
BRANCH  25  26
ATOM     26  N   UNL     1      32.810 -22.465 -14.161  0.00  0.00    +0.391 N 
ATOM     27  H   UNL     1      33.551 -22.417 -13.461  0.00  0.00    -0.084 HD
ATOM     28  H   UNL     1      32.711 -21.566 -14.632  0.00  0.00    -0.084 HD
BRANCH  26  29
ATOM     29  C   UNL     1      31.544 -22.795 -13.500  0.00  0.00    -0.061 C 
ATOM     30  C   UNL     1      30.405 -21.935 -14.066  0.00  0.00    -0.021 C 
ATOM     31  C   UNL     1      31.346 -24.318 -13.537  0.00  0.00    -0.021 C 
ATOM     32  C   UNL     1      29.971 -24.800 -13.067  0.00  0.00    -0.002 C 
ATOM     33  C   UNL     1      30.063 -22.099 -15.547  0.00  0.00    -0.002 C 
ATOM     34  C   UNL     1      29.026 -25.218 -14.196  0.00  0.00    -0.000 C 
ATOM     35  C   UNL     1      29.550 -23.463 -16.007  0.00  0.00    -0.000 C 
ATOM     36  C   UNL     1      28.497 -24.102 -15.101  0.00  0.00    -0.000 C 
ENDBRANCH  26  29
ENDBRANCH  25  26
ENDBRANCH   7  25
TORSDOF 7
ENDMDL
MODEL 5
REMARK VINA RESULT:     -10.7      2.043      5.178
REMARK  Name = 46937030
REMARK  7 active torsions:
REMARK  status: ('A' for Active; 'I' for Inactive)
REMARK    1  A    between atoms: C_3  and  C_10
REMARK    2  A    between atoms: C_7  and  C_25
REMARK    3  A    between atoms: N_9  and  C_12
REMARK    4  A    between atoms: C_12  and  C_13
REMARK    5  A    between atoms: C_18  and  C_21
REMARK    6  A    between atoms: C_25  and  N_26
REMARK    7  A    between atoms: N_26  and  C_29
REMARK                            x       y       z     vdW  Elec       q    Type
REMARK                         _______ _______ _______ _____ _____    ______ ____
ROOT
ATOM      1  O   UNL     1      32.584 -23.166 -13.369  0.00  0.00    -0.277 OA
ATOM      2  N   UNL     1      32.975 -22.908 -15.631  0.00  0.00    -0.275 N 
ATOM      3  C   UNL     1      33.744 -23.119 -16.856  0.00  0.00    +0.152 C 
ATOM      4  C   UNL     1      32.714 -23.017 -17.976  0.00  0.00    +0.031 C 
ATOM      5  C   UNL     1      31.637 -22.414 -15.932  0.00  0.00    +0.094 C 
ATOM      6  C   UNL     1      31.668 -22.059 -17.409  0.00  0.00    +0.024 C 
ATOM      7  C   UNL     1      33.340 -23.250 -14.339  0.00  0.00    +0.204 C 
ENDROOT
BRANCH   3  10
ATOM      8  O   UNL     1      35.168 -21.417 -15.974  0.00  0.00    -0.273 OA
ATOM      9  N   UNL     1      35.121 -21.768 -18.275  0.00  0.00    -0.299 N 
ATOM     10  C   UNL     1      34.755 -22.017 -16.963  0.00  0.00    +0.241 C 
ATOM     11  H   UNL     1      34.720 -22.319 -18.987  0.00  0.00    +0.150 HD
BRANCH   9  12
ATOM     12  C   UNL     1      36.064 -20.740 -18.652  0.00  0.00    +0.116 C 
BRANCH  12  13
ATOM     13  C   UNL     1      35.591 -19.952 -19.840  0.00  0.00    -0.003 C 
ATOM     14  C   UNL     1      34.301 -20.147 -20.336  0.00  0.00    -0.003 C 
ATOM     15  C   UNL     1      36.440 -19.028 -20.447  0.00  0.00    -0.003 C 
ATOM     16  C   UNL     1      33.861 -19.416 -21.440  0.00  0.00    +0.002 C 
ATOM     17  C   UNL     1      36.000 -18.296 -21.551  0.00  0.00    +0.002 C 
ATOM     18  C   UNL     1      34.711 -18.490 -22.047  0.00  0.00    +0.031 C 
BRANCH  18  21
ATOM     19  N   UNL     1      33.431 -18.300 -24.166  0.00  0.00    -0.343 N 
ATOM     20  N   UNL     1      34.619 -16.466 -23.339  0.00  0.00    -0.285 NA
ATOM     21  C   UNL     1      34.252 -17.727 -23.197  0.00  0.00    +0.117 C 
ATOM     22  H   UNL     1      33.132 -17.764 -24.936  0.00  0.00    +0.144 HD
ATOM     23  H   UNL     1      33.149 -19.239 -24.080  0.00  0.00    +0.144 HD
ATOM     24  H   UNL     1      34.310 -15.948 -24.117  0.00  0.00    +0.188 HD
ENDBRANCH  18  21
ENDBRANCH  12  13
ENDBRANCH   9  12
ENDBRANCH   3  10
BRANCH   7  25
ATOM     25  C   UNL     1      34.751 -23.749 -14.159  0.00  0.00    +0.006 C 
BRANCH  25  26
ATOM     26  N   UNL     1      35.365 -22.928 -13.128  0.00  0.00    +0.391 N 
ATOM     27  H   UNL     1      34.922 -22.008 -13.125  0.00  0.00    -0.084 HD
ATOM     28  H   UNL     1      35.237 -23.383 -12.225  0.00  0.00    -0.084 HD
BRANCH  26  29
ATOM     29  C   UNL     1      36.800 -22.771 -13.380  0.00  0.00    -0.061 C 
ATOM     30  C   UNL     1      37.611 -23.237 -12.163  0.00  0.00    -0.021 C 
ATOM     31  C   UNL     1      37.142 -23.421 -14.729  0.00  0.00    -0.021 C 
ATOM     32  C   UNL     1      38.637 -23.519 -15.037  0.00  0.00    -0.002 C 
ATOM     33  C   UNL     1      37.500 -24.708 -11.759  0.00  0.00    -0.002 C 
ATOM     34  C   UNL     1      39.232 -24.918 -14.854  0.00  0.00    -0.000 C 
ATOM     35  C   UNL     1      37.992 -25.754 -12.757  0.00  0.00    -0.000 C 
ATOM     36  C   UNL     1      39.335 -25.442 -13.419  0.00  0.00    -0.000 C 
ENDBRANCH  26  29
ENDBRANCH  25  26
ENDBRANCH   7  25
TORSDOF 7
ENDMDL
MODEL 6
REMARK VINA RESULT:     -10.4      2.402      5.320
REMARK  Name = 46937030
REMARK  7 active torsions:
REMARK  status: ('A' for Active; 'I' for Inactive)
REMARK    1  A    between atoms: C_3  and  C_10
REMARK    2  A    between atoms: C_7  and  C_25
REMARK    3  A    between atoms: N_9  and  C_12
REMARK    4  A    between atoms: C_12  and  C_13
REMARK    5  A    between atoms: C_18  and  C_21
REMARK    6  A    between atoms: C_25  and  N_26
REMARK    7  A    between atoms: N_26  and  C_29
REMARK                            x       y       z     vdW  Elec       q    Type
REMARK                         _______ _______ _______ _____ _____    ______ ____
ROOT
ATOM      1  O   UNL     1      32.560 -22.720 -14.392  0.00  0.00    -0.277 OA
ATOM      2  N   UNL     1      33.138 -22.564 -16.623  0.00  0.00    -0.275 N 
ATOM      3  C   UNL     1      33.998 -22.842 -17.772  0.00  0.00    +0.152 C 
ATOM      4  C   UNL     1      33.064 -22.764 -18.976  0.00  0.00    +0.031 C 
ATOM      5  C   UNL     1      31.842 -22.054 -17.051  0.00  0.00    +0.094 C 
ATOM      6  C   UNL     1      32.000 -21.762 -18.534  0.00  0.00    +0.024 C 
ATOM      7  C   UNL     1      33.389 -22.860 -15.293  0.00  0.00    +0.204 C 
ENDROOT
BRANCH   3  10
ATOM      8  O   UNL     1      35.664 -21.405 -16.846  0.00  0.00    -0.273 OA
ATOM      9  N   UNL     1      35.178 -21.251 -19.117  0.00  0.00    -0.299 N 
ATOM     10  C   UNL     1      35.041 -21.767 -17.840  0.00  0.00    +0.241 C 
ATOM     11  H   UNL     1      34.621 -21.626 -19.837  0.00  0.00    +0.150 HD
BRANCH   9  12
ATOM     12  C   UNL     1      36.101 -20.189 -19.446  0.00  0.00    +0.116 C 
BRANCH  12  13
ATOM     13  C   UNL     1      35.607 -19.349 -20.589  0.00  0.00    -0.003 C 
ATOM     14  C   UNL     1      34.335 -19.572 -21.118  0.00  0.00    -0.003 C 
ATOM     15  C   UNL     1      36.419 -18.348 -21.122  0.00  0.00    -0.003 C 
ATOM     16  C   UNL     1      33.875 -18.792 -22.179  0.00  0.00    +0.002 C 
ATOM     17  C   UNL     1      35.959 -17.569 -22.184  0.00  0.00    +0.002 C 
ATOM     18  C   UNL     1      34.688 -17.791 -22.712  0.00  0.00    +0.031 C 
BRANCH  18  21
ATOM     19  N   UNL     1      34.591 -15.644 -23.957  0.00  0.00    -0.343 N 
ATOM     20  N   UNL     1      33.390 -17.500 -24.714  0.00  0.00    -0.285 NA
ATOM     21  C   UNL     1      34.209 -16.977 -23.818  0.00  0.00    +0.117 C 
ATOM     22  H   UNL     1      34.254 -15.112 -24.714  0.00  0.00    +0.144 HD
ATOM     23  H   UNL     1      35.197 -15.235 -23.298  0.00  0.00    +0.144 HD
ATOM     24  H   UNL     1      33.064 -16.951 -25.463  0.00  0.00    +0.188 HD
ENDBRANCH  18  21
ENDBRANCH  12  13
ENDBRANCH   9  12
ENDBRANCH   3  10
BRANCH   7  25
ATOM     25  C   UNL     1      34.769 -23.382 -14.979  0.00  0.00    +0.006 C 
BRANCH  25  26
ATOM     26  N   UNL     1      35.237 -22.666 -13.804  0.00  0.00    +0.391 N 
ATOM     27  H   UNL     1      34.919 -21.698 -13.852  0.00  0.00    -0.084 HD
ATOM     28  H   UNL     1      34.860 -23.119 -12.971  0.00  0.00    -0.084 HD
BRANCH  26  29
ATOM     29  C   UNL     1      36.701 -22.690 -13.735  0.00  0.00    -0.061 C 
ATOM     30  C   UNL     1      37.164 -23.109 -12.333  0.00  0.00    -0.021 C 
ATOM     31  C   UNL     1      37.241 -23.510 -14.916  0.00  0.00    -0.021 C 
ATOM     32  C   UNL     1      38.742 -23.797 -14.867  0.00  0.00    -0.002 C 
ATOM     33  C   UNL     1      36.783 -24.509 -11.850  0.00  0.00    -0.002 C 
ATOM     34  C   UNL     1      39.102 -25.224 -14.445  0.00  0.00    -0.000 C 
ATOM     35  C   UNL     1      37.343 -25.700 -12.625  0.00  0.00    -0.000 C 
ATOM     36  C   UNL     1      38.825 -25.603 -12.988  0.00  0.00    -0.000 C 
ENDBRANCH  26  29
ENDBRANCH  25  26
ENDBRANCH   7  25
TORSDOF 7
ENDMDL
MODEL 7
REMARK VINA RESULT:     -10.2     12.309     17.907
REMARK  Name = 46937030
REMARK  7 active torsions:
REMARK  status: ('A' for Active; 'I' for Inactive)
REMARK    1  A    between atoms: C_3  and  C_10
REMARK    2  A    between atoms: C_7  and  C_25
REMARK    3  A    between atoms: N_9  and  C_12
REMARK    4  A    between atoms: C_12  and  C_13
REMARK    5  A    between atoms: C_18  and  C_21
REMARK    6  A    between atoms: C_25  and  N_26
REMARK    7  A    between atoms: N_26  and  C_29
REMARK                            x       y       z     vdW  Elec       q    Type
REMARK                         _______ _______ _______ _____ _____    ______ ____
ROOT
ATOM      1  O   UNL     1      31.598  -4.175 -23.873  0.00  0.00    -0.277 OA
ATOM      2  N   UNL     1      31.898  -5.818 -22.277  0.00  0.00    -0.275 N 
ATOM      3  C   UNL     1      32.436  -7.090 -21.796  0.00  0.00    +0.152 C 
ATOM      4  C   UNL     1      32.534  -6.915 -20.284  0.00  0.00    +0.031 C 
ATOM      5  C   UNL     1      31.407  -5.006 -21.171  0.00  0.00    +0.094 C 
ATOM      6  C   UNL     1      31.409  -5.934 -19.966  0.00  0.00    +0.024 C 
ATOM      7  C   UNL     1      31.952  -5.315 -23.567  0.00  0.00    +0.204 C 
ENDROOT
BRANCH   3  10
ATOM      8  O   UNL     1      30.435  -7.933 -22.790  0.00  0.00    -0.273 OA
ATOM      9  N   UNL     1      31.827  -9.399 -21.635  0.00  0.00    -0.299 N 
ATOM     10  C   UNL     1      31.453  -8.167 -22.143  0.00  0.00    +0.241 C 
ATOM     11  H   UNL     1      32.671  -9.463 -21.131  0.00  0.00    +0.150 HD
BRANCH   9  12
ATOM     12  C   UNL     1      31.040 -10.599 -21.810  0.00  0.00    +0.116 C 
BRANCH  12  13
ATOM     13  C   UNL     1      31.891 -11.837 -21.792  0.00  0.00    -0.003 C 
ATOM     14  C   UNL     1      32.663 -12.168 -22.905  0.00  0.00    -0.003 C 
ATOM     15  C   UNL     1      31.908 -12.655 -20.662  0.00  0.00    -0.003 C 
ATOM     16  C   UNL     1      33.453 -13.317 -22.889  0.00  0.00    +0.002 C 
ATOM     17  C   UNL     1      32.698 -13.804 -20.646  0.00  0.00    +0.002 C 
ATOM     18  C   UNL     1      33.471 -14.135 -21.759  0.00  0.00    +0.031 C 
BRANCH  18  21
ATOM     19  N   UNL     1      34.934 -15.791 -22.892  0.00  0.00    -0.343 N 
ATOM     20  N   UNL     1      34.445 -16.013 -20.618  0.00  0.00    -0.285 NA
ATOM     21  C   UNL     1      34.295 -15.333 -21.741  0.00  0.00    +0.117 C 
ATOM     22  H   UNL     1      35.488 -16.604 -22.857  0.00  0.00    +0.144 HD
ATOM     23  H   UNL     1      34.832 -15.300 -23.740  0.00  0.00    +0.144 HD
ATOM     24  H   UNL     1      35.002 -16.824 -20.604  0.00  0.00    +0.188 HD
ENDBRANCH  18  21
ENDBRANCH  12  13
ENDBRANCH   9  12
ENDBRANCH   3  10
BRANCH   7  25
ATOM     25  C   UNL     1      32.481  -6.253 -24.622  0.00  0.00    +0.006 C 
BRANCH  25  26
ATOM     26  N   UNL     1      31.956  -5.797 -25.899  0.00  0.00    +0.391 N 
ATOM     27  H   UNL     1      31.322  -6.503 -26.273  0.00  0.00    -0.084 HD
ATOM     28  H   UNL     1      31.459  -4.918 -25.755  0.00  0.00    -0.084 HD
BRANCH  26  29
ATOM     29  C   UNL     1      33.046  -5.573 -26.854  0.00  0.00    -0.061 C 
ATOM     30  C   UNL     1      32.780  -4.309 -27.682  0.00  0.00    -0.021 C 
ATOM     31  C   UNL     1      34.385  -5.642 -26.105  0.00  0.00    -0.021 C 
ATOM     32  C   UNL     1      35.605  -5.226 -26.929  0.00  0.00    -0.002 C 
ATOM     33  C   UNL     1      32.709  -2.976 -26.936  0.00  0.00    -0.002 C 
ATOM     34  C   UNL     1      36.142  -3.829 -26.606  0.00  0.00    -0.000 C 
ATOM     35  C   UNL     1      33.971  -2.500 -26.218  0.00  0.00    -0.000 C 
ATOM     36  C   UNL     1      35.268  -2.642 -27.016  0.00  0.00    -0.000 C 
ENDBRANCH  26  29
ENDBRANCH  25  26
ENDBRANCH   7  25
TORSDOF 7
ENDMDL
MODEL 8
REMARK VINA RESULT:     -10.2      2.553      6.750
REMARK  Name = 46937030
REMARK  7 active torsions:
REMARK  status: ('A' for Active; 'I' for Inactive)
REMARK    1  A    between atoms: C_3  and  C_10
REMARK    2  A    between atoms: C_7  and  C_25
REMARK    3  A    between atoms: N_9  and  C_12
REMARK    4  A    between atoms: C_12  and  C_13
REMARK    5  A    between atoms: C_18  and  C_21
REMARK    6  A    between atoms: C_25  and  N_26
REMARK    7  A    between atoms: N_26  and  C_29
REMARK                            x       y       z     vdW  Elec       q    Type
REMARK                         _______ _______ _______ _____ _____    ______ ____
ROOT
ATOM      1  O   UNL     1      31.623 -20.916 -18.631  0.00  0.00    -0.277 OA
ATOM      2  N   UNL     1      33.727 -20.735 -19.568  0.00  0.00    -0.275 N 
ATOM      3  C   UNL     1      35.098 -21.189 -19.799  0.00  0.00    +0.152 C 
ATOM      4  C   UNL     1      35.466 -20.611 -21.162  0.00  0.00    +0.031 C 
ATOM      5  C   UNL     1      33.344 -19.714 -20.534  0.00  0.00    +0.094 C 
ATOM      6  C   UNL     1      34.635 -19.333 -21.242  0.00  0.00    +0.024 C 
ATOM      7  C   UNL     1      32.806 -21.261 -18.676  0.00  0.00    +0.204 C 
ENDROOT
BRANCH   3  10
ATOM      8  O   UNL     1      36.487 -19.501 -18.840  0.00  0.00    -0.273 OA
ATOM      9  N   UNL     1      36.103 -21.460 -17.644  0.00  0.00    -0.299 N 
ATOM     10  C   UNL     1      35.965 -20.606 -18.724  0.00  0.00    +0.241 C 
ATOM     11  H   UNL     1      35.632 -22.325 -17.665  0.00  0.00    +0.150 HD
BRANCH   9  12
ATOM     12  C   UNL     1      36.907 -21.145 -16.484  0.00  0.00    +0.116 C 
BRANCH  12  13
ATOM     13  C   UNL     1      36.913 -22.265 -15.483  0.00  0.00    -0.003 C 
ATOM     14  C   UNL     1      37.992 -23.147 -15.431  0.00  0.00    -0.003 C 
ATOM     15  C   UNL     1      35.839 -22.423 -14.607  0.00  0.00    -0.003 C 
ATOM     16  C   UNL     1      37.998 -24.187 -14.502  0.00  0.00    +0.002 C 
ATOM     17  C   UNL     1      35.845 -23.464 -13.678  0.00  0.00    +0.002 C 
ATOM     18  C   UNL     1      36.925 -24.345 -13.625  0.00  0.00    +0.031 C 
BRANCH  18  21
ATOM     19  N   UNL     1      36.717 -26.750 -13.044  0.00  0.00    -0.343 N 
ATOM     20  N   UNL     1      37.137 -25.168 -11.377  0.00  0.00    -0.285 NA
ATOM     21  C   UNL     1      36.931 -25.429 -12.656  0.00  0.00    +0.117 C 
ATOM     22  H   UNL     1      36.726 -27.468 -12.371  0.00  0.00    +0.144 HD
ATOM     23  H   UNL     1      36.559 -26.965 -13.992  0.00  0.00    +0.144 HD
ATOM     24  H   UNL     1      37.141 -25.900 -10.719  0.00  0.00    +0.188 HD
ENDBRANCH  18  21
ENDBRANCH  12  13
ENDBRANCH   9  12
ENDBRANCH   3  10
BRANCH   7  25
ATOM     25  C   UNL     1      33.325 -22.312 -17.729  0.00  0.00    +0.006 C 
BRANCH  25  26
ATOM     26  N   UNL     1      32.174 -23.062 -17.254  0.00  0.00    +0.391 N 
ATOM     27  H   UNL     1      31.367 -22.845 -17.840  0.00  0.00    -0.084 HD
ATOM     28  H   UNL     1      32.387 -24.058 -17.303  0.00  0.00    -0.084 HD
BRANCH  26  29
ATOM     29  C   UNL     1      31.868 -22.712 -15.863  0.00  0.00    -0.061 C 
ATOM     30  C   UNL     1      30.365 -22.453 -15.695  0.00  0.00    -0.021 C 
ATOM     31  C   UNL     1      32.498 -23.763 -14.937  0.00  0.00    -0.021 C 
ATOM     32  C   UNL     1      32.094 -23.648 -13.466  0.00  0.00    -0.002 C 
ATOM     33  C   UNL     1      29.411 -23.616 -15.966  0.00  0.00    -0.002 C 
ATOM     34  C   UNL     1      31.064 -24.684 -13.007  0.00  0.00    -0.000 C 
ATOM     35  C   UNL     1      29.519 -24.843 -15.061  0.00  0.00    -0.000 C 
ATOM     36  C   UNL     1      29.646 -24.542 -13.568  0.00  0.00    -0.000 C 
ENDBRANCH  26  29
ENDBRANCH  25  26
ENDBRANCH   7  25
TORSDOF 7
ENDMDL
MODEL 9
REMARK VINA RESULT:     -10.0      7.894     13.309
REMARK  Name = 46937030
REMARK  7 active torsions:
REMARK  status: ('A' for Active; 'I' for Inactive)
REMARK    1  A    between atoms: C_3  and  C_10
REMARK    2  A    between atoms: C_7  and  C_25
REMARK    3  A    between atoms: N_9  and  C_12
REMARK    4  A    between atoms: C_12  and  C_13
REMARK    5  A    between atoms: C_18  and  C_21
REMARK    6  A    between atoms: C_25  and  N_26
REMARK    7  A    between atoms: N_26  and  C_29
REMARK                            x       y       z     vdW  Elec       q    Type
REMARK                         _______ _______ _______ _____ _____    ______ ____
ROOT
ATOM      1  O   UNL     1      30.846 -11.187 -22.488  0.00  0.00    -0.277 OA
ATOM      2  N   UNL     1      32.411 -12.633 -21.596  0.00  0.00    -0.275 N 
ATOM      3  C   UNL     1      33.762 -13.176 -21.463  0.00  0.00    +0.152 C 
ATOM      4  C   UNL     1      33.806 -13.747 -20.049  0.00  0.00    +0.031 C 
ATOM      5  C   UNL     1      31.559 -13.074 -20.498  0.00  0.00    +0.094 C 
ATOM      6  C   UNL     1      32.358 -14.153 -19.785  0.00  0.00    +0.024 C 
ATOM      7  C   UNL     1      31.965 -11.702 -22.520  0.00  0.00    +0.204 C 
ENDROOT
BRANCH   3  10
ATOM      8  O   UNL     1      33.574 -14.119 -23.648  0.00  0.00    -0.273 OA
ATOM      9  N   UNL     1      34.479 -15.410 -21.936  0.00  0.00    -0.299 N 
ATOM     10  C   UNL     1      33.925 -14.264 -22.480  0.00  0.00    +0.241 C 
ATOM     11  H   UNL     1      34.722 -15.406 -20.981  0.00  0.00    +0.150 HD
BRANCH   9  12
ATOM     12  C   UNL     1      34.720 -16.613 -22.701  0.00  0.00    +0.116 C 
BRANCH  12  13
ATOM     13  C   UNL     1      34.853 -17.821 -21.820  0.00  0.00    -0.003 C 
ATOM     14  C   UNL     1      36.082 -18.125 -21.234  0.00  0.00    -0.003 C 
ATOM     15  C   UNL     1      33.748 -18.641 -21.588  0.00  0.00    -0.003 C 
ATOM     16  C   UNL     1      36.206 -19.248 -20.415  0.00  0.00    +0.002 C 
ATOM     17  C   UNL     1      33.872 -19.764 -20.770  0.00  0.00    +0.002 C 
ATOM     18  C   UNL     1      35.101 -20.067 -20.183  0.00  0.00    +0.031 C 
BRANCH  18  21
ATOM     19  N   UNL     1      36.130 -21.263 -18.266  0.00  0.00    -0.343 N 
ATOM     20  N   UNL     1      34.486 -22.305 -19.559  0.00  0.00    -0.285 NA
ATOM     21  C   UNL     1      35.229 -21.237 -19.329  0.00  0.00    +0.117 C 
ATOM     22  H   UNL     1      36.200 -22.066 -17.701  0.00  0.00    +0.144 HD
ATOM     23  H   UNL     1      36.695 -20.479 -18.080  0.00  0.00    +0.144 HD
ATOM     24  H   UNL     1      34.572 -23.098 -18.983  0.00  0.00    +0.188 HD
ENDBRANCH  18  21
ENDBRANCH  12  13
ENDBRANCH   9  12
ENDBRANCH   3  10
BRANCH   7  25
ATOM     25  C   UNL     1      32.941 -11.327 -23.606  0.00  0.00    +0.006 C 
BRANCH  25  26
ATOM     26  N   UNL     1      33.688 -10.175 -23.128  0.00  0.00    +0.391 N 
ATOM     27  H   UNL     1      33.521 -10.059 -22.128  0.00  0.00    -0.084 HD
ATOM     28  H   UNL     1      34.680 -10.330 -23.304  0.00  0.00    -0.084 HD
BRANCH  26  29
ATOM     29  C   UNL     1      33.266  -8.959 -23.830  0.00  0.00    -0.061 C 
ATOM     30  C   UNL     1      31.938  -8.445 -23.260  0.00  0.00    -0.021 C 
ATOM     31  C   UNL     1      34.440  -7.967 -23.855  0.00  0.00    -0.021 C 
ATOM     32  C   UNL     1      34.091  -6.571 -24.374  0.00  0.00    -0.002 C 
ATOM     33  C   UNL     1      31.918  -8.009 -21.794  0.00  0.00    -0.002 C 
ATOM     34  C   UNL     1      33.951  -5.505 -23.284  0.00  0.00    -0.000 C 
ATOM     35  C   UNL     1      32.794  -6.822 -21.397  0.00  0.00    -0.000 C 
ATOM     36  C   UNL     1      32.744  -5.628 -22.351  0.00  0.00    -0.000 C 
ENDBRANCH  26  29
ENDBRANCH  25  26
ENDBRANCH   7  25
TORSDOF 7
ENDMDL
