MODEL 1
REMARK VINA RESULT:     -10.9      0.000      0.000
REMARK  Name = 46937083
REMARK  10 active torsions:
REMARK  status: ('A' for Active; 'I' for Inactive)
REMARK    1  A    between atoms: N_1  and  C_13
REMARK    2  A    between atoms: C_5  and  N_20
REMARK    3  A    between atoms: C_21  and  C_23
REMARK    4  A    between atoms: C_23  and  C_24
REMARK    5  A    between atoms: C_24  and  S_25
REMARK    6  A    between atoms: S_25  and  C_26
REMARK    7  A    between atoms: C_26  and  C_27
REMARK    8  A    between atoms: C_27  and  N_28
REMARK    9  A    between atoms: C_27  and  C_33
REMARK   10  A    between atoms: C_33  and  O_34
REMARK                            x       y       z     vdW  Elec       q    Type
REMARK                         _______ _______ _______ _____ _____    ______ ____
ROOT
ATOM      1  N   UNK     1      34.319 -22.262 -17.650  0.00  0.00    -0.301 N 
ATOM      2  N   UNK     1      37.217 -22.367 -14.695  0.00  0.00    -0.248 NA
ATOM      3  N   UNK     1      36.516 -21.815 -16.934  0.00  0.00    -0.233 NA
ATOM      4  C   UNK     1      34.968 -22.838 -15.384  0.00  0.00    +0.117 C 
ATOM      5  C   UNK     1      33.424 -23.861 -13.824  0.00  0.00    +0.047 C 
ATOM      6  C   UNK     1      33.690 -23.342 -15.086  0.00  0.00    +0.001 C 
ATOM      7  C   UNK     1      35.991 -22.847 -14.423  0.00  0.00    +0.067 C 
ATOM      8  C   UNK     1      35.300 -22.304 -16.627  0.00  0.00    +0.115 C 
ATOM      9  C   UNK     1      34.428 -23.876 -12.863  0.00  0.00    +0.016 C 
ATOM     10  C   UNK     1      35.697 -23.373 -13.166  0.00  0.00    +0.016 C 
ATOM     11  C   UNK     1      37.412 -21.877 -15.937  0.00  0.00    +0.251 C 
ATOM     12  H   UNK     1      33.655 -22.987 -17.594  0.00  0.00    +0.153 HD
ENDROOT
BRANCH   1  13
ATOM     13  C   UNK     1      34.111 -21.385 -18.726  0.00  0.00    +0.049 C 
ATOM     14  C   UNK     1      35.202 -20.859 -19.418  0.00  0.00    +0.015 C 
ATOM     15  C   UNK     1      32.813 -21.037 -19.101  0.00  0.00    +0.015 C 
ATOM     16  C   UNK     1      34.995 -19.987 -20.487  0.00  0.00    +0.001 C 
ATOM     17  C   UNK     1      32.606 -20.165 -20.170  0.00  0.00    +0.001 C 
ATOM     18  C   UNK     1      33.697 -19.641 -20.863  0.00  0.00    +0.000 C 
ENDBRANCH   1  13
BRANCH   5  20
ATOM     19  O   UNK     1      30.837 -22.428 -13.303  0.00  0.00    -0.275 OA
ATOM     20  N   UNK     1      32.158 -24.363 -13.522  0.00  0.00    -0.284 N 
ATOM     21  C   UNK     1      30.973 -23.648 -13.286  0.00  0.00    +0.227 C 
ATOM     22  H   UNK     1      32.086 -25.344 -13.467  0.00  0.00    +0.155 HD
BRANCH  21  23
ATOM     23  C   UNK     1      29.811 -24.587 -12.989  0.00  0.00    +0.097 C 
BRANCH  23  24
ATOM     24  C   UNK     1      29.370 -25.366 -14.223  0.00  0.00    +0.067 C 
BRANCH  24  25
ATOM     25  S   UNK     1      29.603 -24.375 -15.725  0.00  0.00    -0.141 S 
BRANCH  25  26
ATOM     26  C   UNK     1      27.927 -23.713 -15.866  0.00  0.00    +0.047 C 
BRANCH  26  27
ATOM     27  C   UNK     1      27.921 -22.186 -15.956  0.00  0.00    +0.047 C 
BRANCH  27  28
ATOM     28  N   UNK     1      28.384 -21.608 -14.693  0.00  0.00    +0.389 N 
ATOM     29  H   UNK     1      29.283 -21.150 -14.838  0.00  0.00    -0.088 HD
ATOM     30  H   UNK     1      28.487 -22.348 -13.998  0.00  0.00    -0.088 HD
ATOM     31  H   UNK     1      27.703 -20.924 -14.363  0.00  0.00    -0.088 HD
ENDBRANCH  27  28
BRANCH  27  33
ATOM     32  O   UNK     1      26.271 -20.938 -17.207  0.00  0.00    -0.253 OA
ATOM     33  C   UNK     1      26.536 -21.632 -16.233  0.00  0.00    +0.294 C 
BRANCH  33  34
ATOM     34  O   UNK     1      25.622 -21.945 -15.281  0.00  0.00    -0.482 OA
ATOM     35  H   UNK     1      24.707 -21.843 -15.458  0.00  0.00    +0.295 HD
ENDBRANCH  33  34
ENDBRANCH  27  33
ENDBRANCH  26  27
ENDBRANCH  25  26
ENDBRANCH  24  25
ENDBRANCH  23  24
ENDBRANCH  21  23
ENDBRANCH   5  20
TORSDOF 10
ENDMDL
MODEL 2
REMARK VINA RESULT:     -10.8      4.416      7.847
REMARK  Name = 46937083
REMARK  10 active torsions:
REMARK  status: ('A' for Active; 'I' for Inactive)
REMARK    1  A    between atoms: N_1  and  C_13
REMARK    2  A    between atoms: C_5  and  N_20
REMARK    3  A    between atoms: C_21  and  C_23
REMARK    4  A    between atoms: C_23  and  C_24
REMARK    5  A    between atoms: C_24  and  S_25
REMARK    6  A    between atoms: S_25  and  C_26
REMARK    7  A    between atoms: C_26  and  C_27
REMARK    8  A    between atoms: C_27  and  N_28
REMARK    9  A    between atoms: C_27  and  C_33
REMARK   10  A    between atoms: C_33  and  O_34
REMARK                            x       y       z     vdW  Elec       q    Type
REMARK                         _______ _______ _______ _____ _____    ______ ____
ROOT
ATOM      1  N   UNK     1      32.434 -22.760 -14.880  0.00  0.00    -0.301 N 
ATOM      2  N   UNK     1      36.071 -23.853 -13.231  0.00  0.00    -0.248 NA
ATOM      3  N   UNK     1      33.661 -23.832 -13.182  0.00  0.00    -0.233 NA
ATOM      4  C   UNK     1      34.858 -22.750 -14.982  0.00  0.00    +0.117 C 
ATOM      5  C   UNK     1      36.066 -21.670 -16.782  0.00  0.00    +0.047 C 
ATOM      6  C   UNK     1      34.861 -22.015 -16.180  0.00  0.00    +0.001 C 
ATOM      7  C   UNK     1      36.060 -23.149 -14.376  0.00  0.00    +0.067 C 
ATOM      8  C   UNK     1      33.688 -23.128 -14.329  0.00  0.00    +0.115 C 
ATOM      9  C   UNK     1      37.264 -22.060 -16.193  0.00  0.00    +0.016 C 
ATOM     10  C   UNK     1      37.253 -22.791 -15.001  0.00  0.00    +0.016 C 
ATOM     11  C   UNK     1      34.870 -24.157 -12.696  0.00  0.00    +0.251 C 
ATOM     12  H   UNK     1      32.456 -21.918 -15.390  0.00  0.00    +0.153 HD
ENDROOT
BRANCH   1  13
ATOM     13  C   UNK     1      31.168 -23.365 -14.840  0.00  0.00    +0.049 C 
ATOM     14  C   UNK     1      30.913 -24.386 -13.925  0.00  0.00    +0.015 C 
ATOM     15  C   UNK     1      30.168 -22.947 -15.717  0.00  0.00    +0.015 C 
ATOM     16  C   UNK     1      29.655 -24.987 -13.885  0.00  0.00    +0.001 C 
ATOM     17  C   UNK     1      28.910 -23.548 -15.677  0.00  0.00    +0.001 C 
ATOM     18  C   UNK     1      28.653 -24.568 -14.761  0.00  0.00    +0.000 C 
ENDBRANCH   1  13
BRANCH   5  20
ATOM     19  O   UNK     1      34.570 -22.112 -19.349  0.00  0.00    -0.275 OA
ATOM     20  N   UNK     1      36.076 -20.941 -17.971  0.00  0.00    -0.284 N 
ATOM     21  C   UNK     1      35.354 -21.189 -19.150  0.00  0.00    +0.227 C 
ATOM     22  H   UNK     1      36.664 -20.151 -17.986  0.00  0.00    +0.155 HD
BRANCH  21  23
ATOM     23  C   UNK     1      35.659 -20.144 -20.214  0.00  0.00    +0.097 C 
BRANCH  23  24
ATOM     24  C   UNK     1      34.410 -19.392 -20.659  0.00  0.00    +0.067 C 
BRANCH  24  25
ATOM     25  S   UNK     1      34.552 -18.884 -22.396  0.00  0.00    -0.141 S 
BRANCH  25  26
ATOM     26  C   UNK     1      35.185 -17.212 -22.129  0.00  0.00    +0.047 C 
BRANCH  26  27
ATOM     27  C   UNK     1      34.242 -16.147 -22.691  0.00  0.00    +0.047 C 
BRANCH  27  28
ATOM     28  N   UNK     1      34.701 -15.718 -24.014  0.00  0.00    +0.389 N 
ATOM     29  H   UNK     1      34.931 -16.537 -24.576  0.00  0.00    -0.088 HD
ATOM     30  H   UNK     1      35.530 -15.132 -23.912  0.00  0.00    -0.088 HD
ATOM     31  H   UNK     1      33.963 -15.186 -24.473  0.00  0.00    -0.088 HD
ENDBRANCH  27  28
BRANCH  27  33
ATOM     32  O   UNK     1      34.092 -14.964 -20.587  0.00  0.00    -0.253 OA
ATOM     33  C   UNK     1      34.176 -14.915 -21.808  0.00  0.00    +0.294 C 
BRANCH  33  34
ATOM     34  O   UNK     1      34.182 -13.746 -22.498  0.00  0.00    -0.482 OA
ATOM     35  H   UNK     1      34.236 -13.755 -23.434  0.00  0.00    +0.295 HD
ENDBRANCH  33  34
ENDBRANCH  27  33
ENDBRANCH  26  27
ENDBRANCH  25  26
ENDBRANCH  24  25
ENDBRANCH  23  24
ENDBRANCH  21  23
ENDBRANCH   5  20
TORSDOF 10
ENDMDL
MODEL 3
REMARK VINA RESULT:     -10.6      3.817      7.824
REMARK  Name = 46937083
REMARK  10 active torsions:
REMARK  status: ('A' for Active; 'I' for Inactive)
REMARK    1  A    between atoms: N_1  and  C_13
REMARK    2  A    between atoms: C_5  and  N_20
REMARK    3  A    between atoms: C_21  and  C_23
REMARK    4  A    between atoms: C_23  and  C_24
REMARK    5  A    between atoms: C_24  and  S_25
REMARK    6  A    between atoms: S_25  and  C_26
REMARK    7  A    between atoms: C_26  and  C_27
REMARK    8  A    between atoms: C_27  and  N_28
REMARK    9  A    between atoms: C_27  and  C_33
REMARK   10  A    between atoms: C_33  and  O_34
REMARK                            x       y       z     vdW  Elec       q    Type
REMARK                         _______ _______ _______ _____ _____    ______ ____
ROOT
ATOM      1  N   UNK     1      31.973 -23.220 -16.102  0.00  0.00    -0.301 N 
ATOM      2  N   UNK     1      34.399 -21.443 -18.947  0.00  0.00    -0.248 NA
ATOM      3  N   UNK     1      32.290 -22.405 -18.287  0.00  0.00    -0.233 NA
ATOM      4  C   UNK     1      34.117 -22.261 -16.710  0.00  0.00    +0.117 C 
ATOM      5  C   UNK     1      35.953 -22.113 -15.137  0.00  0.00    +0.047 C 
ATOM      6  C   UNK     1      34.645 -22.485 -15.426  0.00  0.00    +0.001 C 
ATOM      7  C   UNK     1      34.893 -21.662 -17.715  0.00  0.00    +0.067 C 
ATOM      8  C   UNK     1      32.816 -22.610 -17.065  0.00  0.00    +0.115 C 
ATOM      9  C   UNK     1      36.731 -21.518 -16.124  0.00  0.00    +0.016 C 
ATOM     10  C   UNK     1      36.200 -21.299 -17.398  0.00  0.00    +0.016 C 
ATOM     11  C   UNK     1      33.125 -21.826 -19.165  0.00  0.00    +0.251 C 
ATOM     12  H   UNK     1      32.456 -23.761 -15.437  0.00  0.00    +0.153 HD
ENDROOT
BRANCH   1  13
ATOM     13  C   UNK     1      30.582 -23.201 -15.915  0.00  0.00    +0.049 C 
ATOM     14  C   UNK     1      29.947 -24.281 -15.301  0.00  0.00    +0.015 C 
ATOM     15  C   UNK     1      29.835 -22.105 -16.344  0.00  0.00    +0.015 C 
ATOM     16  C   UNK     1      28.565 -24.263 -15.115  0.00  0.00    +0.001 C 
ATOM     17  C   UNK     1      28.453 -22.086 -16.157  0.00  0.00    +0.001 C 
ATOM     18  C   UNK     1      27.818 -23.165 -15.543  0.00  0.00    +0.000 C 
ENDBRANCH   1  13
BRANCH   5  20
ATOM     19  O   UNK     1      34.679 -23.258 -12.670  0.00  0.00    -0.275 OA
ATOM     20  N   UNK     1      36.482 -22.332 -13.865  0.00  0.00    -0.284 N 
ATOM     21  C   UNK     1      35.842 -22.873 -12.738  0.00  0.00    +0.227 C 
ATOM     22  H   UNK     1      37.424 -22.074 -13.741  0.00  0.00    +0.155 HD
BRANCH  21  23
ATOM     23  C   UNK     1      36.786 -22.937 -11.545  0.00  0.00    +0.097 C 
BRANCH  23  24
ATOM     24  C   UNK     1      37.863 -24.002 -11.718  0.00  0.00    +0.067 C 
BRANCH  24  25
ATOM     25  S   UNK     1      37.117 -25.612 -12.100  0.00  0.00    -0.141 S 
BRANCH  25  26
ATOM     26  C   UNK     1      37.663 -25.754 -13.818  0.00  0.00    +0.047 C 
BRANCH  26  27
ATOM     27  C   UNK     1      38.927 -24.936 -14.086  0.00  0.00    +0.047 C 
BRANCH  27  28
ATOM     28  N   UNK     1      38.730 -24.080 -15.258  0.00  0.00    +0.389 N 
ATOM     29  H   UNK     1      38.399 -23.164 -14.959  0.00  0.00    -0.088 HD
ATOM     30  H   UNK     1      38.040 -24.506 -15.877  0.00  0.00    -0.088 HD
ATOM     31  H   UNK     1      39.615 -23.977 -15.755  0.00  0.00    -0.088 HD
ENDBRANCH  27  28
BRANCH  27  33
ATOM     32  O   UNK     1      40.778 -26.365 -13.474  0.00  0.00    -0.253 OA
ATOM     33  C   UNK     1      40.133 -25.814 -14.358  0.00  0.00    +0.294 C 
BRANCH  33  34
ATOM     34  O   UNK     1      40.458 -25.907 -15.672  0.00  0.00    -0.482 OA
ATOM     35  H   UNK     1      40.387 -25.154 -16.227  0.00  0.00    +0.295 HD
ENDBRANCH  33  34
ENDBRANCH  27  33
ENDBRANCH  26  27
ENDBRANCH  25  26
ENDBRANCH  24  25
ENDBRANCH  23  24
ENDBRANCH  21  23
ENDBRANCH   5  20
TORSDOF 10
ENDMDL
MODEL 4
REMARK VINA RESULT:     -10.5     11.312     14.660
REMARK  Name = 46937083
REMARK  10 active torsions:
REMARK  status: ('A' for Active; 'I' for Inactive)
REMARK    1  A    between atoms: N_1  and  C_13
REMARK    2  A    between atoms: C_5  and  N_20
REMARK    3  A    between atoms: C_21  and  C_23
REMARK    4  A    between atoms: C_23  and  C_24
REMARK    5  A    between atoms: C_24  and  S_25
REMARK    6  A    between atoms: S_25  and  C_26
REMARK    7  A    between atoms: C_26  and  C_27
REMARK    8  A    between atoms: C_27  and  N_28
REMARK    9  A    between atoms: C_27  and  C_33
REMARK   10  A    between atoms: C_33  and  O_34
REMARK                            x       y       z     vdW  Elec       q    Type
REMARK                         _______ _______ _______ _____ _____    ______ ____
ROOT
ATOM      1  N   UNK     1      32.913  -7.555 -23.373  0.00  0.00    -0.301 N 
ATOM      2  N   UNK     1      31.232  -8.469 -19.702  0.00  0.00    -0.248 NA
ATOM      3  N   UNK     1      32.120  -6.866 -21.267  0.00  0.00    -0.233 NA
ATOM      4  C   UNK     1      32.028  -9.213 -21.839  0.00  0.00    +0.117 C 
ATOM      5  C   UNK     1      31.930 -11.567 -22.403  0.00  0.00    +0.047 C 
ATOM      6  C   UNK     1      32.262 -10.261 -22.747  0.00  0.00    +0.001 C 
ATOM      7  C   UNK     1      31.460  -9.462 -20.579  0.00  0.00    +0.067 C 
ATOM      8  C   UNK     1      32.335  -7.885 -22.120  0.00  0.00    +0.115 C 
ATOM      9  C   UNK     1      31.367 -11.827 -21.159  0.00  0.00    +0.016 C 
ATOM     10  C   UNK     1      31.138 -10.780 -20.260  0.00  0.00    +0.016 C 
ATOM     11  C   UNK     1      31.574  -7.225 -20.094  0.00  0.00    +0.251 C 
ATOM     12  H   UNK     1      33.465  -8.274 -23.757  0.00  0.00    +0.153 HD
ENDROOT
BRANCH   1  13
ATOM     13  C   UNK     1      32.847  -6.403 -24.171  0.00  0.00    +0.049 C 
ATOM     14  C   UNK     1      33.823  -5.413 -24.049  0.00  0.00    +0.015 C 
ATOM     15  C   UNK     1      31.805  -6.246 -25.085  0.00  0.00    +0.015 C 
ATOM     16  C   UNK     1      33.758  -4.268 -24.842  0.00  0.00    +0.001 C 
ATOM     17  C   UNK     1      31.740  -5.101 -25.879  0.00  0.00    +0.001 C 
ATOM     18  C   UNK     1      32.717  -4.112 -25.757  0.00  0.00    +0.000 C 
ENDBRANCH   1  13
BRANCH   5  20
ATOM     19  O   UNK     1      34.138 -13.601 -22.499  0.00  0.00    -0.275 OA
ATOM     20  N   UNK     1      32.159 -12.610 -23.300  0.00  0.00    -0.284 N 
ATOM     21  C   UNK     1      33.211 -13.540 -23.302  0.00  0.00    +0.227 C 
ATOM     22  H   UNK     1      31.498 -12.707 -24.024  0.00  0.00    +0.155 HD
BRANCH  21  23
ATOM     23  C   UNK     1      33.083 -14.516 -24.464  0.00  0.00    +0.097 C 
BRANCH  23  24
ATOM     24  C   UNK     1      34.282 -15.451 -24.568  0.00  0.00    +0.067 C 
BRANCH  24  25
ATOM     25  S   UNK     1      33.829 -17.133 -24.058  0.00  0.00    -0.141 S 
BRANCH  25  26
ATOM     26  C   UNK     1      34.575 -17.119 -22.412  0.00  0.00    +0.047 C 
BRANCH  26  27
ATOM     27  C   UNK     1      35.157 -18.483 -22.036  0.00  0.00    +0.047 C 
BRANCH  27  28
ATOM     28  N   UNK     1      34.218 -19.209 -21.178  0.00  0.00    +0.389 N 
ATOM     29  H   UNK     1      34.660 -19.406 -20.281  0.00  0.00    -0.088 HD
ATOM     30  H   UNK     1      33.957 -20.086 -21.628  0.00  0.00    -0.088 HD
ATOM     31  H   UNK     1      33.384 -18.641 -21.030  0.00  0.00    -0.088 HD
ENDBRANCH  27  28
BRANCH  27  33
ATOM     32  O   UNK     1      36.560 -18.510 -20.066  0.00  0.00    -0.253 OA
ATOM     33  C   UNK     1      36.466 -18.360 -21.278  0.00  0.00    +0.294 C 
BRANCH  33  34
ATOM     34  O   UNK     1      37.523 -18.032 -22.063  0.00  0.00    -0.482 OA
ATOM     35  H   UNK     1      38.276 -18.590 -22.093  0.00  0.00    +0.295 HD
ENDBRANCH  33  34
ENDBRANCH  27  33
ENDBRANCH  26  27
ENDBRANCH  25  26
ENDBRANCH  24  25
ENDBRANCH  23  24
ENDBRANCH  21  23
ENDBRANCH   5  20
TORSDOF 10
ENDMDL
MODEL 5
REMARK VINA RESULT:     -10.4      3.700      7.040
REMARK  Name = 46937083
REMARK  10 active torsions:
REMARK  status: ('A' for Active; 'I' for Inactive)
REMARK    1  A    between atoms: N_1  and  C_13
REMARK    2  A    between atoms: C_5  and  N_20
REMARK    3  A    between atoms: C_21  and  C_23
REMARK    4  A    between atoms: C_23  and  C_24
REMARK    5  A    between atoms: C_24  and  S_25
REMARK    6  A    between atoms: S_25  and  C_26
REMARK    7  A    between atoms: C_26  and  C_27
REMARK    8  A    between atoms: C_27  and  N_28
REMARK    9  A    between atoms: C_27  and  C_33
REMARK   10  A    between atoms: C_33  and  O_34
REMARK                            x       y       z     vdW  Elec       q    Type
REMARK                         _______ _______ _______ _____ _____    ______ ____
ROOT
ATOM      1  N   UNK     1      32.096 -23.201 -16.199  0.00  0.00    -0.301 N 
ATOM      2  N   UNK     1      34.356 -21.428 -19.181  0.00  0.00    -0.248 NA
ATOM      3  N   UNK     1      32.295 -22.410 -18.407  0.00  0.00    -0.233 NA
ATOM      4  C   UNK     1      34.195 -22.221 -16.923  0.00  0.00    +0.117 C 
ATOM      5  C   UNK     1      36.103 -22.027 -15.444  0.00  0.00    +0.047 C 
ATOM      6  C   UNK     1      34.787 -22.421 -15.664  0.00  0.00    +0.001 C 
ATOM      7  C   UNK     1      34.912 -21.625 -17.973  0.00  0.00    +0.067 C 
ATOM      8  C   UNK     1      32.883 -22.591 -17.209  0.00  0.00    +0.115 C 
ATOM      9  C   UNK     1      36.823 -21.435 -16.475  0.00  0.00    +0.016 C 
ATOM     10  C   UNK     1      36.228 -21.240 -17.725  0.00  0.00    +0.016 C 
ATOM     11  C   UNK     1      33.077 -21.831 -19.332  0.00  0.00    +0.251 C 
ATOM     12  H   UNK     1      32.619 -23.726 -15.552  0.00  0.00    +0.153 HD
ENDROOT
BRANCH   1  13
ATOM     13  C   UNK     1      30.716 -23.198 -15.944  0.00  0.00    +0.049 C 
ATOM     14  C   UNK     1      30.133 -24.261 -15.253  0.00  0.00    +0.015 C 
ATOM     15  C   UNK     1      29.928 -22.135 -16.384  0.00  0.00    +0.015 C 
ATOM     16  C   UNK     1      28.762 -24.258 -14.999  0.00  0.00    +0.001 C 
ATOM     17  C   UNK     1      28.556 -22.133 -16.130  0.00  0.00    +0.001 C 
ATOM     18  C   UNK     1      27.973 -23.194 -15.437  0.00  0.00    +0.000 C 
ENDBRANCH   1  13
BRANCH   5  20
ATOM     19  O   UNK     1      34.941 -23.066 -12.877  0.00  0.00    -0.275 OA
ATOM     20  N   UNK     1      36.696 -22.222 -14.197  0.00  0.00    -0.284 N 
ATOM     21  C   UNK     1      36.107 -22.713 -13.021  0.00  0.00    +0.227 C 
ATOM     22  H   UNK     1      37.650 -21.985 -14.133  0.00  0.00    +0.155 HD
BRANCH  21  23
ATOM     23  C   UNK     1      37.115 -22.767 -11.880  0.00  0.00    +0.097 C 
BRANCH  23  24
ATOM     24  C   UNK     1      37.115 -24.118 -11.174  0.00  0.00    +0.067 C 
BRANCH  24  25
ATOM     25  S   UNK     1      38.191 -25.295 -12.042  0.00  0.00    -0.141 S 
BRANCH  25  26
ATOM     26  C   UNK     1      36.920 -26.158 -12.994  0.00  0.00    +0.047 C 
BRANCH  26  27
ATOM     27  C   UNK     1      37.339 -26.365 -14.451  0.00  0.00    +0.047 C 
BRANCH  27  28
ATOM     28  N   UNK     1      38.211 -25.270 -14.881  0.00  0.00    +0.389 N 
ATOM     29  H   UNK     1      38.587 -24.793 -14.062  0.00  0.00    -0.088 HD
ATOM     30  H   UNK     1      37.675 -24.610 -15.444  0.00  0.00    -0.088 HD
ATOM     31  H   UNK     1      38.978 -25.646 -15.438  0.00  0.00    -0.088 HD
ENDBRANCH  27  28
BRANCH  27  33
ATOM     32  O   UNK     1      35.129 -25.746 -15.211  0.00  0.00    -0.253 OA
ATOM     33  C   UNK     1      36.150 -26.399 -15.392  0.00  0.00    +0.294 C 
BRANCH  33  34
ATOM     34  O   UNK     1      36.304 -27.249 -16.438  0.00  0.00    -0.482 OA
ATOM     35  H   UNK     1      36.065 -28.152 -16.348  0.00  0.00    +0.295 HD
ENDBRANCH  33  34
ENDBRANCH  27  33
ENDBRANCH  26  27
ENDBRANCH  25  26
ENDBRANCH  24  25
ENDBRANCH  23  24
ENDBRANCH  21  23
ENDBRANCH   5  20
TORSDOF 10
ENDMDL
MODEL 6
REMARK VINA RESULT:     -10.2      4.577      8.370
REMARK  Name = 46937083
REMARK  10 active torsions:
REMARK  status: ('A' for Active; 'I' for Inactive)
REMARK    1  A    between atoms: N_1  and  C_13
REMARK    2  A    between atoms: C_5  and  N_20
REMARK    3  A    between atoms: C_21  and  C_23
REMARK    4  A    between atoms: C_23  and  C_24
REMARK    5  A    between atoms: C_24  and  S_25
REMARK    6  A    between atoms: S_25  and  C_26
REMARK    7  A    between atoms: C_26  and  C_27
REMARK    8  A    between atoms: C_27  and  N_28
REMARK    9  A    between atoms: C_27  and  C_33
REMARK   10  A    between atoms: C_33  and  O_34
REMARK                            x       y       z     vdW  Elec       q    Type
REMARK                         _______ _______ _______ _____ _____    ______ ____
ROOT
ATOM      1  N   UNK     1      35.006 -24.017 -14.613  0.00  0.00    -0.301 N 
ATOM      2  N   UNK     1      30.897 -23.555 -14.419  0.00  0.00    -0.248 NA
ATOM      3  N   UNK     1      32.971 -24.346 -13.478  0.00  0.00    -0.233 NA
ATOM      4  C   UNK     1      32.950 -23.199 -15.607  0.00  0.00    +0.117 C 
ATOM      5  C   UNK     1      32.919 -22.049 -17.738  0.00  0.00    +0.047 C 
ATOM      6  C   UNK     1      33.628 -22.690 -16.728  0.00  0.00    +0.001 C 
ATOM      7  C   UNK     1      31.557 -23.072 -15.486  0.00  0.00    +0.067 C 
ATOM      8  C   UNK     1      33.599 -23.850 -14.561  0.00  0.00    +0.115 C 
ATOM      9  C   UNK     1      31.540 -21.917 -17.630  0.00  0.00    +0.016 C 
ATOM     10  C   UNK     1      30.872 -22.426 -16.513  0.00  0.00    +0.016 C 
ATOM     11  C   UNK     1      31.640 -24.165 -13.473  0.00  0.00    +0.251 C 
ATOM     12  H   UNK     1      35.364 -24.090 -15.527  0.00  0.00    +0.153 HD
ENDROOT
BRANCH   1  13
ATOM     13  C   UNK     1      35.988 -24.098 -13.612  0.00  0.00    +0.049 C 
ATOM     14  C   UNK     1      36.676 -25.293 -13.406  0.00  0.00    +0.015 C 
ATOM     15  C   UNK     1      36.271 -22.984 -12.823  0.00  0.00    +0.015 C 
ATOM     16  C   UNK     1      37.651 -25.373 -12.412  0.00  0.00    +0.001 C 
ATOM     17  C   UNK     1      37.246 -23.064 -11.828  0.00  0.00    +0.001 C 
ATOM     18  C   UNK     1      37.936 -24.259 -11.623  0.00  0.00    +0.000 C 
ENDBRANCH   1  13
BRANCH   5  20
ATOM     19  O   UNK     1      35.760 -21.124 -18.051  0.00  0.00    -0.275 OA
ATOM     20  N   UNK     1      33.587 -21.541 -18.853  0.00  0.00    -0.284 N 
ATOM     21  C   UNK     1      34.923 -21.120 -18.949  0.00  0.00    +0.227 C 
ATOM     22  H   UNK     1      33.053 -21.467 -19.677  0.00  0.00    +0.155 HD
BRANCH  21  23
ATOM     23  C   UNK     1      35.247 -20.631 -20.355  0.00  0.00    +0.097 C 
BRANCH  23  24
ATOM     24  C   UNK     1      34.272 -19.562 -20.833  0.00  0.00    +0.067 C 
BRANCH  24  25
ATOM     25  S   UNK     1      35.164 -18.147 -21.536  0.00  0.00    -0.141 S 
BRANCH  25  26
ATOM     26  C   UNK     1      34.173 -17.927 -23.032  0.00  0.00    +0.047 C 
BRANCH  26  27
ATOM     27  C   UNK     1      34.373 -16.544 -23.653  0.00  0.00    +0.047 C 
BRANCH  27  28
ATOM     28  N   UNK     1      34.160 -15.506 -22.642  0.00  0.00    +0.389 N 
ATOM     29  H   UNK     1      33.490 -15.839 -21.949  0.00  0.00    -0.088 HD
ATOM     30  H   UNK     1      33.797 -14.665 -23.090  0.00  0.00    -0.088 HD
ATOM     31  H   UNK     1      35.045 -15.291 -22.184  0.00  0.00    -0.088 HD
ENDBRANCH  27  28
BRANCH  27  33
ATOM     32  O   UNK     1      33.408 -15.247 -25.450  0.00  0.00    -0.253 OA
ATOM     33  C   UNK     1      33.406 -16.279 -24.791  0.00  0.00    +0.294 C 
BRANCH  33  34
ATOM     34  O   UNK     1      32.509 -17.278 -24.990  0.00  0.00    -0.482 OA
ATOM     35  H   UNK     1      31.692 -17.097 -25.412  0.00  0.00    +0.295 HD
ENDBRANCH  33  34
ENDBRANCH  27  33
ENDBRANCH  26  27
ENDBRANCH  25  26
ENDBRANCH  24  25
ENDBRANCH  23  24
ENDBRANCH  21  23
ENDBRANCH   5  20
TORSDOF 10
ENDMDL
MODEL 7
REMARK VINA RESULT:     -10.1      9.515     12.900
REMARK  Name = 46937083
REMARK  10 active torsions:
REMARK  status: ('A' for Active; 'I' for Inactive)
REMARK    1  A    between atoms: N_1  and  C_13
REMARK    2  A    between atoms: C_5  and  N_20
REMARK    3  A    between atoms: C_21  and  C_23
REMARK    4  A    between atoms: C_23  and  C_24
REMARK    5  A    between atoms: C_24  and  S_25
REMARK    6  A    between atoms: S_25  and  C_26
REMARK    7  A    between atoms: C_26  and  C_27
REMARK    8  A    between atoms: C_27  and  N_28
REMARK    9  A    between atoms: C_27  and  C_33
REMARK   10  A    between atoms: C_33  and  O_34
REMARK                            x       y       z     vdW  Elec       q    Type
REMARK                         _______ _______ _______ _____ _____    ______ ____
ROOT
ATOM      1  N   UNK     1      34.715 -16.646 -21.577  0.00  0.00    -0.301 N 
ATOM      2  N   UNK     1      33.456 -15.338 -25.297  0.00  0.00    -0.248 NA
ATOM      3  N   UNK     1      34.507 -16.993 -23.896  0.00  0.00    -0.233 NA
ATOM      4  C   UNK     1      33.647 -14.946 -22.939  0.00  0.00    +0.117 C 
ATOM      5  C   UNK     1      32.781 -12.893 -21.989  0.00  0.00    +0.047 C 
ATOM      6  C   UNK     1      33.417 -14.119 -21.826  0.00  0.00    +0.001 C 
ATOM      7  C   UNK     1      33.242 -14.555 -24.225  0.00  0.00    +0.067 C 
ATOM      8  C   UNK     1      34.277 -16.184 -22.844  0.00  0.00    +0.115 C 
ATOM      9  C   UNK     1      32.375 -12.495 -23.258  0.00  0.00    +0.016 C 
ATOM     10  C   UNK     1      32.607 -13.323 -24.360  0.00  0.00    +0.016 C 
ATOM     11  C   UNK     1      34.077 -16.514 -25.074  0.00  0.00    +0.251 C 
ATOM     12  H   UNK     1      34.966 -15.925 -20.956  0.00  0.00    +0.153 HD
ENDROOT
BRANCH   1  13
ATOM     13  C   UNK     1      34.859 -17.934 -21.037  0.00  0.00    +0.049 C 
ATOM     14  C   UNK     1      36.125 -18.405 -20.686  0.00  0.00    +0.015 C 
ATOM     15  C   UNK     1      33.738 -18.743 -20.855  0.00  0.00    +0.015 C 
ATOM     16  C   UNK     1      36.268 -19.685 -20.149  0.00  0.00    +0.001 C 
ATOM     17  C   UNK     1      33.881 -20.022 -20.318  0.00  0.00    +0.001 C 
ATOM     18  C   UNK     1      35.146 -20.493 -19.965  0.00  0.00    +0.000 C 
ENDBRANCH   1  13
BRANCH   5  20
ATOM     19  O   UNK     1      30.568 -10.934 -21.457  0.00  0.00    -0.275 OA
ATOM     20  N   UNK     1      32.550 -12.068 -20.888  0.00  0.00    -0.284 N 
ATOM     21  C   UNK     1      31.494 -11.165 -20.686  0.00  0.00    +0.227 C 
ATOM     22  H   UNK     1      33.211 -12.127 -20.161  0.00  0.00    +0.155 HD
BRANCH  21  23
ATOM     23  C   UNK     1      31.621 -10.460 -19.341  0.00  0.00    +0.097 C 
BRANCH  23  24
ATOM     24  C   UNK     1      30.875  -9.132 -19.313  0.00  0.00    +0.067 C 
BRANCH  24  25
ATOM     25  S   UNK     1      31.981  -7.766 -19.769  0.00  0.00    -0.141 S 
BRANCH  25  26
ATOM     26  C   UNK     1      31.183  -7.287 -21.318  0.00  0.00    +0.047 C 
BRANCH  26  27
ATOM     27  C   UNK     1      32.197  -6.817 -22.363  0.00  0.00    +0.047 C 
BRANCH  27  28
ATOM     28  N   UNK     1      31.520  -6.043 -23.405  0.00  0.00    +0.389 N 
ATOM     29  H   UNK     1      31.648  -6.503 -24.307  0.00  0.00    -0.088 HD
ATOM     30  H   UNK     1      31.917  -5.105 -23.443  0.00  0.00    -0.088 HD
ATOM     31  H   UNK     1      30.525  -5.984 -23.192  0.00  0.00    -0.088 HD
ENDBRANCH  27  28
BRANCH  27  33
ATOM     32  O   UNK     1      34.083  -7.946 -23.369  0.00  0.00    -0.253 OA
ATOM     33  C   UNK     1      32.904  -7.976 -23.039  0.00  0.00    +0.294 C 
BRANCH  33  34
ATOM     34  O   UNK     1      32.100  -9.042 -23.280  0.00  0.00    -0.482 OA
ATOM     35  H   UNK     1      32.177  -9.515 -24.086  0.00  0.00    +0.295 HD
ENDBRANCH  33  34
ENDBRANCH  27  33
ENDBRANCH  26  27
ENDBRANCH  25  26
ENDBRANCH  24  25
ENDBRANCH  23  24
ENDBRANCH  21  23
ENDBRANCH   5  20
TORSDOF 10
ENDMDL
MODEL 8
REMARK VINA RESULT:      -9.5      3.585      7.024
REMARK  Name = 46937083
REMARK  10 active torsions:
REMARK  status: ('A' for Active; 'I' for Inactive)
REMARK    1  A    between atoms: N_1  and  C_13
REMARK    2  A    between atoms: C_5  and  N_20
REMARK    3  A    between atoms: C_21  and  C_23
REMARK    4  A    between atoms: C_23  and  C_24
REMARK    5  A    between atoms: C_24  and  S_25
REMARK    6  A    between atoms: S_25  and  C_26
REMARK    7  A    between atoms: C_26  and  C_27
REMARK    8  A    between atoms: C_27  and  N_28
REMARK    9  A    between atoms: C_27  and  C_33
REMARK   10  A    between atoms: C_33  and  O_34
REMARK                            x       y       z     vdW  Elec       q    Type
REMARK                         _______ _______ _______ _____ _____    ______ ____
ROOT
ATOM      1  N   UNK     1      32.910 -21.804 -16.782  0.00  0.00    -0.301 N 
ATOM      2  N   UNK     1      29.320 -23.553 -15.691  0.00  0.00    -0.248 NA
ATOM      3  N   UNK     1      30.622 -22.182 -17.185  0.00  0.00    -0.233 NA
ATOM      4  C   UNK     1      31.649 -23.195 -15.244  0.00  0.00    +0.117 C 
ATOM      5  C   UNK     1      32.669 -24.214 -13.298  0.00  0.00    +0.047 C 
ATOM      6  C   UNK     1      32.776 -23.420 -14.435  0.00  0.00    +0.001 C 
ATOM      7  C   UNK     1      30.405 -23.761 -14.925  0.00  0.00    +0.067 C 
ATOM      8  C   UNK     1      31.688 -22.411 -16.395  0.00  0.00    +0.115 C 
ATOM      9  C   UNK     1      31.443 -24.781 -12.971  0.00  0.00    +0.016 C 
ATOM     10  C   UNK     1      30.326 -24.553 -13.780  0.00  0.00    +0.016 C 
ATOM     11  C   UNK     1      29.488 -22.775 -16.780  0.00  0.00    +0.251 C 
ATOM     12  H   UNK     1      33.502 -21.587 -16.026  0.00  0.00    +0.153 HD
ENDROOT
BRANCH   1  13
ATOM     13  C   UNK     1      33.438 -21.454 -18.034  0.00  0.00    +0.049 C 
ATOM     14  C   UNK     1      32.611 -20.893 -19.008  0.00  0.00    +0.015 C 
ATOM     15  C   UNK     1      34.789 -21.670 -18.306  0.00  0.00    +0.015 C 
ATOM     16  C   UNK     1      33.136 -20.545 -20.252  0.00  0.00    +0.001 C 
ATOM     17  C   UNK     1      35.314 -21.323 -19.551  0.00  0.00    +0.001 C 
ATOM     18  C   UNK     1      34.488 -20.760 -20.524  0.00  0.00    +0.000 C 
ENDBRANCH   1  13
BRANCH   5  20
ATOM     19  O   UNK     1      35.352 -22.864 -13.260  0.00  0.00    -0.275 OA
ATOM     20  N   UNK     1      33.784 -24.442 -12.491  0.00  0.00    -0.284 N 
ATOM     21  C   UNK     1      35.022 -23.780 -12.512  0.00  0.00    +0.227 C 
ATOM     22  H   UNK     1      33.691 -25.158 -11.822  0.00  0.00    +0.155 HD
BRANCH  21  23
ATOM     23  C   UNK     1      35.966 -24.344 -11.458  0.00  0.00    +0.097 C 
BRANCH  23  24
ATOM     24  C   UNK     1      37.235 -24.924 -12.072  0.00  0.00    +0.067 C 
BRANCH  24  25
ATOM     25  S   UNK     1      36.839 -26.314 -13.170  0.00  0.00    -0.141 S 
BRANCH  25  26
ATOM     26  C   UNK     1      37.328 -25.558 -14.738  0.00  0.00    +0.047 C 
BRANCH  26  27
ATOM     27  C   UNK     1      38.243 -24.351 -14.530  0.00  0.00    +0.047 C 
BRANCH  27  28
ATOM     28  N   UNK     1      37.853 -23.266 -15.433  0.00  0.00    +0.389 N 
ATOM     29  H   UNK     1      37.586 -22.447 -14.887  0.00  0.00    -0.088 HD
ATOM     30  H   UNK     1      37.063 -23.567 -16.003  0.00  0.00    -0.088 HD
ATOM     31  H   UNK     1      38.639 -23.029 -16.038  0.00  0.00    -0.088 HD
ENDBRANCH  27  28
BRANCH  27  33
ATOM     32  O   UNK     1      40.630 -24.175 -14.192  0.00  0.00    -0.253 OA
ATOM     33  C   UNK     1      39.698 -24.677 -14.807  0.00  0.00    +0.294 C 
BRANCH  33  34
ATOM     34  O   UNK     1      39.877 -25.552 -15.828  0.00  0.00    -0.482 OA
ATOM     35  H   UNK     1      40.336 -25.285 -16.600  0.00  0.00    +0.295 HD
ENDBRANCH  33  34
ENDBRANCH  27  33
ENDBRANCH  26  27
ENDBRANCH  25  26
ENDBRANCH  24  25
ENDBRANCH  23  24
ENDBRANCH  21  23
ENDBRANCH   5  20
TORSDOF 10
ENDMDL
MODEL 9
REMARK VINA RESULT:      -9.2      8.820     12.145
REMARK  Name = 46937083
REMARK  10 active torsions:
REMARK  status: ('A' for Active; 'I' for Inactive)
REMARK    1  A    between atoms: N_1  and  C_13
REMARK    2  A    between atoms: C_5  and  N_20
REMARK    3  A    between atoms: C_21  and  C_23
REMARK    4  A    between atoms: C_23  and  C_24
REMARK    5  A    between atoms: C_24  and  S_25
REMARK    6  A    between atoms: S_25  and  C_26
REMARK    7  A    between atoms: C_26  and  C_27
REMARK    8  A    between atoms: C_27  and  N_28
REMARK    9  A    between atoms: C_27  and  C_33
REMARK   10  A    between atoms: C_33  and  O_34
REMARK                            x       y       z     vdW  Elec       q    Type
REMARK                         _______ _______ _______ _____ _____    ______ ____
ROOT
ATOM      1  N   UNK     1      34.709 -18.479 -21.071  0.00  0.00    -0.301 N 
ATOM      2  N   UNK     1      33.952 -17.862 -25.094  0.00  0.00    -0.248 NA
ATOM      3  N   UNK     1      34.558 -19.312 -23.267  0.00  0.00    -0.233 NA
ATOM      4  C   UNK     1      34.093 -16.973 -22.871  0.00  0.00    +0.117 C 
ATOM      5  C   UNK     1      33.626 -14.628 -22.484  0.00  0.00    +0.047 C 
ATOM      6  C   UNK     1      33.982 -15.880 -21.994  0.00  0.00    +0.001 C 
ATOM      7  C   UNK     1      33.849 -16.825 -24.246  0.00  0.00    +0.067 C 
ATOM      8  C   UNK     1      34.445 -18.252 -22.446  0.00  0.00    +0.115 C 
ATOM      9  C   UNK     1      33.380 -14.468 -23.843  0.00  0.00    +0.016 C 
ATOM     10  C   UNK     1      33.493 -15.560 -24.710  0.00  0.00    +0.016 C 
ATOM     11  C   UNK     1      34.300 -19.050 -24.558  0.00  0.00    +0.251 C 
ATOM     12  H   UNK     1      35.071 -17.694 -20.601  0.00  0.00    +0.153 HD
ENDROOT
BRANCH   1  13
ATOM     13  C   UNK     1      34.551 -19.607 -20.251  0.00  0.00    +0.049 C 
ATOM     14  C   UNK     1      35.669 -20.214 -19.679  0.00  0.00    +0.015 C 
ATOM     15  C   UNK     1      33.278 -20.123 -20.011  0.00  0.00    +0.015 C 
ATOM     16  C   UNK     1      35.513 -21.335 -18.864  0.00  0.00    +0.001 C 
ATOM     17  C   UNK     1      33.122 -21.244 -19.196  0.00  0.00    +0.001 C 
ATOM     18  C   UNK     1      34.239 -21.850 -18.623  0.00  0.00    +0.000 C 
ENDBRANCH   1  13
BRANCH   5  20
ATOM     19  O   UNK     1      31.431 -12.600 -22.185  0.00  0.00    -0.275 OA
ATOM     20  N   UNK     1      33.513 -13.540 -21.619  0.00  0.00    -0.284 N 
ATOM     21  C   UNK     1      32.461 -12.616 -21.517  0.00  0.00    +0.227 C 
ATOM     22  H   UNK     1      34.268 -13.402 -21.002  0.00  0.00    +0.155 HD
BRANCH  21  23
ATOM     23  C   UNK     1      32.740 -11.578 -20.438  0.00  0.00    +0.097 C 
BRANCH  23  24
ATOM     24  C   UNK     1      31.466 -10.912 -19.934  0.00  0.00    +0.067 C 
BRANCH  24  25
ATOM     25  S   UNK     1      31.072  -9.446 -20.930  0.00  0.00    -0.141 S 
BRANCH  25  26
ATOM     26  C   UNK     1      31.493  -8.179 -19.712  0.00  0.00    +0.047 C 
BRANCH  26  27
ATOM     27  C   UNK     1      32.387  -7.089 -20.306  0.00  0.00    +0.047 C 
BRANCH  27  28
ATOM     28  N   UNK     1      32.694  -6.083 -19.288  0.00  0.00    +0.389 N 
ATOM     29  H   UNK     1      32.537  -6.478 -18.361  0.00  0.00    -0.088 HD
ATOM     30  H   UNK     1      32.089  -5.272 -19.419  0.00  0.00    -0.088 HD
ATOM     31  H   UNK     1      33.669  -5.798 -19.375  0.00  0.00    -0.088 HD
ENDBRANCH  27  28
BRANCH  27  33
ATOM     32  O   UNK     1      30.694  -5.724 -21.362  0.00  0.00    -0.253 OA
ATOM     33  C   UNK     1      31.726  -6.375 -21.470  0.00  0.00    +0.294 C 
BRANCH  33  34
ATOM     34  O   UNK     1      32.364  -6.553 -22.654  0.00  0.00    -0.482 OA
ATOM     35  H   UNK     1      33.298  -6.487 -22.698  0.00  0.00    +0.295 HD
ENDBRANCH  33  34
ENDBRANCH  27  33
ENDBRANCH  26  27
ENDBRANCH  25  26
ENDBRANCH  24  25
ENDBRANCH  23  24
ENDBRANCH  21  23
ENDBRANCH   5  20
TORSDOF 10
ENDMDL
