MODEL 1
REMARK VINA RESULT:      -9.9      0.000      0.000
REMARK  Name = 9547935
REMARK  3 active torsions:
REMARK  status: ('A' for Active; 'I' for Inactive)
REMARK    1  A    between atoms: N_4  and  N_17
REMARK    2  A    between atoms: C_5  and  C_11
REMARK    3  A    between atoms: N_17  and  C_19
REMARK                            x       y       z     vdW  Elec       q    Type
REMARK                         _______ _______ _______ _____ _____    ______ ____
ROOT
ATOM      1  O   UNL     1      35.833 -22.860 -12.794  0.00  0.00    -0.427 OA
ATOM      2  O   UNL     1      34.877 -24.894 -15.492  0.00  0.00    -0.269 OA
ATOM      3  O   UNL     1      34.046 -23.016 -11.377  0.00  0.00    -0.224 OA
ATOM      4  N   UNL     1      34.125 -24.081 -13.438  0.00  0.00    -0.118 N 
ATOM      5  C   UNL     1      36.176 -23.338 -14.127  0.00  0.00    +0.228 C 
ATOM      6  C   UNL     1      34.990 -24.220 -14.480  0.00  0.00    +0.290 C 
ATOM      7  C   UNL     1      36.171 -22.110 -15.041  0.00  0.00    +0.058 C 
ATOM      8  C   UNL     1      34.586 -23.301 -12.435  0.00  0.00    +0.428 C 
ENDROOT
BRANCH   5  11
ATOM      9  F   UNL     1      36.670 -25.382 -12.215  0.00  0.00    -0.204 F 
ATOM     10  F   UNL     1      40.988 -26.295 -13.922  0.00  0.00    -0.204 F 
ATOM     11  C   UNL     1      37.469 -24.134 -14.069  0.00  0.00    +0.050 C 
ATOM     12  C   UNL     1      37.642 -25.125 -13.101  0.00  0.00    +0.142 C 
ATOM     13  C   UNL     1      38.488 -23.876 -14.988  0.00  0.00    +0.004 C 
ATOM     14  C   UNL     1      38.830 -25.853 -13.052  0.00  0.00    +0.059 C 
ATOM     15  C   UNL     1      39.676 -24.604 -14.938  0.00  0.00    +0.030 C 
ATOM     16  C   UNL     1      39.847 -25.594 -13.970  0.00  0.00    +0.142 C 
ENDBRANCH   5  11
BRANCH   4  17
ATOM     17  N   UNL     1      32.928 -24.719 -13.388  0.00  0.00    -0.251 N 
ATOM     18  H   UNL     1      32.848 -25.585 -12.928  0.00  0.00    +0.171 HD
BRANCH  17  19
ATOM     19  C   UNL     1      31.808 -24.138 -13.995  0.00  0.00    +0.062 C 
ATOM     20  C   UNL     1      30.540 -24.708 -13.833  0.00  0.00    +0.016 C 
ATOM     21  C   UNL     1      31.945 -22.980 -14.771  0.00  0.00    +0.016 C 
ATOM     22  C   UNL     1      29.424 -24.129 -14.439  0.00  0.00    +0.001 C 
ATOM     23  C   UNL     1      30.829 -22.401 -15.376  0.00  0.00    +0.001 C 
ATOM     24  C   UNL     1      29.569 -22.976 -15.210  0.00  0.00    +0.000 C 
ENDBRANCH  17  19
ENDBRANCH   4  17
TORSDOF 3
ENDMDL
MODEL 2
REMARK VINA RESULT:      -9.6     17.785     19.681
REMARK  Name = 9547935
REMARK  3 active torsions:
REMARK  status: ('A' for Active; 'I' for Inactive)
REMARK    1  A    between atoms: N_4  and  N_17
REMARK    2  A    between atoms: C_5  and  C_11
REMARK    3  A    between atoms: N_17  and  C_19
REMARK                            x       y       z     vdW  Elec       q    Type
REMARK                         _______ _______ _______ _____ _____    ______ ____
ROOT
ATOM      1  O   UNL     1      33.787  -6.888 -22.434  0.00  0.00    -0.427 OA
ATOM      2  O   UNL     1      30.473  -7.986 -22.051  0.00  0.00    -0.269 OA
ATOM      3  O   UNL     1      34.756  -8.589 -23.615  0.00  0.00    -0.224 OA
ATOM      4  N   UNL     1      32.536  -8.623 -22.936  0.00  0.00    -0.118 N 
ATOM      5  C   UNL     1      32.487  -6.620 -21.831  0.00  0.00    +0.228 C 
ATOM      6  C   UNL     1      31.663  -7.818 -22.270  0.00  0.00    +0.290 C 
ATOM      7  C   UNL     1      32.693  -6.686 -20.315  0.00  0.00    +0.058 C 
ATOM      8  C   UNL     1      33.781  -8.109 -23.056  0.00  0.00    +0.428 C 
ENDROOT
BRANCH   5  11
ATOM      9  F   UNL     1      30.427  -5.140 -20.549  0.00  0.00    -0.204 F 
ATOM     10  F   UNL     1      30.404  -1.786 -23.886  0.00  0.00    -0.204 F 
ATOM     11  C   UNL     1      31.924  -5.320 -22.382  0.00  0.00    +0.050 C 
ATOM     12  C   UNL     1      30.912  -4.647 -21.697  0.00  0.00    +0.142 C 
ATOM     13  C   UNL     1      32.423  -4.797 -23.576  0.00  0.00    +0.004 C 
ATOM     14  C   UNL     1      30.399  -3.454 -22.205  0.00  0.00    +0.059 C 
ATOM     15  C   UNL     1      31.910  -3.604 -24.085  0.00  0.00    +0.030 C 
ATOM     16  C   UNL     1      30.897  -2.932 -23.399  0.00  0.00    +0.142 C 
ENDBRANCH   5  11
BRANCH   4  17
ATOM     17  N   UNL     1      32.171  -9.811 -23.482  0.00  0.00    -0.251 N 
ATOM     18  H   UNL     1      31.749  -9.838 -24.371  0.00  0.00    +0.171 HD
BRANCH  17  19
ATOM     19  C   UNL     1      32.396 -10.996 -22.771  0.00  0.00    +0.062 C 
ATOM     20  C   UNL     1      31.628 -11.299 -21.641  0.00  0.00    +0.016 C 
ATOM     21  C   UNL     1      33.390 -11.891 -23.185  0.00  0.00    +0.016 C 
ATOM     22  C   UNL     1      31.852 -12.481 -20.933  0.00  0.00    +0.001 C 
ATOM     23  C   UNL     1      33.613 -13.073 -22.477  0.00  0.00    +0.001 C 
ATOM     24  C   UNL     1      32.844 -13.367 -21.351  0.00  0.00    +0.000 C 
ENDBRANCH  17  19
ENDBRANCH   4  17
TORSDOF 3
ENDMDL
MODEL 3
REMARK VINA RESULT:      -9.5     17.546     19.235
REMARK  Name = 9547935
REMARK  3 active torsions:
REMARK  status: ('A' for Active; 'I' for Inactive)
REMARK    1  A    between atoms: N_4  and  N_17
REMARK    2  A    between atoms: C_5  and  C_11
REMARK    3  A    between atoms: N_17  and  C_19
REMARK                            x       y       z     vdW  Elec       q    Type
REMARK                         _______ _______ _______ _____ _____    ______ ____
ROOT
ATOM      1  O   UNL     1      32.024  -6.438 -20.650  0.00  0.00    -0.427 OA
ATOM      2  O   UNL     1      30.068  -7.539 -23.351  0.00  0.00    -0.269 OA
ATOM      3  O   UNL     1      32.177  -8.302 -19.336  0.00  0.00    -0.224 OA
ATOM      4  N   UNL     1      30.974  -8.247 -21.320  0.00  0.00    -0.118 N 
ATOM      5  C   UNL     1      31.341  -6.060 -21.881  0.00  0.00    +0.228 C 
ATOM      6  C   UNL     1      30.695  -7.363 -22.318  0.00  0.00    +0.290 C 
ATOM      7  C   UNL     1      30.242  -5.072 -21.478  0.00  0.00    +0.058 C 
ATOM      8  C   UNL     1      31.752  -7.744 -20.335  0.00  0.00    +0.428 C 
ENDROOT
BRANCH   5  11
ATOM      9  F   UNL     1      33.670  -7.519 -22.602  0.00  0.00    -0.204 F 
ATOM     10  F   UNL     1      35.103  -4.219 -25.675  0.00  0.00    -0.204 F 
ATOM     11  C   UNL     1      32.355  -5.566 -22.900  0.00  0.00    +0.050 C 
ATOM     12  C   UNL     1      33.477  -6.339 -23.204  0.00  0.00    +0.142 C 
ATOM     13  C   UNL     1      32.162  -4.339 -23.535  0.00  0.00    +0.004 C 
ATOM     14  C   UNL     1      34.404  -5.883 -24.141  0.00  0.00    +0.059 C 
ATOM     15  C   UNL     1      33.090  -3.883 -24.471  0.00  0.00    +0.030 C 
ATOM     16  C   UNL     1      34.212  -4.656 -24.775  0.00  0.00    +0.142 C 
ENDBRANCH   5  11
BRANCH   4  17
ATOM     17  N   UNL     1      30.555  -9.537 -21.344  0.00  0.00    -0.251 N 
ATOM     18  H   UNL     1      29.633  -9.763 -21.081  0.00  0.00    +0.171 HD
BRANCH  17  19
ATOM     19  C   UNL     1      31.441 -10.546 -21.741  0.00  0.00    +0.062 C 
ATOM     20  C   UNL     1      31.606 -11.692 -20.954  0.00  0.00    +0.016 C 
ATOM     21  C   UNL     1      32.170 -10.419 -22.930  0.00  0.00    +0.016 C 
ATOM     22  C   UNL     1      32.490 -12.697 -21.351  0.00  0.00    +0.001 C 
ATOM     23  C   UNL     1      33.053 -11.424 -23.325  0.00  0.00    +0.001 C 
ATOM     24  C   UNL     1      33.213 -12.563 -22.535  0.00  0.00    +0.000 C 
ENDBRANCH  17  19
ENDBRANCH   4  17
TORSDOF 3
ENDMDL
MODEL 4
REMARK VINA RESULT:      -9.4     17.751     19.688
REMARK  Name = 9547935
REMARK  3 active torsions:
REMARK  status: ('A' for Active; 'I' for Inactive)
REMARK    1  A    between atoms: N_4  and  N_17
REMARK    2  A    between atoms: C_5  and  C_11
REMARK    3  A    between atoms: N_17  and  C_19
REMARK                            x       y       z     vdW  Elec       q    Type
REMARK                         _______ _______ _______ _____ _____    ______ ____
ROOT
ATOM      1  O   UNL     1      33.746  -7.005 -22.632  0.00  0.00    -0.427 OA
ATOM      2  O   UNL     1      30.454  -8.151 -22.206  0.00  0.00    -0.269 OA
ATOM      3  O   UNL     1      34.761  -8.752 -23.701  0.00  0.00    -0.224 OA
ATOM      4  N   UNL     1      32.537  -8.795 -23.036  0.00  0.00    -0.118 N 
ATOM      5  C   UNL     1      32.436  -6.730 -22.056  0.00  0.00    +0.228 C 
ATOM      6  C   UNL     1      31.641  -7.970 -22.426  0.00  0.00    +0.290 C 
ATOM      7  C   UNL     1      32.630  -6.699 -20.537  0.00  0.00    +0.058 C 
ATOM      8  C   UNL     1      33.772  -8.262 -23.179  0.00  0.00    +0.428 C 
ENDROOT
BRANCH   5  11
ATOM      9  F   UNL     1      31.981  -6.456 -24.848  0.00  0.00    -0.204 F 
ATOM     10  F   UNL     1      30.251  -2.075 -24.401  0.00  0.00    -0.204 F 
ATOM     11  C   UNL     1      31.849  -5.479 -22.689  0.00  0.00    +0.050 C 
ATOM     12  C   UNL     1      31.654  -5.416 -24.070  0.00  0.00    +0.142 C 
ATOM     13  C   UNL     1      31.503  -4.390 -21.888  0.00  0.00    +0.004 C 
ATOM     14  C   UNL     1      31.115  -4.267 -24.647  0.00  0.00    +0.059 C 
ATOM     15  C   UNL     1      30.964  -3.240 -22.466  0.00  0.00    +0.030 C 
ATOM     16  C   UNL     1      30.770  -3.179 -23.846  0.00  0.00    +0.142 C 
ENDBRANCH   5  11
BRANCH   4  17
ATOM     17  N   UNL     1      32.203 -10.021 -23.510  0.00  0.00    -0.251 N 
ATOM     18  H   UNL     1      31.802 -10.113 -24.405  0.00  0.00    +0.171 HD
BRANCH  17  19
ATOM     19  C   UNL     1      32.429 -11.154 -22.719  0.00  0.00    +0.062 C 
ATOM     20  C   UNL     1      33.462 -12.044 -23.038  0.00  0.00    +0.016 C 
ATOM     21  C   UNL     1      31.625 -11.408 -21.601  0.00  0.00    +0.016 C 
ATOM     22  C   UNL     1      33.688 -13.173 -22.250  0.00  0.00    +0.001 C 
ATOM     23  C   UNL     1      31.852 -12.537 -20.813  0.00  0.00    +0.001 C 
ATOM     24  C   UNL     1      32.883 -13.419 -21.138  0.00  0.00    +0.000 C 
ENDBRANCH  17  19
ENDBRANCH   4  17
TORSDOF 3
ENDMDL
MODEL 5
REMARK VINA RESULT:      -9.4      2.866      6.113
REMARK  Name = 9547935
REMARK  3 active torsions:
REMARK  status: ('A' for Active; 'I' for Inactive)
REMARK    1  A    between atoms: N_4  and  N_17
REMARK    2  A    between atoms: C_5  and  C_11
REMARK    3  A    between atoms: N_17  and  C_19
REMARK                            x       y       z     vdW  Elec       q    Type
REMARK                         _______ _______ _______ _____ _____    ______ ____
ROOT
ATOM      1  O   UNL     1      34.280 -22.401 -14.001  0.00  0.00    -0.427 OA
ATOM      2  O   UNL     1      34.843 -25.450 -15.652  0.00  0.00    -0.269 OA
ATOM      3  O   UNL     1      35.497 -22.629 -12.079  0.00  0.00    -0.224 OA
ATOM      4  N   UNL     1      35.345 -24.297 -13.686  0.00  0.00    -0.118 N 
ATOM      5  C   UNL     1      33.944 -23.234 -15.149  0.00  0.00    +0.228 C 
ATOM      6  C   UNL     1      34.759 -24.491 -14.900  0.00  0.00    +0.290 C 
ATOM      7  C   UNL     1      32.457 -23.571 -15.017  0.00  0.00    +0.058 C 
ATOM      8  C   UNL     1      35.093 -23.087 -13.137  0.00  0.00    +0.428 C 
ENDROOT
BRANCH   5  11
ATOM      9  F   UNL     1      36.538 -22.144 -15.550  0.00  0.00    -0.204 F 
ATOM     10  F   UNL     1      35.517 -20.643 -19.919  0.00  0.00    -0.204 F 
ATOM     11  C   UNL     1      34.370 -22.535 -16.431  0.00  0.00    +0.050 C 
ATOM     12  C   UNL     1      35.662 -22.024 -16.556  0.00  0.00    +0.142 C 
ATOM     13  C   UNL     1      33.466 -22.407 -17.486  0.00  0.00    +0.004 C 
ATOM     14  C   UNL     1      36.049 -21.385 -17.734  0.00  0.00    +0.059 C 
ATOM     15  C   UNL     1      33.852 -21.768 -18.664  0.00  0.00    +0.030 C 
ATOM     16  C   UNL     1      35.144 -21.256 -18.788  0.00  0.00    +0.142 C 
ENDBRANCH   5  11
BRANCH   4  17
ATOM     17  N   UNL     1      36.158 -25.216 -13.107  0.00  0.00    -0.251 N 
ATOM     18  H   UNL     1      35.796 -25.852 -12.449  0.00  0.00    +0.171 HD
BRANCH  17  19
ATOM     19  C   UNL     1      37.515 -25.254 -13.452  0.00  0.00    +0.062 C 
ATOM     20  C   UNL     1      37.981 -26.185 -14.388  0.00  0.00    +0.016 C 
ATOM     21  C   UNL     1      38.419 -24.361 -12.864  0.00  0.00    +0.016 C 
ATOM     22  C   UNL     1      39.333 -26.222 -14.731  0.00  0.00    +0.001 C 
ATOM     23  C   UNL     1      39.771 -24.399 -13.208  0.00  0.00    +0.001 C 
ATOM     24  C   UNL     1      40.227 -25.330 -14.141  0.00  0.00    +0.000 C 
ENDBRANCH  17  19
ENDBRANCH   4  17
TORSDOF 3
ENDMDL
MODEL 6
REMARK VINA RESULT:      -9.1     18.438     20.232
REMARK  Name = 9547935
REMARK  3 active torsions:
REMARK  status: ('A' for Active; 'I' for Inactive)
REMARK    1  A    between atoms: N_4  and  N_17
REMARK    2  A    between atoms: C_5  and  C_11
REMARK    3  A    between atoms: N_17  and  C_19
REMARK                            x       y       z     vdW  Elec       q    Type
REMARK                         _______ _______ _______ _____ _____    ______ ____
ROOT
ATOM      1  O   UNL     1      30.605  -6.030 -21.336  0.00  0.00    -0.427 OA
ATOM      2  O   UNL     1      33.987  -6.285 -22.246  0.00  0.00    -0.269 OA
ATOM      3  O   UNL     1      29.872  -4.260 -22.584  0.00  0.00    -0.224 OA
ATOM      4  N   UNL     1      32.068  -5.012 -22.621  0.00  0.00    -0.118 N 
ATOM      5  C   UNL     1      31.873  -6.704 -21.094  0.00  0.00    +0.228 C 
ATOM      6  C   UNL     1      32.816  -5.998 -22.053  0.00  0.00    +0.290 C 
ATOM      7  C   UNL     1      32.277  -6.360 -19.657  0.00  0.00    +0.058 C 
ATOM      8  C   UNL     1      30.773  -5.005 -22.231  0.00  0.00    +0.428 C 
ENDROOT
BRANCH   5  11
ATOM      9  F   UNL     1      30.776  -8.615 -19.299  0.00  0.00    -0.204 F 
ATOM     10  F   UNL     1      31.377 -12.195 -22.333  0.00  0.00    -0.204 F 
ATOM     11  C   UNL     1      31.740  -8.182 -21.424  0.00  0.00    +0.050 C 
ATOM     12  C   UNL     1      31.190  -9.063 -20.492  0.00  0.00    +0.142 C 
ATOM     13  C   UNL     1      32.166  -8.659 -22.665  0.00  0.00    +0.004 C 
ATOM     14  C   UNL     1      31.068 -10.418 -20.799  0.00  0.00    +0.059 C 
ATOM     15  C   UNL     1      32.044 -10.014 -22.971  0.00  0.00    +0.030 C 
ATOM     16  C   UNL     1      31.495 -10.894 -22.038  0.00  0.00    +0.142 C 
ENDBRANCH   5  11
BRANCH   4  17
ATOM     17  N   UNL     1      32.567  -4.149 -23.541  0.00  0.00    -0.251 N 
ATOM     18  H   UNL     1      32.624  -3.188 -23.338  0.00  0.00    +0.171 HD
BRANCH  17  19
ATOM     19  C   UNL     1      32.999  -4.634 -24.782  0.00  0.00    +0.062 C 
ATOM     20  C   UNL     1      34.327  -4.459 -25.186  0.00  0.00    +0.016 C 
ATOM     21  C   UNL     1      32.106  -5.300 -25.630  0.00  0.00    +0.016 C 
ATOM     22  C   UNL     1      34.758  -4.942 -26.423  0.00  0.00    +0.001 C 
ATOM     23  C   UNL     1      32.537  -5.784 -26.866  0.00  0.00    +0.001 C 
ATOM     24  C   UNL     1      33.863  -5.604 -27.262  0.00  0.00    +0.000 C 
ENDBRANCH  17  19
ENDBRANCH   4  17
TORSDOF 3
ENDMDL
MODEL 7
REMARK VINA RESULT:      -9.0     13.663     15.736
REMARK  Name = 9547935
REMARK  3 active torsions:
REMARK  status: ('A' for Active; 'I' for Inactive)
REMARK    1  A    between atoms: N_4  and  N_17
REMARK    2  A    between atoms: C_5  and  C_11
REMARK    3  A    between atoms: N_17  and  C_19
REMARK                            x       y       z     vdW  Elec       q    Type
REMARK                         _______ _______ _______ _____ _____    ______ ____
ROOT
ATOM      1  O   UNL     1      31.105 -12.444 -20.593  0.00  0.00    -0.427 OA
ATOM      2  O   UNL     1      33.507 -11.463 -22.961  0.00  0.00    -0.269 OA
ATOM      3  O   UNL     1      32.029 -14.324 -19.678  0.00  0.00    -0.224 OA
ATOM      4  N   UNL     1      33.042 -13.117 -21.382  0.00  0.00    -0.118 N 
ATOM      5  C   UNL     1      31.436 -11.513 -21.665  0.00  0.00    +0.228 C 
ATOM      6  C   UNL     1      32.803 -11.996 -22.117  0.00  0.00    +0.290 C 
ATOM      7  C   UNL     1      30.424 -11.769 -22.786  0.00  0.00    +0.058 C 
ATOM      8  C   UNL     1      32.076 -13.404 -20.480  0.00  0.00    +0.428 C 
ENDROOT
BRANCH   5  11
ATOM      9  F   UNL     1      31.607  -9.202 -23.311  0.00  0.00    -0.204 F 
ATOM     10  F   UNL     1      31.646  -6.253 -19.611  0.00  0.00    -0.204 F 
ATOM     11  C   UNL     1      31.493 -10.097 -21.115  0.00  0.00    +0.050 C 
ATOM     12  C   UNL     1      31.577  -9.009 -21.985  0.00  0.00    +0.142 C 
ATOM     13  C   UNL     1      31.461  -9.884 -19.736  0.00  0.00    +0.004 C 
ATOM     14  C   UNL     1      31.629  -7.712 -21.477  0.00  0.00    +0.059 C 
ATOM     15  C   UNL     1      31.513  -8.587 -19.228  0.00  0.00    +0.030 C 
ATOM     16  C   UNL     1      31.597  -7.500 -20.099  0.00  0.00    +0.142 C 
ENDBRANCH   5  11
BRANCH   4  17
ATOM     17  N   UNL     1      34.178 -13.848 -21.506  0.00  0.00    -0.251 N 
ATOM     18  H   UNL     1      35.001 -13.566 -21.045  0.00  0.00    +0.171 HD
BRANCH  17  19
ATOM     19  C   UNL     1      34.174 -15.005 -22.295  0.00  0.00    +0.062 C 
ATOM     20  C   UNL     1      33.783 -14.943 -23.638  0.00  0.00    +0.016 C 
ATOM     21  C   UNL     1      34.560 -16.235 -21.750  0.00  0.00    +0.016 C 
ATOM     22  C   UNL     1      33.779 -16.095 -24.425  0.00  0.00    +0.001 C 
ATOM     23  C   UNL     1      34.556 -17.387 -22.537  0.00  0.00    +0.001 C 
ATOM     24  C   UNL     1      34.165 -17.317 -23.875  0.00  0.00    +0.000 C 
ENDBRANCH  17  19
ENDBRANCH   4  17
TORSDOF 3
ENDMDL
MODEL 8
REMARK VINA RESULT:      -8.8     13.937     15.451
REMARK  Name = 9547935
REMARK  3 active torsions:
REMARK  status: ('A' for Active; 'I' for Inactive)
REMARK    1  A    between atoms: N_4  and  N_17
REMARK    2  A    between atoms: C_5  and  C_11
REMARK    3  A    between atoms: N_17  and  C_19
REMARK                            x       y       z     vdW  Elec       q    Type
REMARK                         _______ _______ _______ _____ _____    ______ ____
ROOT
ATOM      1  O   UNL     1      33.969 -11.502 -23.932  0.00  0.00    -0.427 OA
ATOM      2  O   UNL     1      30.710 -12.375 -22.956  0.00  0.00    -0.269 OA
ATOM      3  O   UNL     1      34.034  -9.251 -23.538  0.00  0.00    -0.224 OA
ATOM      4  N   UNL     1      32.145 -10.546 -23.166  0.00  0.00    -0.118 N 
ATOM      5  C   UNL     1      32.974 -12.563 -23.858  0.00  0.00    +0.228 C 
ATOM      6  C   UNL     1      31.770 -11.852 -23.265  0.00  0.00    +0.290 C 
ATOM      7  C   UNL     1      32.655 -12.958 -25.303  0.00  0.00    +0.058 C 
ATOM      8  C   UNL     1      33.422 -10.307 -23.540  0.00  0.00    +0.428 C 
ENDROOT
BRANCH   5  11
ATOM      9  F   UNL     1      34.025 -15.022 -24.820  0.00  0.00    -0.204 F 
ATOM     10  F   UNL     1      34.837 -16.680 -20.464  0.00  0.00    -0.204 F 
ATOM     11  C   UNL     1      33.474 -13.673 -22.947  0.00  0.00    +0.050 C 
ATOM     12  C   UNL     1      33.979 -14.854 -23.492  0.00  0.00    +0.142 C 
ATOM     13  C   UNL     1      33.433 -13.508 -21.562  0.00  0.00    +0.004 C 
ATOM     14  C   UNL     1      34.438 -15.870 -22.653  0.00  0.00    +0.059 C 
ATOM     15  C   UNL     1      33.892 -14.523 -20.723  0.00  0.00    +0.030 C 
ATOM     16  C   UNL     1      34.395 -15.705 -21.269  0.00  0.00    +0.142 C 
ENDBRANCH   5  11
BRANCH   4  17
ATOM     17  N   UNL     1      31.325  -9.582 -22.679  0.00  0.00    -0.251 N 
ATOM     18  H   UNL     1      30.665  -9.149 -23.268  0.00  0.00    +0.171 HD
BRANCH  17  19
ATOM     19  C   UNL     1      31.423  -9.204 -21.334  0.00  0.00    +0.062 C 
ATOM     20  C   UNL     1      31.177 -10.135 -20.318  0.00  0.00    +0.016 C 
ATOM     21  C   UNL     1      31.770  -7.891 -20.992  0.00  0.00    +0.016 C 
ATOM     22  C   UNL     1      31.275  -9.758 -18.978  0.00  0.00    +0.001 C 
ATOM     23  C   UNL     1      31.869  -7.515 -19.651  0.00  0.00    +0.001 C 
ATOM     24  C   UNL     1      31.621  -8.450 -18.645  0.00  0.00    +0.000 C 
ENDBRANCH  17  19
ENDBRANCH   4  17
TORSDOF 3
ENDMDL
MODEL 9
REMARK VINA RESULT:      -8.8     16.079     17.763
REMARK  Name = 9547935
REMARK  3 active torsions:
REMARK  status: ('A' for Active; 'I' for Inactive)
REMARK    1  A    between atoms: N_4  and  N_17
REMARK    2  A    between atoms: C_5  and  C_11
REMARK    3  A    between atoms: N_17  and  C_19
REMARK                            x       y       z     vdW  Elec       q    Type
REMARK                         _______ _______ _______ _____ _____    ______ ____
ROOT
ATOM      1  O   UNL     1      31.562  -9.743 -23.193  0.00  0.00    -0.427 OA
ATOM      2  O   UNL     1      31.781  -9.177 -19.734  0.00  0.00    -0.269 OA
ATOM      3  O   UNL     1      32.352  -7.790 -24.082  0.00  0.00    -0.224 OA
ATOM      4  N   UNL     1      32.152  -8.152 -21.797  0.00  0.00    -0.118 N 
ATOM      5  C   UNL     1      31.272 -10.263 -21.863  0.00  0.00    +0.228 C 
ATOM      6  C   UNL     1      31.760  -9.148 -20.955  0.00  0.00    +0.290 C 
ATOM      7  C   UNL     1      29.747 -10.357 -21.759  0.00  0.00    +0.058 C 
ATOM      8  C   UNL     1      32.056  -8.467 -23.109  0.00  0.00    +0.428 C 
ENDROOT
BRANCH   5  11
ATOM      9  F   UNL     1      33.436 -11.097 -23.506  0.00  0.00    -0.204 F 
ATOM     10  F   UNL     1      34.149 -15.051 -21.008  0.00  0.00    -0.204 F 
ATOM     11  C   UNL     1      32.047 -11.551 -21.636  0.00  0.00    +0.050 C 
ATOM     12  C   UNL     1      33.100 -11.896 -22.485  0.00  0.00    +0.142 C 
ATOM     13  C   UNL     1      31.707 -12.390 -20.574  0.00  0.00    +0.004 C 
ATOM     14  C   UNL     1      33.809 -13.078 -22.273  0.00  0.00    +0.059 C 
ATOM     15  C   UNL     1      32.415 -13.572 -20.362  0.00  0.00    +0.030 C 
ATOM     16  C   UNL     1      33.467 -13.916 -21.211  0.00  0.00    +0.142 C 
ENDBRANCH   5  11
BRANCH   4  17
ATOM     17  N   UNL     1      32.649  -6.969 -21.356  0.00  0.00    -0.251 N 
ATOM     18  H   UNL     1      33.506  -6.943 -20.873  0.00  0.00    +0.171 HD
BRANCH  17  19
ATOM     19  C   UNL     1      31.934  -5.788 -21.590  0.00  0.00    +0.062 C 
ATOM     20  C   UNL     1      30.760  -5.520 -20.875  0.00  0.00    +0.016 C 
ATOM     21  C   UNL     1      32.386  -4.864 -22.539  0.00  0.00    +0.016 C 
ATOM     22  C   UNL     1      30.048  -4.342 -21.108  0.00  0.00    +0.001 C 
ATOM     23  C   UNL     1      31.673  -3.687 -22.771  0.00  0.00    +0.001 C 
ATOM     24  C   UNL     1      30.504  -3.427 -22.055  0.00  0.00    +0.000 C 
ENDBRANCH  17  19
ENDBRANCH   4  17
TORSDOF 3
ENDMDL
