MODEL 1
REMARK VINA RESULT:     -11.9      0.000      0.000
REMARK  Name = 57384863
REMARK  1 active torsions:
REMARK  status: ('A' for Active; 'I' for Inactive)
REMARK    1  A    between atoms: C_21  and  C_25
REMARK                            x       y       z     vdW  Elec       q    Type
REMARK                         _______ _______ _______ _____ _____    ______ ____
ROOT
ATOM      1  O   UNL     1      28.393 -23.408 -14.575  0.00  0.00    -0.349 OA
ATOM      2  O   UNL     1      37.213 -24.467 -14.049  0.00  0.00    -0.350 OA
ATOM      3  N   UNL     1      30.531 -22.762 -16.160  0.00  0.00    -0.234 N 
ATOM      4  N   UNL     1      35.027 -23.356 -15.421  0.00  0.00    -0.276 N 
ATOM      5  N   UNL     1      32.066 -23.639 -14.821  0.00  0.00    -0.381 NA
ATOM      6  N   UNL     1      31.959 -21.751 -17.851  0.00  0.00    -0.322 NA
ATOM      7  N   UNL     1      34.315 -22.137 -17.345  0.00  0.00    -0.322 NA
ATOM      8  C   UNL     1      29.646 -23.998 -14.162  0.00  0.00    +0.152 C 
ATOM      9  C   UNL     1      30.769 -23.476 -15.011  0.00  0.00    +0.190 C 
ATOM     10  C   UNL     1      29.202 -22.414 -16.612  0.00  0.00    +0.132 C 
ATOM     11  C   UNL     1      31.727 -22.446 -16.727  0.00  0.00    +0.235 C 
ATOM     12  C   UNL     1      28.184 -23.356 -15.989  0.00  0.00    +0.164 C 
ATOM     13  C   UNL     1      32.671 -23.002 -15.877  0.00  0.00    +0.222 C 
ATOM     14  C   UNL     1      29.846 -23.577 -12.702  0.00  0.00    +0.038 C 
ATOM     15  C   UNL     1      29.556 -25.525 -14.249  0.00  0.00    +0.038 C 
ATOM     16  C   UNL     1      34.009 -22.828 -16.221  0.00  0.00    +0.230 C 
ATOM     17  C   UNL     1      35.097 -24.802 -15.186  0.00  0.00    +0.125 C 
ATOM     18  C   UNL     1      36.317 -22.653 -15.387  0.00  0.00    +0.125 C 
ATOM     19  C   UNL     1      35.931 -25.083 -13.941  0.00  0.00    +0.164 C 
ATOM     20  C   UNL     1      37.084 -23.048 -14.130  0.00  0.00    +0.164 C 
ATOM     21  C   UNL     1      33.287 -21.648 -18.079  0.00  0.00    +0.140 C 
ENDROOT
BRANCH  21  25
ATOM     22  N   UNL     1      35.362 -20.077 -20.744  0.00  0.00    -0.202 NA
ATOM     23  N   UNL     1      33.036 -19.659 -21.219  0.00  0.00    -0.180 NA
ATOM     24  N   UNL     1      34.720 -18.851 -22.640  0.00  0.00    -0.303 N 
ATOM     25  C   UNL     1      33.660 -20.921 -19.266  0.00  0.00    +0.109 C 
ATOM     26  C   UNL     1      34.976 -20.752 -19.641  0.00  0.00    +0.177 C 
ATOM     27  C   UNL     1      32.723 -20.347 -20.102  0.00  0.00    +0.120 C 
ATOM     28  C   UNL     1      34.354 -19.565 -21.477  0.00  0.00    +0.084 C 
ATOM     29  H   UNL     1      35.669 -18.750 -22.877  0.00  0.00    +0.154 HD
ATOM     30  H   UNL     1      34.023 -18.455 -23.213  0.00  0.00    +0.154 HD
ENDBRANCH  21  25
TORSDOF 1
ENDMDL
MODEL 2
REMARK VINA RESULT:     -11.2      1.349      5.353
REMARK  Name = 57384863
REMARK  1 active torsions:
REMARK  status: ('A' for Active; 'I' for Inactive)
REMARK    1  A    between atoms: C_21  and  C_25
REMARK                            x       y       z     vdW  Elec       q    Type
REMARK                         _______ _______ _______ _____ _____    ______ ____
ROOT
ATOM      1  O   UNL     1      38.355 -24.940 -13.373  0.00  0.00    -0.349 OA
ATOM      2  O   UNL     1      29.506 -24.041 -13.686  0.00  0.00    -0.350 OA
ATOM      3  N   UNL     1      36.588 -23.599 -14.980  0.00  0.00    -0.234 N 
ATOM      4  N   UNL     1      31.995 -23.536 -14.892  0.00  0.00    -0.276 N 
ATOM      5  N   UNL     1      34.769 -24.245 -13.887  0.00  0.00    -0.381 NA
ATOM      6  N   UNL     1      35.573 -22.400 -16.838  0.00  0.00    -0.322 NA
ATOM      7  N   UNL     1      33.139 -22.439 -16.674  0.00  0.00    -0.322 NA
ATOM      8  C   UNL     1      36.995 -24.917 -12.882  0.00  0.00    +0.152 C 
ATOM      9  C   UNL     1      36.089 -24.279 -13.896  0.00  0.00    +0.190 C 
ATOM     10  C   UNL     1      38.003 -23.488 -15.259  0.00  0.00    +0.132 C 
ATOM     11  C   UNL     1      35.542 -23.114 -15.703  0.00  0.00    +0.235 C 
ATOM     12  C   UNL     1      38.798 -23.726 -13.986  0.00  0.00    +0.164 C 
ATOM     13  C   UNL     1      34.417 -23.527 -15.005  0.00  0.00    +0.222 C 
ATOM     14  C   UNL     1      36.603 -26.383 -12.668  0.00  0.00    +0.038 C 
ATOM     15  C   UNL     1      36.936 -24.170 -11.546  0.00  0.00    +0.038 C 
ATOM     16  C   UNL     1      33.181 -23.163 -15.531  0.00  0.00    +0.230 C 
ATOM     17  C   UNL     1      31.734 -23.094 -13.517  0.00  0.00    +0.125 C 
ATOM     18  C   UNL     1      30.798 -23.749 -15.718  0.00  0.00    +0.125 C 
ATOM     19  C   UNL     1      30.681 -23.993 -12.877  0.00  0.00    +0.164 C 
ATOM     20  C   UNL     1      29.797 -24.613 -14.961  0.00  0.00    +0.164 C 
ATOM     21  C   UNL     1      34.320 -22.108 -17.249  0.00  0.00    +0.140 C 
ENDROOT
BRANCH  21  25
ATOM     22  N   UNL     1      35.288 -20.081 -20.221  0.00  0.00    -0.202 NA
ATOM     23  N   UNL     1      32.894 -20.362 -20.215  0.00  0.00    -0.180 NA
ATOM     24  N   UNL     1      33.960 -19.144 -21.914  0.00  0.00    -0.303 N 
ATOM     25  C   UNL     1      34.227 -21.337 -18.463  0.00  0.00    +0.109 C 
ATOM     26  C   UNL     1      35.339 -20.807 -19.085  0.00  0.00    +0.177 C 
ATOM     27  C   UNL     1      33.019 -21.080 -19.079  0.00  0.00    +0.120 C 
ATOM     28  C   UNL     1      34.051 -19.900 -20.724  0.00  0.00    +0.084 C 
ATOM     29  H   UNL     1      34.774 -18.781 -22.331  0.00  0.00    +0.154 HD
ATOM     30  H   UNL     1      33.080 -18.980 -22.326  0.00  0.00    +0.154 HD
ENDBRANCH  21  25
TORSDOF 1
ENDMDL
