MODEL 1
REMARK VINA RESULT:     -14.2      0.000      0.000
REMARK  Name = 24767976
REMARK  5 active torsions:
REMARK  status: ('A' for Active; 'I' for Inactive)
REMARK    1  A    between atoms: C_1  and  N_9
REMARK    2  A    between atoms: C_2  and  O_19
REMARK    3  A    between atoms: C_10  and  C_14
REMARK    4  A    between atoms: O_19  and  C_27
REMARK    5  A    between atoms: C_31  and  C_33
REMARK                            x       y       z     vdW  Elec       q    Type
REMARK                         _______ _______ _______ _____ _____    ______ ____
ROOT
ATOM      1  C   UNL     1      34.960 -20.934 -18.893  0.00  0.00    +0.050 C 
ATOM      2  C   UNL     1      35.235 -19.242 -20.593  0.00  0.00    +0.148 C 
ATOM      3  C   UNL     1      33.616 -21.063 -19.237  0.00  0.00    -0.008 C 
ATOM      4  C   UNL     1      35.770 -20.023 -19.571  0.00  0.00    +0.052 C 
ATOM      5  C   UNL     1      33.080 -20.281 -20.260  0.00  0.00    +0.000 C 
ATOM      6  C   UNL     1      33.890 -19.370 -20.938  0.00  0.00    +0.037 C 
ATOM      7  C   UNL     1      32.724 -22.031 -18.527  0.00  0.00    +0.032 C 
ENDROOT
BRANCH   1   9
ATOM      8  O   UNL     1      36.850 -20.176 -16.691  0.00  0.00    -0.268 OA
ATOM      9  N   UNL     1      35.516 -21.710 -17.871  0.00  0.00    -0.279 N 
ATOM     10  C   UNL     1      36.398 -21.303 -16.864  0.00  0.00    +0.265 C 
ATOM     11  H   UNL     1      35.255 -22.660 -17.860  0.00  0.00    +0.155 HD
BRANCH  10  14
ATOM     12  N   UNL     1      36.028 -23.062 -15.077  0.00  0.00    -0.206 N 
ATOM     13  N   UNL     1      36.673 -23.981 -14.339  0.00  0.00    -0.182 NA
ATOM     14  C   UNL     1      36.839 -22.374 -15.932  0.00  0.00    +0.124 C 
ATOM     15  C   UNL     1      38.101 -22.879 -15.740  0.00  0.00    +0.037 C 
ATOM     16  C   UNL     1      37.939 -23.865 -14.749  0.00  0.00    +0.078 C 
ATOM     17  C   UNL     1      34.604 -22.892 -14.906  0.00  0.00    +0.140 C 
ATOM     18  C   UNL     1      38.979 -24.726 -14.162  0.00  0.00    +0.054 C 
ENDBRANCH  10  14
ENDBRANCH   1   9
BRANCH   2  19
ATOM     19  O   UNL     1      36.043 -18.331 -21.271  0.00  0.00    -0.435 OA
BRANCH  19  27
ATOM     20  N   UNL     1      33.065 -14.512 -23.507  0.00  0.00    -0.373 NA
ATOM     21  N   UNL     1      34.078 -15.494 -21.779  0.00  0.00    -0.173 N 
ATOM     22  N   UNL     1      34.816 -16.386 -21.062  0.00  0.00    -0.138 NA
ATOM     23  C   UNL     1      32.841 -13.795 -22.359  0.00  0.00    +0.187 C 
ATOM     24  C   UNL     1      33.455 -14.380 -21.279  0.00  0.00    +0.193 C 
ATOM     25  C   UNL     1      33.812 -15.533 -23.137  0.00  0.00    +0.204 C 
ATOM     26  C   UNL     1      34.360 -16.611 -23.872  0.00  0.00    +0.054 C 
ATOM     27  C   UNL     1      35.286 -17.345 -21.792  0.00  0.00    +0.245 C 
ATOM     28  C   UNL     1      35.099 -17.535 -23.246  0.00  0.00    +0.063 C 
ATOM     29  O   UNL     1      32.135 -11.966 -20.076  0.00  0.00    -0.275 OA
ATOM     30  N   UNL     1      32.092 -12.643 -22.337  0.00  0.00    -0.261 N 
ATOM     31  C   UNL     1      31.784 -11.813 -21.238  0.00  0.00    +0.227 C 
ATOM     32  H   UNL     1      31.720 -12.359 -23.202  0.00  0.00    +0.157 HD
BRANCH  31  33
ATOM     33  C   UNL     1      30.937 -10.625 -21.575  0.00  0.00    +0.077 C 
ATOM     34  C   UNL     1      31.603  -9.364 -22.043  0.00  0.00    +0.010 C 
ATOM     35  C   UNL     1      30.979  -9.422 -20.679  0.00  0.00    +0.010 C 
ENDBRANCH  31  33
ENDBRANCH  19  27
ENDBRANCH   2  19
TORSDOF 5
ENDMDL
MODEL 2
REMARK VINA RESULT:     -13.7      1.272      1.535
REMARK  Name = 24767976
REMARK  5 active torsions:
REMARK  status: ('A' for Active; 'I' for Inactive)
REMARK    1  A    between atoms: C_1  and  N_9
REMARK    2  A    between atoms: C_2  and  O_19
REMARK    3  A    between atoms: C_10  and  C_14
REMARK    4  A    between atoms: O_19  and  C_27
REMARK    5  A    between atoms: C_31  and  C_33
REMARK                            x       y       z     vdW  Elec       q    Type
REMARK                         _______ _______ _______ _____ _____    ______ ____
ROOT
ATOM      1  C   UNL     1      34.756 -21.653 -18.055  0.00  0.00    +0.050 C 
ATOM      2  C   UNL     1      35.266 -20.156 -19.879  0.00  0.00    +0.148 C 
ATOM      3  C   UNL     1      33.405 -21.611 -18.397  0.00  0.00    -0.008 C 
ATOM      4  C   UNL     1      35.687 -20.925 -18.796  0.00  0.00    +0.052 C 
ATOM      5  C   UNL     1      32.984 -20.840 -19.482  0.00  0.00    +0.000 C 
ATOM      6  C   UNL     1      33.915 -20.113 -20.223  0.00  0.00    +0.037 C 
ATOM      7  C   UNL     1      32.385 -22.380 -17.621  0.00  0.00    +0.032 C 
ENDROOT
BRANCH   1   9
ATOM      8  O   UNL     1      36.647 -20.962 -15.833  0.00  0.00    -0.268 OA
ATOM      9  N   UNL     1      35.196 -22.420 -16.972  0.00  0.00    -0.279 N 
ATOM     10  C   UNL     1      36.086 -22.046 -15.959  0.00  0.00    +0.265 C 
ATOM     11  H   UNL     1      34.838 -23.336 -16.917  0.00  0.00    +0.155 HD
BRANCH  10  14
ATOM     12  N   UNL     1      35.472 -23.685 -14.126  0.00  0.00    -0.206 N 
ATOM     13  N   UNL     1      35.998 -24.612 -13.307  0.00  0.00    -0.182 NA
ATOM     14  C   UNL     1      36.385 -23.100 -14.953  0.00  0.00    +0.124 C 
ATOM     15  C   UNL     1      37.591 -23.684 -14.655  0.00  0.00    +0.037 C 
ATOM     16  C   UNL     1      37.293 -24.607 -13.635  0.00  0.00    +0.078 C 
ATOM     17  C   UNL     1      34.056 -23.405 -14.059  0.00  0.00    +0.140 C 
ATOM     18  C   UNL     1      38.226 -25.511 -12.942  0.00  0.00    +0.054 C 
ENDBRANCH  10  14
ENDBRANCH   1   9
BRANCH   2  19
ATOM     19  O   UNL     1      36.195 -19.428 -20.620  0.00  0.00    -0.435 OA
BRANCH  19  27
ATOM     20  N   UNL     1      33.653 -16.080 -23.903  0.00  0.00    -0.373 NA
ATOM     21  N   UNL     1      34.705 -16.594 -22.005  0.00  0.00    -0.173 N 
ATOM     22  N   UNL     1      35.366 -17.318 -21.059  0.00  0.00    -0.138 NA
ATOM     23  C   UNL     1      33.716 -14.980 -23.086  0.00  0.00    +0.187 C 
ATOM     24  C   UNL     1      34.360 -15.271 -21.908  0.00  0.00    +0.193 C 
ATOM     25  C   UNL     1      34.254 -17.044 -23.235  0.00  0.00    +0.204 C 
ATOM     26  C   UNL     1      34.500 -18.399 -23.557  0.00  0.00    +0.054 C 
ATOM     27  C   UNL     1      35.559 -18.547 -21.417  0.00  0.00    +0.245 C 
ATOM     28  C   UNL     1      35.145 -19.184 -22.685  0.00  0.00    +0.063 C 
ATOM     29  O   UNL     1      33.656 -12.369 -21.591  0.00  0.00    -0.275 OA
ATOM     30  N   UNL     1      33.189 -13.760 -23.439  0.00  0.00    -0.261 N 
ATOM     31  C   UNL     1      33.183 -12.557 -22.704  0.00  0.00    +0.227 C 
ATOM     32  H   UNL     1      32.759 -13.722 -24.323  0.00  0.00    +0.157 HD
BRANCH  31  33
ATOM     33  C   UNL     1      32.518 -11.409 -23.397  0.00  0.00    +0.077 C 
ATOM     34  C   UNL     1      33.146 -10.048 -23.319  0.00  0.00    +0.010 C 
ATOM     35  C   UNL     1      31.876 -10.332 -22.572  0.00  0.00    +0.010 C 
ENDBRANCH  31  33
ENDBRANCH  19  27
ENDBRANCH   2  19
TORSDOF 5
ENDMDL
MODEL 3
REMARK VINA RESULT:     -13.1      2.131     10.998
REMARK  Name = 24767976
REMARK  5 active torsions:
REMARK  status: ('A' for Active; 'I' for Inactive)
REMARK    1  A    between atoms: C_1  and  N_9
REMARK    2  A    between atoms: C_2  and  O_19
REMARK    3  A    between atoms: C_10  and  C_14
REMARK    4  A    between atoms: O_19  and  C_27
REMARK    5  A    between atoms: C_31  and  C_33
REMARK                            x       y       z     vdW  Elec       q    Type
REMARK                         _______ _______ _______ _____ _____    ______ ____
ROOT
ATOM      1  C   UNL     1      34.499 -18.671 -21.152  0.00  0.00    +0.050 C 
ATOM      2  C   UNL     1      33.669 -20.610 -19.975  0.00  0.00    +0.148 C 
ATOM      3  C   UNL     1      35.808 -19.102 -20.941  0.00  0.00    -0.008 C 
ATOM      4  C   UNL     1      33.429 -19.425 -20.669  0.00  0.00    +0.052 C 
ATOM      5  C   UNL     1      36.048 -20.288 -20.246  0.00  0.00    +0.000 C 
ATOM      6  C   UNL     1      34.978 -21.042 -19.763  0.00  0.00    +0.037 C 
ATOM      7  C   UNL     1      36.973 -18.314 -21.446  0.00  0.00    +0.032 C 
ENDROOT
BRANCH   1   9
ATOM      8  O   UNL     1      34.464 -15.830 -20.194  0.00  0.00    -0.268 OA
ATOM      9  N   UNL     1      34.238 -17.487 -21.846  0.00  0.00    -0.279 N 
ATOM     10  C   UNL     1      34.234 -16.179 -21.347  0.00  0.00    +0.265 C 
ATOM     11  H   UNL     1      34.030 -17.584 -22.804  0.00  0.00    +0.155 HD
BRANCH  10  14
ATOM     12  N   UNL     1      33.727 -15.314 -23.675  0.00  0.00    -0.206 N 
ATOM     13  N   UNL     1      33.417 -14.193 -24.349  0.00  0.00    -0.182 NA
ATOM     14  C   UNL     1      33.889 -15.122 -22.334  0.00  0.00    +0.124 C 
ATOM     15  C   UNL     1      33.669 -13.784 -22.116  0.00  0.00    +0.037 C 
ATOM     16  C   UNL     1      33.382 -13.263 -23.392  0.00  0.00    +0.078 C 
ATOM     17  C   UNL     1      33.857 -16.559 -24.395  0.00  0.00    +0.140 C 
ATOM     18  C   UNL     1      33.066 -11.867 -23.740  0.00  0.00    +0.054 C 
ENDBRANCH  10  14
ENDBRANCH   1   9
BRANCH   2  19
ATOM     19  O   UNL     1      32.602 -21.364 -19.493  0.00  0.00    -0.435 OA
BRANCH  19  27
ATOM     20  N   UNL     1      33.552 -23.234 -14.588  0.00  0.00    -0.373 NA
ATOM     21  N   UNL     1      34.184 -22.479 -16.590  0.00  0.00    -0.173 N 
ATOM     22  N   UNL     1      34.109 -21.996 -17.861  0.00  0.00    -0.138 NA
ATOM     23  C   UNL     1      34.921 -23.213 -14.675  0.00  0.00    +0.187 C 
ATOM     24  C   UNL     1      35.336 -22.752 -15.900  0.00  0.00    +0.193 C 
ATOM     25  C   UNL     1      33.125 -22.788 -15.752  0.00  0.00    +0.204 C 
ATOM     26  C   UNL     1      31.820 -22.584 -16.259  0.00  0.00    +0.054 C 
ATOM     27  C   UNL     1      32.890 -21.833 -18.262  0.00  0.00    +0.245 C 
ATOM     28  C   UNL     1      31.654 -22.111 -17.500  0.00  0.00    +0.063 C 
ATOM     29  O   UNL     1      37.923 -23.313 -14.482  0.00  0.00    -0.275 OA
ATOM     30  N   UNL     1      35.738 -23.613 -13.643  0.00  0.00    -0.261 N 
ATOM     31  C   UNL     1      37.147 -23.644 -13.596  0.00  0.00    +0.227 C 
ATOM     32  H   UNL     1      35.278 -23.917 -12.829  0.00  0.00    +0.157 HD
BRANCH  31  33
ATOM     33  C   UNL     1      37.714 -24.138 -12.302  0.00  0.00    +0.077 C 
ATOM     34  C   UNL     1      37.476 -25.564 -11.898  0.00  0.00    +0.010 C 
ATOM     35  C   UNL     1      36.781 -24.451 -11.169  0.00  0.00    +0.010 C 
ENDBRANCH  31  33
ENDBRANCH  19  27
ENDBRANCH   2  19
TORSDOF 5
ENDMDL
MODEL 4
REMARK VINA RESULT:     -12.9      3.187     12.453
REMARK  Name = 24767976
REMARK  5 active torsions:
REMARK  status: ('A' for Active; 'I' for Inactive)
REMARK    1  A    between atoms: C_1  and  N_9
REMARK    2  A    between atoms: C_2  and  O_19
REMARK    3  A    between atoms: C_10  and  C_14
REMARK    4  A    between atoms: O_19  and  C_27
REMARK    5  A    between atoms: C_31  and  C_33
REMARK                            x       y       z     vdW  Elec       q    Type
REMARK                         _______ _______ _______ _____ _____    ______ ____
ROOT
ATOM      1  C   UNL     1      31.927 -10.378 -22.297  0.00  0.00    +0.050 C 
ATOM      2  C   UNL     1      33.095 -12.337 -23.092  0.00  0.00    +0.148 C 
ATOM      3  C   UNL     1      31.564 -11.064 -21.139  0.00  0.00    -0.008 C 
ATOM      4  C   UNL     1      32.692 -11.015 -23.275  0.00  0.00    +0.052 C 
ATOM      5  C   UNL     1      31.968 -12.387 -20.956  0.00  0.00    +0.000 C 
ATOM      6  C   UNL     1      32.733 -13.024 -21.933  0.00  0.00    +0.037 C 
ATOM      7  C   UNL     1      30.744 -10.407 -20.075  0.00  0.00    +0.032 C 
ENDROOT
BRANCH   1   9
ATOM      8  O   UNL     1      33.548  -7.964 -23.027  0.00  0.00    -0.268 OA
ATOM      9  N   UNL     1      31.533  -9.053 -22.498  0.00  0.00    -0.279 N 
ATOM     10  C   UNL     1      32.336  -7.958 -22.839  0.00  0.00    +0.265 C 
ATOM     11  H   UNL     1      30.572  -8.865 -22.385  0.00  0.00    +0.155 HD
BRANCH  10  14
ATOM     12  N   UNL     1      31.134  -6.125 -24.111  0.00  0.00    -0.206 N 
ATOM     13  N   UNL     1      30.532  -4.935 -23.947  0.00  0.00    -0.182 NA
ATOM     14  C   UNL     1      31.624  -6.658 -22.955  0.00  0.00    +0.124 C 
ATOM     15  C   UNL     1      31.323  -5.754 -21.967  0.00  0.00    +0.037 C 
ATOM     16  C   UNL     1      30.650  -4.713 -22.635  0.00  0.00    +0.078 C 
ATOM     17  C   UNL     1      31.205  -6.705 -25.433  0.00  0.00    +0.140 C 
ATOM     18  C   UNL     1      30.099  -3.480 -22.050  0.00  0.00    +0.054 C 
ENDBRANCH  10  14
ENDBRANCH   1   9
BRANCH   2  19
ATOM     19  O   UNL     1      33.859 -12.974 -24.067  0.00  0.00    -0.435 OA
BRANCH  19  27
ATOM     20  N   UNL     1      33.862 -18.254 -23.310  0.00  0.00    -0.373 NA
ATOM     21  N   UNL     1      34.415 -16.163 -22.766  0.00  0.00    -0.173 N 
ATOM     22  N   UNL     1      34.508 -14.805 -22.818  0.00  0.00    -0.138 NA
ATOM     23  C   UNL     1      34.616 -18.248 -22.164  0.00  0.00    +0.187 C 
ATOM     24  C   UNL     1      34.971 -16.970 -21.808  0.00  0.00    +0.193 C 
ATOM     25  C   UNL     1      33.751 -16.988 -23.658  0.00  0.00    +0.204 C 
ATOM     26  C   UNL     1      33.094 -16.367 -24.746  0.00  0.00    +0.054 C 
ATOM     27  C   UNL     1      33.886 -14.301 -23.835  0.00  0.00    +0.245 C 
ATOM     28  C   UNL     1      33.134 -15.035 -24.875  0.00  0.00    +0.063 C 
ATOM     29  O   UNL     1      36.229 -18.642 -19.654  0.00  0.00    -0.275 OA
ATOM     30  N   UNL     1      34.952 -19.398 -21.489  0.00  0.00    -0.261 N 
ATOM     31  C   UNL     1      35.714 -19.537 -20.311  0.00  0.00    +0.227 C 
ATOM     32  H   UNL     1      34.616 -20.235 -21.881  0.00  0.00    +0.157 HD
BRANCH  31  33
ATOM     33  C   UNL     1      35.886 -20.949 -19.845  0.00  0.00    +0.077 C 
ATOM     34  C   UNL     1      34.755 -21.621 -19.123  0.00  0.00    +0.010 C 
ATOM     35  C   UNL     1      35.993 -21.224 -18.374  0.00  0.00    +0.010 C 
ENDBRANCH  31  33
ENDBRANCH  19  27
ENDBRANCH   2  19
TORSDOF 5
ENDMDL
MODEL 5
REMARK VINA RESULT:     -12.2      1.620     10.702
REMARK  Name = 24767976
REMARK  5 active torsions:
REMARK  status: ('A' for Active; 'I' for Inactive)
REMARK    1  A    between atoms: C_1  and  N_9
REMARK    2  A    between atoms: C_2  and  O_19
REMARK    3  A    between atoms: C_10  and  C_14
REMARK    4  A    between atoms: O_19  and  C_27
REMARK    5  A    between atoms: C_31  and  C_33
REMARK                            x       y       z     vdW  Elec       q    Type
REMARK                         _______ _______ _______ _____ _____    ______ ____
ROOT
ATOM      1  C   UNL     1      34.224 -16.572 -22.514  0.00  0.00    +0.050 C 
ATOM      2  C   UNL     1      35.711 -18.226 -21.572  0.00  0.00    +0.148 C 
ATOM      3  C   UNL     1      33.968 -17.416 -23.594  0.00  0.00    -0.008 C 
ATOM      4  C   UNL     1      35.095 -16.977 -21.503  0.00  0.00    +0.052 C 
ATOM      5  C   UNL     1      34.585 -18.666 -23.663  0.00  0.00    +0.000 C 
ATOM      6  C   UNL     1      35.457 -19.071 -22.652  0.00  0.00    +0.037 C 
ATOM      7  C   UNL     1      33.039 -17.009 -24.691  0.00  0.00    +0.032 C 
ENDROOT
BRANCH   1   9
ATOM      8  O   UNL     1      34.155 -14.605 -20.252  0.00  0.00    -0.268 OA
ATOM      9  N   UNL     1      33.615 -15.318 -22.426  0.00  0.00    -0.279 N 
ATOM     10  C   UNL     1      33.614 -14.436 -21.339  0.00  0.00    +0.265 C 
ATOM     11  H   UNL     1      33.126 -15.018 -23.227  0.00  0.00    +0.155 HD
BRANCH  10  14
ATOM     12  N   UNL     1      32.851 -12.423 -22.678  0.00  0.00    -0.206 N 
ATOM     13  N   UNL     1      32.073 -11.330 -22.606  0.00  0.00    -0.182 NA
ATOM     14  C   UNL     1      32.848 -13.177 -21.542  0.00  0.00    +0.124 C 
ATOM     15  C   UNL     1      32.011 -12.532 -20.665  0.00  0.00    +0.037 C 
ATOM     16  C   UNL     1      31.562 -11.402 -21.374  0.00  0.00    +0.078 C 
ATOM     17  C   UNL     1      33.585 -12.689 -23.894  0.00  0.00    +0.140 C 
ATOM     18  C   UNL     1      30.636 -10.358 -20.904  0.00  0.00    +0.054 C 
ENDBRANCH  10  14
ENDBRANCH   1   9
BRANCH   2  19
ATOM     19  O   UNL     1      36.582 -18.630 -20.563  0.00  0.00    -0.435 OA
BRANCH  19  27
ATOM     20  N   UNL     1      34.084 -22.316 -17.625  0.00  0.00    -0.373 NA
ATOM     21  N   UNL     1      35.779 -20.936 -18.070  0.00  0.00    -0.173 N 
ATOM     22  N   UNL     1      36.540 -20.001 -18.705  0.00  0.00    -0.138 NA
ATOM     23  C   UNL     1      35.045 -22.420 -16.653  0.00  0.00    +0.187 C 
ATOM     24  C   UNL     1      36.102 -21.579 -16.905  0.00  0.00    +0.193 C 
ATOM     25  C   UNL     1      34.543 -21.416 -18.471  0.00  0.00    +0.204 C 
ATOM     26  C   UNL     1      34.001 -20.888 -19.667  0.00  0.00    +0.054 C 
ATOM     27  C   UNL     1      35.988 -19.560 -19.789  0.00  0.00    +0.245 C 
ATOM     28  C   UNL     1      34.683 -19.964 -20.355  0.00  0.00    +0.063 C 
ATOM     29  O   UNL     1      36.911 -22.927 -14.346  0.00  0.00    -0.275 OA
ATOM     30  N   UNL     1      34.928 -23.271 -15.579  0.00  0.00    -0.261 N 
ATOM     31  C   UNL     1      35.832 -23.478 -14.516  0.00  0.00    +0.227 C 
ATOM     32  H   UNL     1      34.104 -23.808 -15.548  0.00  0.00    +0.157 HD
BRANCH  31  33
ATOM     33  C   UNL     1      35.382 -24.488 -13.506  0.00  0.00    +0.077 C 
ATOM     34  C   UNL     1      34.898 -24.013 -12.167  0.00  0.00    +0.010 C 
ATOM     35  C   UNL     1      36.219 -24.717 -12.282  0.00  0.00    +0.010 C 
ENDBRANCH  31  33
ENDBRANCH  19  27
ENDBRANCH   2  19
TORSDOF 5
ENDMDL
MODEL 6
REMARK VINA RESULT:     -11.8      4.787     14.175
REMARK  Name = 24767976
REMARK  5 active torsions:
REMARK  status: ('A' for Active; 'I' for Inactive)
REMARK    1  A    between atoms: C_1  and  N_9
REMARK    2  A    between atoms: C_2  and  O_19
REMARK    3  A    between atoms: C_10  and  C_14
REMARK    4  A    between atoms: O_19  and  C_27
REMARK    5  A    between atoms: C_31  and  C_33
REMARK                            x       y       z     vdW  Elec       q    Type
REMARK                         _______ _______ _______ _____ _____    ______ ____
ROOT
ATOM      1  C   UNL     1      31.611  -7.059 -21.537  0.00  0.00    +0.050 C 
ATOM      2  C   UNL     1      30.897  -9.283 -20.924  0.00  0.00    +0.148 C 
ATOM      3  C   UNL     1      32.012  -6.825 -20.222  0.00  0.00    -0.008 C 
ATOM      4  C   UNL     1      31.053  -8.288 -21.888  0.00  0.00    +0.052 C 
ATOM      5  C   UNL     1      31.856  -7.821 -19.258  0.00  0.00    +0.000 C 
ATOM      6  C   UNL     1      31.298  -9.050 -19.609  0.00  0.00    +0.037 C 
ATOM      7  C   UNL     1      32.613  -5.518 -19.818  0.00  0.00    +0.032 C 
ENDROOT
BRANCH   1   9
ATOM      8  O   UNL     1      29.715  -4.918 -22.439  0.00  0.00    -0.268 OA
ATOM      9  N   UNL     1      31.760  -6.074 -22.517  0.00  0.00    -0.279 N 
ATOM     10  C   UNL     1      30.838  -5.094 -22.900  0.00  0.00    +0.265 C 
ATOM     11  H   UNL     1      32.620  -6.071 -22.998  0.00  0.00    +0.155 HD
BRANCH  10  14
ATOM     12  N   UNL     1      31.433  -2.848 -23.912  0.00  0.00    -0.206 N 
ATOM     13  N   UNL     1      31.844  -2.271 -25.054  0.00  0.00    -0.182 NA
ATOM     14  C   UNL     1      31.280  -4.200 -24.003  0.00  0.00    +0.124 C 
ATOM     15  C   UNL     1      31.613  -4.530 -25.294  0.00  0.00    +0.037 C 
ATOM     16  C   UNL     1      31.952  -3.303 -25.894  0.00  0.00    +0.078 C 
ATOM     17  C   UNL     1      31.202  -2.025 -22.748  0.00  0.00    +0.140 C 
ATOM     18  C   UNL     1      32.389  -3.074 -27.282  0.00  0.00    +0.054 C 
ENDBRANCH  10  14
ENDBRANCH   1   9
BRANCH   2  19
ATOM     19  O   UNL     1      30.339 -10.511 -21.274  0.00  0.00    -0.435 OA
BRANCH  19  27
ATOM     20  N   UNL     1      34.139 -13.598 -23.391  0.00  0.00    -0.373 NA
ATOM     21  N   UNL     1      32.600 -13.104 -21.854  0.00  0.00    -0.173 N 
ATOM     22  N   UNL     1      31.617 -12.433 -21.193  0.00  0.00    -0.138 NA
ATOM     23  C   UNL     1      34.089 -14.585 -22.439  0.00  0.00    +0.187 C 
ATOM     24  C   UNL     1      33.148 -14.303 -21.480  0.00  0.00    +0.193 C 
ATOM     25  C   UNL     1      33.234 -12.714 -23.022  0.00  0.00    +0.204 C 
ATOM     26  C   UNL     1      32.828 -11.488 -23.600  0.00  0.00    +0.054 C 
ATOM     27  C   UNL     1      31.293 -11.323 -21.773  0.00  0.00    +0.245 C 
ATOM     28  C   UNL     1      31.867 -10.763 -23.015  0.00  0.00    +0.063 C 
ATOM     29  O   UNL     1      34.273 -16.933 -20.565  0.00  0.00    -0.275 OA
ATOM     30  N   UNL     1      34.896 -15.697 -22.478  0.00  0.00    -0.261 N 
ATOM     31  C   UNL     1      34.950 -16.778 -21.574  0.00  0.00    +0.227 C 
ATOM     32  H   UNL     1      35.519 -15.745 -23.237  0.00  0.00    +0.157 HD
BRANCH  31  33
ATOM     33  C   UNL     1      35.955 -17.831 -21.924  0.00  0.00    +0.077 C 
ATOM     34  C   UNL     1      35.537 -19.273 -21.904  0.00  0.00    +0.010 C 
ATOM     35  C   UNL     1      36.461 -18.744 -20.846  0.00  0.00    +0.010 C 
ENDBRANCH  31  33
ENDBRANCH  19  27
ENDBRANCH   2  19
TORSDOF 5
ENDMDL
MODEL 7
REMARK VINA RESULT:     -11.7      2.924      4.723
REMARK  Name = 24767976
REMARK  5 active torsions:
REMARK  status: ('A' for Active; 'I' for Inactive)
REMARK    1  A    between atoms: C_1  and  N_9
REMARK    2  A    between atoms: C_2  and  O_19
REMARK    3  A    between atoms: C_10  and  C_14
REMARK    4  A    between atoms: O_19  and  C_27
REMARK    5  A    between atoms: C_31  and  C_33
REMARK                            x       y       z     vdW  Elec       q    Type
REMARK                         _______ _______ _______ _____ _____    ______ ____
ROOT
ATOM      1  C   UNL     1      33.419 -22.825 -15.906  0.00  0.00    +0.050 C 
ATOM      2  C   UNL     1      33.607 -22.543 -18.297  0.00  0.00    +0.148 C 
ATOM      3  C   UNL     1      32.088 -22.415 -15.962  0.00  0.00    -0.008 C 
ATOM      4  C   UNL     1      34.179 -22.889 -17.074  0.00  0.00    +0.052 C 
ATOM      5  C   UNL     1      31.515 -22.069 -17.186  0.00  0.00    +0.000 C 
ATOM      6  C   UNL     1      32.275 -22.134 -18.354  0.00  0.00    +0.037 C 
ATOM      7  C   UNL     1      31.250 -22.336 -14.726  0.00  0.00    +0.032 C 
ENDROOT
BRANCH   1   9
ATOM      8  O   UNL     1      35.120 -25.187 -15.187  0.00  0.00    -0.268 OA
ATOM      9  N   UNL     1      34.010 -23.176 -14.689  0.00  0.00    -0.279 N 
ATOM     10  C   UNL     1      34.799 -24.297 -14.407  0.00  0.00    +0.265 C 
ATOM     11  H   UNL     1      33.851 -22.559 -13.938  0.00  0.00    +0.155 HD
BRANCH  10  14
ATOM     12  N   UNL     1      36.284 -25.204 -12.565  0.00  0.00    -0.206 N 
ATOM     13  N   UNL     1      36.506 -25.126 -11.242  0.00  0.00    -0.182 NA
ATOM     14  C   UNL     1      35.263 -24.411 -12.999  0.00  0.00    +0.124 C 
ATOM     15  C   UNL     1      34.784 -23.769 -11.883  0.00  0.00    +0.037 C 
ATOM     16  C   UNL     1      35.588 -24.248 -10.831  0.00  0.00    +0.078 C 
ATOM     17  C   UNL     1      37.106 -26.079 -13.369  0.00  0.00    +0.140 C 
ATOM     18  C   UNL     1      35.507 -23.887  -9.406  0.00  0.00    +0.054 C 
ENDBRANCH  10  14
ENDBRANCH   1   9
BRANCH   2  19
ATOM     19  O   UNL     1      34.366 -22.607 -19.464  0.00  0.00    -0.435 OA
BRANCH  19  27
ATOM     20  N   UNL     1      35.950 -17.701 -20.832  0.00  0.00    -0.373 NA
ATOM     21  N   UNL     1      34.637 -19.495 -21.017  0.00  0.00    -0.173 N 
ATOM     22  N   UNL     1      34.114 -20.731 -20.787  0.00  0.00    -0.138 NA
ATOM     23  C   UNL     1      35.017 -17.504 -21.819  0.00  0.00    +0.187 C 
ATOM     24  C   UNL     1      34.196 -18.596 -21.953  0.00  0.00    +0.193 C 
ATOM     25  C   UNL     1      35.705 -18.906 -20.360  0.00  0.00    +0.204 C 
ATOM     26  C   UNL     1      36.330 -19.660 -19.339  0.00  0.00    +0.054 C 
ATOM     27  C   UNL     1      34.730 -21.366 -19.843  0.00  0.00    +0.245 C 
ATOM     28  C   UNL     1      35.880 -20.886 -19.047  0.00  0.00    +0.063 C 
ATOM     29  O   UNL     1      33.143 -16.705 -24.035  0.00  0.00    -0.275 OA
ATOM     30  N   UNL     1      34.948 -16.346 -22.557  0.00  0.00    -0.261 N 
ATOM     31  C   UNL     1      34.050 -16.012 -23.591  0.00  0.00    +0.227 C 
ATOM     32  H   UNL     1      35.615 -15.658 -22.333  0.00  0.00    +0.157 HD
BRANCH  31  33
ATOM     33  C   UNL     1      34.259 -14.653 -24.182  0.00  0.00    +0.077 C 
ATOM     34  C   UNL     1      33.539 -13.479 -23.584  0.00  0.00    +0.010 C 
ATOM     35  C   UNL     1      33.134 -14.002 -24.932  0.00  0.00    +0.010 C 
ENDBRANCH  31  33
ENDBRANCH  19  27
ENDBRANCH   2  19
TORSDOF 5
ENDMDL
