MODEL 1
REMARK VINA RESULT:     -13.3      0.000      0.000
REMARK  Name = 11538992
REMARK  4 active torsions:
REMARK  status: ('A' for Active; 'I' for Inactive)
REMARK    1  A    between atoms: C_1  and  N_7
REMARK    2  A    between atoms: C_3  and  C_24
REMARK    3  A    between atoms: C_4  and  N_30
REMARK    4  A    between atoms: C_15  and  C_20
REMARK                            x       y       z     vdW  Elec       q    Type
REMARK                         _______ _______ _______ _____ _____    ______ ____
ROOT
ATOM      1  C   UNL     1      34.876 -21.028 -19.675  0.00  0.00    -0.059 C 
ATOM      2  C   UNL     1      36.071 -20.081 -19.824  0.00  0.00    -0.042 C 
ATOM      3  C   UNL     1      34.580 -18.383 -20.996  0.00  0.00    +0.005 C 
ATOM      4  C   UNL     1      35.916 -19.169 -21.052  0.00  0.00    -0.064 C 
ATOM      5  C   UNL     1      33.562 -20.247 -19.601  0.00  0.00    -0.021 C 
ATOM      6  C   UNL     1      33.386 -19.342 -20.819  0.00  0.00    +0.000 C 
ENDROOT
BRANCH   1   7
ATOM      7  N   UNL     1      35.036 -21.843 -18.471  0.00  0.00    +0.394 N 
ATOM      8  N   UNL     1      35.084 -22.731 -15.832  0.00  0.00    -0.299 N 
ATOM      9  N   UNL     1      32.989 -23.335 -15.752  0.00  0.00    -0.136 NA
ATOM     10  N   UNL     1      33.625 -23.769 -14.600  0.00  0.00    -0.125 NA
ATOM     11  C   UNL     1      36.021 -21.238 -17.556  0.00  0.00    -0.052 C 
ATOM     12  C   UNL     1      33.733 -22.029 -17.799  0.00  0.00    -0.009 C 
ATOM     13  C   UNL     1      36.303 -22.176 -16.373  0.00  0.00    +0.086 C 
ATOM     14  C   UNL     1      33.886 -22.713 -16.488  0.00  0.00    +0.122 A 
ATOM     15  C   UNL     1      34.885 -23.396 -14.671  0.00  0.00    +0.238 A 
ATOM     16  H   UNL     1      35.388 -22.761 -18.747  0.00  0.00    -0.079 HD
BRANCH  15  20
ATOM     17  F   UNL     1      37.003 -24.381 -14.154  0.00  0.00    -0.163 F 
ATOM     18  F   UNL     1      36.522 -22.509 -13.169  0.00  0.00    -0.163 F 
ATOM     19  F   UNL     1      35.506 -24.339 -12.578  0.00  0.00    -0.163 F 
ATOM     20  C   UNL     1      35.944 -23.646 -13.679  0.00  0.00    +0.452 C 
ENDBRANCH  15  20
ENDBRANCH   1   7
BRANCH   3  24
ATOM     21  F   UNL     1      33.942 -19.378 -23.576  0.00  0.00    -0.204 F 
ATOM     22  F   UNL     1      34.373 -13.951 -23.046  0.00  0.00    -0.202 F 
ATOM     23  F   UNL     1      33.763 -15.046 -25.474  0.00  0.00    -0.202 F 
ATOM     24  C   UNL     1      34.360 -17.485 -22.206  0.00  0.00    +0.005 C 
ATOM     25  C   UNL     1      34.049 -18.049 -23.439  0.00  0.00    +0.138 C 
ATOM     26  C   UNL     1      34.470 -16.106 -22.067  0.00  0.00    +0.030 C 
ATOM     27  C   UNL     1      34.269 -15.280 -23.173  0.00  0.00    +0.167 C 
ATOM     28  C   UNL     1      33.848 -17.223 -24.545  0.00  0.00    +0.061 C 
ATOM     29  C   UNL     1      33.958 -15.840 -24.412  0.00  0.00    +0.170 C 
ENDBRANCH   3  24
BRANCH   4  30
ATOM     30  N   UNL     1      37.056 -18.249 -21.124  0.00  0.00    +0.382 N 
ATOM     31  H   UNL     1      37.026 -17.739 -22.006  0.00  0.00    -0.089 HD
ATOM     32  H   UNL     1      37.925 -18.781 -21.067  0.00  0.00    -0.089 HD
ATOM     33  H   UNL     1      37.010 -17.589 -20.348  0.00  0.00    -0.089 HD
ENDBRANCH   4  30
TORSDOF 4
ENDMDL
MODEL 2
REMARK VINA RESULT:     -13.0      1.278      2.076
REMARK  Name = 11538992
REMARK  4 active torsions:
REMARK  status: ('A' for Active; 'I' for Inactive)
REMARK    1  A    between atoms: C_1  and  N_7
REMARK    2  A    between atoms: C_3  and  C_24
REMARK    3  A    between atoms: C_4  and  N_30
REMARK    4  A    between atoms: C_15  and  C_20
REMARK                            x       y       z     vdW  Elec       q    Type
REMARK                         _______ _______ _______ _____ _____    ______ ____
ROOT
ATOM      1  C   UNL     1      34.372 -21.725 -18.947  0.00  0.00    -0.059 C 
ATOM      2  C   UNL     1      35.574 -20.776 -19.016  0.00  0.00    -0.042 C 
ATOM      3  C   UNL     1      34.223 -19.172 -20.459  0.00  0.00    +0.005 C 
ATOM      4  C   UNL     1      35.559 -19.945 -20.310  0.00  0.00    -0.064 C 
ATOM      5  C   UNL     1      33.056 -20.955 -19.075  0.00  0.00    -0.021 C 
ATOM      6  C   UNL     1      33.020 -20.131 -20.361  0.00  0.00    +0.000 C 
ENDROOT
BRANCH   1   7
ATOM      7  N   UNL     1      34.393 -22.460 -17.682  0.00  0.00    +0.394 N 
ATOM      8  N   UNL     1      34.246 -23.147 -14.988  0.00  0.00    -0.299 N 
ATOM      9  N   UNL     1      32.093 -23.497 -14.954  0.00  0.00    -0.136 NA
ATOM     10  N   UNL     1      32.634 -23.914 -13.748  0.00  0.00    -0.125 NA
ATOM     11  C   UNL     1      35.411 -21.906 -16.771  0.00  0.00    -0.052 C 
ATOM     12  C   UNL     1      33.055 -22.443 -17.054  0.00  0.00    -0.009 C 
ATOM     13  C   UNL     1      35.540 -22.779 -15.514  0.00  0.00    +0.086 C 
ATOM     14  C   UNL     1      33.082 -23.040 -15.693  0.00  0.00    +0.122 A 
ATOM     15  C   UNL     1      33.931 -23.696 -13.792  0.00  0.00    +0.238 A 
ATOM     16  H   UNL     1      34.643 -23.430 -17.877  0.00  0.00    -0.079 HD
BRANCH  15  20
ATOM     17  F   UNL     1      34.382 -24.522 -11.592  0.00  0.00    -0.163 F 
ATOM     18  F   UNL     1      35.885 -24.896 -13.112  0.00  0.00    -0.163 F 
ATOM     19  F   UNL     1      35.616 -22.887 -12.323  0.00  0.00    -0.163 F 
ATOM     20  C   UNL     1      34.919 -23.992 -12.741  0.00  0.00    +0.452 C 
ENDBRANCH  15  20
ENDBRANCH   1   7
BRANCH   3  24
ATOM     21  F   UNL     1      34.889 -16.416 -20.593  0.00  0.00    -0.204 F 
ATOM     22  F   UNL     1      33.250 -18.801 -25.234  0.00  0.00    -0.202 F 
ATOM     23  F   UNL     1      33.922 -16.152 -25.218  0.00  0.00    -0.202 F 
ATOM     24  C   UNL     1      34.142 -18.355 -21.742  0.00  0.00    +0.005 C 
ATOM     25  C   UNL     1      34.486 -17.006 -21.727  0.00  0.00    +0.138 C 
ATOM     26  C   UNL     1      33.725 -18.965 -22.920  0.00  0.00    +0.030 C 
ATOM     27  C   UNL     1      33.650 -18.220 -24.097  0.00  0.00    +0.167 C 
ATOM     28  C   UNL     1      34.410 -16.261 -22.903  0.00  0.00    +0.061 C 
ATOM     29  C   UNL     1      33.993 -16.867 -24.088  0.00  0.00    +0.170 C 
ENDBRANCH   3  24
BRANCH   4  30
ATOM     30  N   UNL     1      36.697 -19.020 -20.308  0.00  0.00    +0.382 N 
ATOM     31  H   UNL     1      37.308 -19.233 -21.096  0.00  0.00    -0.089 HD
ATOM     32  H   UNL     1      37.217 -19.123 -19.437  0.00  0.00    -0.089 HD
ATOM     33  H   UNL     1      36.357 -18.062 -20.390  0.00  0.00    -0.089 HD
ENDBRANCH   4  30
TORSDOF 4
ENDMDL
MODEL 3
REMARK VINA RESULT:     -13.0      6.596     10.402
REMARK  Name = 11538992
REMARK  4 active torsions:
REMARK  status: ('A' for Active; 'I' for Inactive)
REMARK    1  A    between atoms: C_1  and  N_7
REMARK    2  A    between atoms: C_3  and  C_24
REMARK    3  A    between atoms: C_4  and  N_30
REMARK    4  A    between atoms: C_15  and  C_20
REMARK                            x       y       z     vdW  Elec       q    Type
REMARK                         _______ _______ _______ _____ _____    ______ ____
ROOT
ATOM      1  C   UNL     1      33.452 -12.003 -22.452  0.00  0.00    -0.059 C 
ATOM      2  C   UNL     1      31.965 -11.988 -22.083  0.00  0.00    -0.042 C 
ATOM      3  C   UNL     1      31.773  -9.604 -22.955  0.00  0.00    +0.005 C 
ATOM      4  C   UNL     1      31.478 -10.562 -21.772  0.00  0.00    -0.064 C 
ATOM      5  C   UNL     1      33.734 -11.069 -23.632  0.00  0.00    -0.021 C 
ATOM      6  C   UNL     1      33.265  -9.646 -23.336  0.00  0.00    +0.000 C 
ENDROOT
BRANCH   1   7
ATOM      7  N   UNL     1      33.866 -13.365 -22.790  0.00  0.00    +0.394 N 
ATOM      8  N   UNL     1      33.908 -16.115 -23.222  0.00  0.00    -0.299 N 
ATOM      9  N   UNL     1      33.106 -16.043 -25.250  0.00  0.00    -0.136 NA
ATOM     10  N   UNL     1      33.524 -17.336 -24.979  0.00  0.00    -0.125 NA
ATOM     11  C   UNL     1      33.757 -14.251 -21.616  0.00  0.00    -0.052 C 
ATOM     12  C   UNL     1      33.065 -13.881 -23.919  0.00  0.00    -0.009 C 
ATOM     13  C   UNL     1      34.344 -15.635 -21.932  0.00  0.00    +0.086 C 
ATOM     14  C   UNL     1      33.348 -15.317 -24.179  0.00  0.00    +0.122 A 
ATOM     15  C   UNL     1      34.005 -17.355 -23.754  0.00  0.00    +0.238 A 
ATOM     16  H   UNL     1      34.845 -13.342 -23.075  0.00  0.00    -0.079 HD
BRANCH  15  20
ATOM     17  F   UNL     1      35.888 -18.352 -22.666  0.00  0.00    -0.163 F 
ATOM     18  F   UNL     1      33.926 -18.830 -21.872  0.00  0.00    -0.163 F 
ATOM     19  F   UNL     1      34.560 -19.667 -23.777  0.00  0.00    -0.163 F 
ATOM     20  C   UNL     1      34.576 -18.510 -23.040  0.00  0.00    +0.452 C 
ENDBRANCH  15  20
ENDBRANCH   1   7
BRANCH   3  24
ATOM     21  F   UNL     1      30.800  -7.869 -24.980  0.00  0.00    -0.204 F 
ATOM     22  F   UNL     1      31.077  -5.848 -19.905  0.00  0.00    -0.202 F 
ATOM     23  F   UNL     1      30.160  -4.288 -21.953  0.00  0.00    -0.202 F 
ATOM     24  C   UNL     1      31.337  -8.169 -22.687  0.00  0.00    +0.005 C 
ATOM     25  C   UNL     1      30.871  -7.380 -23.734  0.00  0.00    +0.138 C 
ATOM     26  C   UNL     1      31.409  -7.659 -21.395  0.00  0.00    +0.030 C 
ATOM     27  C   UNL     1      31.011  -6.345 -21.146  0.00  0.00    +0.167 C 
ATOM     28  C   UNL     1      30.473  -6.067 -23.485  0.00  0.00    +0.061 C 
ATOM     29  C   UNL     1      30.543  -5.549 -22.193  0.00  0.00    +0.170 C 
ENDBRANCH   3  24
BRANCH   4  30
ATOM     30  N   UNL     1      30.042 -10.593 -21.473  0.00  0.00    +0.382 N 
ATOM     31  H   UNL     1      29.563 -11.165 -22.168  0.00  0.00    -0.089 HD
ATOM     32  H   UNL     1      29.669  -9.644 -21.499  0.00  0.00    -0.089 HD
ATOM     33  H   UNL     1      29.896 -10.991 -20.545  0.00  0.00    -0.089 HD
ENDBRANCH   4  30
TORSDOF 4
ENDMDL
MODEL 4
REMARK VINA RESULT:     -12.7      7.247     11.333
REMARK  Name = 11538992
REMARK  4 active torsions:
REMARK  status: ('A' for Active; 'I' for Inactive)
REMARK    1  A    between atoms: C_1  and  N_7
REMARK    2  A    between atoms: C_3  and  C_24
REMARK    3  A    between atoms: C_4  and  N_30
REMARK    4  A    between atoms: C_15  and  C_20
REMARK                            x       y       z     vdW  Elec       q    Type
REMARK                         _______ _______ _______ _____ _____    ______ ____
ROOT
ATOM      1  C   UNL     1      32.627 -10.896 -23.315  0.00  0.00    -0.059 C 
ATOM      2  C   UNL     1      33.710  -9.813 -23.340  0.00  0.00    -0.042 C 
ATOM      3  C   UNL     1      32.177  -8.251 -22.039  0.00  0.00    +0.005 C 
ATOM      4  C   UNL     1      33.096  -8.403 -23.278  0.00  0.00    -0.064 C 
ATOM      5  C   UNL     1      31.734 -10.753 -22.080  0.00  0.00    -0.021 C 
ATOM      6  C   UNL     1      31.108  -9.361 -22.009  0.00  0.00    +0.000 C 
ENDROOT
BRANCH   1   7
ATOM      7  N   UNL     1      33.250 -12.220 -23.324  0.00  0.00    +0.394 N 
ATOM      8  N   UNL     1      33.686 -14.968 -23.231  0.00  0.00    -0.299 N 
ATOM      9  N   UNL     1      33.275 -15.341 -25.340  0.00  0.00    -0.136 NA
ATOM     10  N   UNL     1      33.780 -16.499 -24.772  0.00  0.00    -0.125 NA
ATOM     11  C   UNL     1      33.026 -12.913 -22.041  0.00  0.00    -0.052 C 
ATOM     12  C   UNL     1      32.739 -13.022 -24.455  0.00  0.00    -0.009 C 
ATOM     13  C   UNL     1      33.815 -14.230 -21.997  0.00  0.00    +0.086 C 
ATOM     14  C   UNL     1      33.228 -14.424 -24.397  0.00  0.00    +0.122 A 
ATOM     15  C   UNL     1      34.022 -16.251 -23.502  0.00  0.00    +0.238 A 
ATOM     16  H   UNL     1      34.256 -12.102 -23.444  0.00  0.00    -0.079 HD
BRANCH  15  20
ATOM     17  F   UNL     1      35.881 -17.545 -22.733  0.00  0.00    -0.163 F 
ATOM     18  F   UNL     1      34.581 -16.694 -21.219  0.00  0.00    -0.163 F 
ATOM     19  F   UNL     1      33.892 -18.367 -22.426  0.00  0.00    -0.163 F 
ATOM     20  C   UNL     1      34.577 -17.180 -22.504  0.00  0.00    +0.452 C 
ENDBRANCH  15  20
ENDBRANCH   1   7
BRANCH   3  24
ATOM     21  F   UNL     1      31.816  -6.861 -19.591  0.00  0.00    -0.204 F 
ATOM     22  F   UNL     1      30.016  -4.399 -24.131  0.00  0.00    -0.202 F 
ATOM     23  F   UNL     1      29.733  -3.175 -21.704  0.00  0.00    -0.202 F 
ATOM     24  C   UNL     1      31.517  -6.882 -21.946  0.00  0.00    +0.005 C 
ATOM     25  C   UNL     1      31.376  -6.263 -20.707  0.00  0.00    +0.138 C 
ATOM     26  C   UNL     1      31.061  -6.258 -23.102  0.00  0.00    +0.030 C 
ATOM     27  C   UNL     1      30.457  -5.004 -23.021  0.00  0.00    +0.167 C 
ATOM     28  C   UNL     1      30.772  -5.009 -20.626  0.00  0.00    +0.061 C 
ATOM     29  C   UNL     1      30.312  -4.380 -21.782  0.00  0.00    +0.170 C 
ENDBRANCH   3  24
BRANCH   4  30
ATOM     30  N   UNL     1      34.171  -7.405 -23.254  0.00  0.00    +0.382 N 
ATOM     31  H   UNL     1      34.429  -7.161 -24.210  0.00  0.00    -0.089 HD
ATOM     32  H   UNL     1      34.982  -7.790 -22.771  0.00  0.00    -0.089 HD
ATOM     33  H   UNL     1      33.848  -6.570 -22.765  0.00  0.00    -0.089 HD
ENDBRANCH   4  30
TORSDOF 4
ENDMDL
MODEL 5
REMARK VINA RESULT:     -12.6      7.062     10.998
REMARK  Name = 11538992
REMARK  4 active torsions:
REMARK  status: ('A' for Active; 'I' for Inactive)
REMARK    1  A    between atoms: C_1  and  N_7
REMARK    2  A    between atoms: C_3  and  C_24
REMARK    3  A    between atoms: C_4  and  N_30
REMARK    4  A    between atoms: C_15  and  C_20
REMARK                            x       y       z     vdW  Elec       q    Type
REMARK                         _______ _______ _______ _____ _____    ______ ____
ROOT
ATOM      1  C   UNL     1      31.784 -11.332 -22.664  0.00  0.00    -0.059 C 
ATOM      2  C   UNL     1      32.977 -10.424 -22.980  0.00  0.00    -0.042 C 
ATOM      3  C   UNL     1      31.830  -8.498 -21.772  0.00  0.00    +0.005 C 
ATOM      4  C   UNL     1      32.551  -8.948 -23.069  0.00  0.00    -0.064 C 
ATOM      5  C   UNL     1      31.087 -10.895 -21.373  0.00  0.00    -0.021 C 
ATOM      6  C   UNL     1      30.649  -9.433 -21.448  0.00  0.00    +0.000 C 
ENDROOT
BRANCH   1   7
ATOM      7  N   UNL     1      32.235 -12.718 -22.537  0.00  0.00    +0.394 N 
ATOM      8  N   UNL     1      33.803 -15.006 -22.303  0.00  0.00    -0.299 N 
ATOM      9  N   UNL     1      34.014 -14.923 -20.134  0.00  0.00    -0.136 NA
ATOM     10  N   UNL     1      34.529 -16.127 -20.588  0.00  0.00    -0.125 NA
ATOM     11  C   UNL     1      33.071 -13.104 -23.689  0.00  0.00    -0.052 C 
ATOM     12  C   UNL     1      32.965 -12.907 -21.267  0.00  0.00    -0.009 C 
ATOM     13  C   UNL     1      33.406 -14.602 -23.632  0.00  0.00    +0.086 C 
ATOM     14  C   UNL     1      33.576 -14.260 -21.183  0.00  0.00    +0.122 A 
ATOM     15  C   UNL     1      34.390 -16.156 -21.896  0.00  0.00    +0.238 A 
ATOM     16  H   UNL     1      31.415 -13.324 -22.529  0.00  0.00    -0.079 HD
BRANCH  15  20
ATOM     17  F   UNL     1      33.997 -18.366 -22.723  0.00  0.00    -0.163 F 
ATOM     18  F   UNL     1      34.746 -16.904 -24.140  0.00  0.00    -0.163 F 
ATOM     19  F   UNL     1      36.061 -17.694 -22.598  0.00  0.00    -0.163 F 
ATOM     20  C   UNL     1      34.783 -17.242 -22.808  0.00  0.00    +0.452 C 
ENDBRANCH  15  20
ENDBRANCH   1   7
BRANCH   3  24
ATOM     21  F   UNL     1      31.736  -6.818 -19.487  0.00  0.00    -0.204 F 
ATOM     22  F   UNL     1      30.124  -4.638 -24.237  0.00  0.00    -0.202 F 
ATOM     23  F   UNL     1      30.085  -3.134 -21.956  0.00  0.00    -0.202 F 
ATOM     24  C   UNL     1      31.359  -7.051 -21.819  0.00  0.00    +0.005 C 
ATOM     25  C   UNL     1      31.342  -6.290 -20.654  0.00  0.00    +0.138 C 
ATOM     26  C   UNL     1      30.950  -6.499 -23.029  0.00  0.00    +0.030 C 
ATOM     27  C   UNL     1      30.519  -5.174 -23.076  0.00  0.00    +0.167 C 
ATOM     28  C   UNL     1      30.910  -4.965 -20.701  0.00  0.00    +0.061 C 
ATOM     29  C   UNL     1      30.498  -4.407 -21.910  0.00  0.00    +0.170 C 
ENDBRANCH   3  24
BRANCH   4  30
ATOM     30  N   UNL     1      33.732  -8.116 -23.324  0.00  0.00    +0.382 N 
ATOM     31  H   UNL     1      34.254  -7.994 -22.457  0.00  0.00    -0.089 HD
ATOM     32  H   UNL     1      33.436  -7.205 -23.673  0.00  0.00    -0.089 HD
ATOM     33  H   UNL     1      34.325  -8.570 -24.017  0.00  0.00    -0.089 HD
ENDBRANCH   4  30
TORSDOF 4
ENDMDL
MODEL 6
REMARK VINA RESULT:     -11.9      6.952     10.832
REMARK  Name = 11538992
REMARK  4 active torsions:
REMARK  status: ('A' for Active; 'I' for Inactive)
REMARK    1  A    between atoms: C_1  and  N_7
REMARK    2  A    between atoms: C_3  and  C_24
REMARK    3  A    between atoms: C_4  and  N_30
REMARK    4  A    between atoms: C_15  and  C_20
REMARK                            x       y       z     vdW  Elec       q    Type
REMARK                         _______ _______ _______ _____ _____    ______ ____
ROOT
ATOM      1  C   UNL     1      31.836 -11.460 -22.736  0.00  0.00    -0.059 C 
ATOM      2  C   UNL     1      33.039 -10.551 -23.007  0.00  0.00    -0.042 C 
ATOM      3  C   UNL     1      31.848  -8.625 -21.846  0.00  0.00    +0.005 C 
ATOM      4  C   UNL     1      32.617  -9.076 -23.114  0.00  0.00    -0.064 C 
ATOM      5  C   UNL     1      31.091 -11.021 -21.472  0.00  0.00    -0.021 C 
ATOM      6  C   UNL     1      30.655  -9.560 -21.566  0.00  0.00    +0.000 C 
ENDROOT
BRANCH   1   7
ATOM      7  N   UNL     1      32.282 -12.845 -22.590  0.00  0.00    +0.394 N 
ATOM      8  N   UNL     1      33.843 -15.136 -22.325  0.00  0.00    -0.299 N 
ATOM      9  N   UNL     1      34.054 -15.024 -20.157  0.00  0.00    -0.136 NA
ATOM     10  N   UNL     1      34.565 -16.236 -20.595  0.00  0.00    -0.125 NA
ATOM     11  C   UNL     1      33.117 -13.250 -23.737  0.00  0.00    -0.052 C 
ATOM     12  C   UNL     1      33.012 -13.020 -21.317  0.00  0.00    -0.009 C 
ATOM     13  C   UNL     1      33.447 -14.748 -23.659  0.00  0.00    +0.086 C 
ATOM     14  C   UNL     1      33.618 -14.373 -21.215  0.00  0.00    +0.122 A 
ATOM     15  C   UNL     1      34.425 -16.281 -21.902  0.00  0.00    +0.238 A 
ATOM     16  H   UNL     1      31.460 -13.449 -22.573  0.00  0.00    -0.079 HD
BRANCH  15  20
ATOM     17  F   UNL     1      34.715 -17.084 -24.138  0.00  0.00    -0.163 F 
ATOM     18  F   UNL     1      36.112 -17.807 -22.644  0.00  0.00    -0.163 F 
ATOM     19  F   UNL     1      34.054 -18.512 -22.637  0.00  0.00    -0.163 F 
ATOM     20  C   UNL     1      34.815 -17.382 -22.800  0.00  0.00    +0.452 C 
ENDBRANCH  15  20
ENDBRANCH   1   7
BRANCH   3  24
ATOM     21  F   UNL     1      30.331  -7.577 -24.004  0.00  0.00    -0.204 F 
ATOM     22  F   UNL     1      31.565  -4.134 -19.938  0.00  0.00    -0.202 F 
ATOM     23  F   UNL     1      30.110  -3.260 -22.080  0.00  0.00    -0.202 F 
ATOM     24  C   UNL     1      31.378  -7.177 -21.912  0.00  0.00    +0.005 C 
ATOM     25  C   UNL     1      30.637  -6.739 -23.005  0.00  0.00    +0.138 C 
ATOM     26  C   UNL     1      31.693  -6.305 -20.876  0.00  0.00    +0.030 C 
ATOM     27  C   UNL     1      31.265  -4.979 -20.932  0.00  0.00    +0.167 C 
ATOM     28  C   UNL     1      30.209  -5.413 -23.062  0.00  0.00    +0.061 C 
ATOM     29  C   UNL     1      30.523  -4.533 -22.027  0.00  0.00    +0.170 C 
ENDBRANCH   3  24
BRANCH   4  30
ATOM     30  N   UNL     1      33.806  -8.243 -23.324  0.00  0.00    +0.382 N 
ATOM     31  H   UNL     1      33.971  -7.673 -22.496  0.00  0.00    -0.089 HD
ATOM     32  H   UNL     1      33.658  -7.637 -24.131  0.00  0.00    -0.089 HD
ATOM     33  H   UNL     1      34.615  -8.842 -23.492  0.00  0.00    -0.089 HD
ENDBRANCH   4  30
TORSDOF 4
ENDMDL
MODEL 7
REMARK VINA RESULT:     -11.8      7.783     13.445
REMARK  Name = 11538992
REMARK  4 active torsions:
REMARK  status: ('A' for Active; 'I' for Inactive)
REMARK    1  A    between atoms: C_1  and  N_7
REMARK    2  A    between atoms: C_3  and  C_24
REMARK    3  A    between atoms: C_4  and  N_30
REMARK    4  A    between atoms: C_15  and  C_20
REMARK                            x       y       z     vdW  Elec       q    Type
REMARK                         _______ _______ _______ _____ _____    ______ ____
ROOT
ATOM      1  C   UNL     1      31.423 -10.772 -22.624  0.00  0.00    -0.059 C 
ATOM      2  C   UNL     1      31.385 -11.512 -21.284  0.00  0.00    -0.042 C 
ATOM      3  C   UNL     1      33.250 -13.051 -22.081  0.00  0.00    +0.005 C 
ATOM      4  C   UNL     1      31.842 -12.973 -21.436  0.00  0.00    -0.064 C 
ATOM      5  C   UNL     1      32.820 -10.836 -23.248  0.00  0.00    -0.021 C 
ATOM      6  C   UNL     1      33.285 -12.281 -23.416  0.00  0.00    +0.000 C 
ENDROOT
BRANCH   1   7
ATOM      7  N   UNL     1      31.032  -9.376 -22.431  0.00  0.00    +0.394 N 
ATOM      8  N   UNL     1      31.032  -6.595 -22.296  0.00  0.00    -0.299 N 
ATOM      9  N   UNL     1      30.539  -6.260 -24.394  0.00  0.00    -0.136 NA
ATOM     10  N   UNL     1      30.479  -5.049 -23.722  0.00  0.00    -0.125 NA
ATOM     11  C   UNL     1      31.872  -8.733 -21.404  0.00  0.00    -0.052 C 
ATOM     12  C   UNL     1      31.104  -8.639 -23.710  0.00  0.00    -0.009 C 
ATOM     13  C   UNL     1      31.354  -7.322 -21.090  0.00  0.00    +0.086 C 
ATOM     14  C   UNL     1      30.870  -7.184 -23.517  0.00  0.00    +0.122 A 
ATOM     15  C   UNL     1      30.778  -5.276 -22.460  0.00  0.00    +0.238 A 
ATOM     16  H   UNL     1      30.066  -9.354 -22.103  0.00  0.00    -0.079 HD
BRANCH  15  20
ATOM     17  F   UNL     1      32.025  -4.257 -20.691  0.00  0.00    -0.163 F 
ATOM     18  F   UNL     1      30.633  -2.990 -21.769  0.00  0.00    -0.163 F 
ATOM     19  F   UNL     1      29.885  -4.503 -20.397  0.00  0.00    -0.163 F 
ATOM     20  C   UNL     1      30.830  -4.289 -21.368  0.00  0.00    +0.452 C 
ENDBRANCH  15  20
ENDBRANCH   1   7
BRANCH   3  24
ATOM     21  F   UNL     1      34.278 -14.657 -19.979  0.00  0.00    -0.204 F 
ATOM     22  F   UNL     1      34.091 -16.911 -24.959  0.00  0.00    -0.202 F 
ATOM     23  F   UNL     1      35.058 -18.344 -22.843  0.00  0.00    -0.202 F 
ATOM     24  C   UNL     1      33.739 -14.479 -22.284  0.00  0.00    +0.005 C 
ATOM     25  C   UNL     1      34.230 -15.203 -21.202  0.00  0.00    +0.138 C 
ATOM     26  C   UNL     1      33.689 -15.049 -23.552  0.00  0.00    +0.030 C 
ATOM     27  C   UNL     1      34.136 -16.357 -23.741  0.00  0.00    +0.167 C 
ATOM     28  C   UNL     1      34.677 -16.511 -21.392  0.00  0.00    +0.061 C 
ATOM     29  C   UNL     1      34.630 -17.087 -22.661  0.00  0.00    +0.170 C 
ENDBRANCH   3  24
BRANCH   4  30
ATOM     30  N   UNL     1      31.836 -13.625 -20.122  0.00  0.00    +0.382 N 
ATOM     31  H   UNL     1      30.876 -13.842 -19.855  0.00  0.00    -0.089 HD
ATOM     32  H   UNL     1      32.248 -12.999 -19.430  0.00  0.00    -0.089 HD
ATOM     33  H   UNL     1      32.379 -14.487 -20.167  0.00  0.00    -0.089 HD
ENDBRANCH   4  30
TORSDOF 4
ENDMDL
MODEL 8
REMARK VINA RESULT:     -11.6      1.392      1.745
REMARK  Name = 11538992
REMARK  4 active torsions:
REMARK  status: ('A' for Active; 'I' for Inactive)
REMARK    1  A    between atoms: C_1  and  N_7
REMARK    2  A    between atoms: C_3  and  C_24
REMARK    3  A    between atoms: C_4  and  N_30
REMARK    4  A    between atoms: C_15  and  C_20
REMARK                            x       y       z     vdW  Elec       q    Type
REMARK                         _______ _______ _______ _____ _____    ______ ____
ROOT
ATOM      1  C   UNL     1      35.341 -20.554 -18.534  0.00  0.00    -0.059 C 
ATOM      2  C   UNL     1      34.021 -20.846 -19.254  0.00  0.00    -0.042 C 
ATOM      3  C   UNL     1      34.801 -19.463 -21.244  0.00  0.00    +0.005 C 
ATOM      4  C   UNL     1      33.654 -19.717 -20.233  0.00  0.00    -0.064 C 
ATOM      5  C   UNL     1      36.475 -20.322 -19.536  0.00  0.00    -0.021 C 
ATOM      6  C   UNL     1      36.130 -19.198 -20.511  0.00  0.00    +0.000 C 
ENDROOT
BRANCH   1   7
ATOM      7  N   UNL     1      35.682 -21.670 -17.651  0.00  0.00    +0.394 N 
ATOM      8  N   UNL     1      36.121 -23.272 -15.417  0.00  0.00    -0.299 N 
ATOM      9  N   UNL     1      34.067 -23.983 -15.234  0.00  0.00    -0.136 NA
ATOM     10  N   UNL     1      34.867 -24.695 -14.354  0.00  0.00    -0.125 NA
ATOM     11  C   UNL     1      36.782 -21.301 -16.741  0.00  0.00    -0.052 C 
ATOM     12  C   UNL     1      34.492 -22.108 -16.893  0.00  0.00    -0.009 C 
ATOM     13  C   UNL     1      37.243 -22.522 -15.932  0.00  0.00    +0.086 C 
ATOM     14  C   UNL     1      34.841 -23.130 -15.871  0.00  0.00    +0.122 A 
ATOM     15  C   UNL     1      36.099 -24.251 -14.483  0.00  0.00    +0.238 A 
ATOM     16  H   UNL     1      36.000 -22.450 -18.227  0.00  0.00    -0.079 HD
BRANCH  15  20
ATOM     17  F   UNL     1      38.294 -25.199 -14.569  0.00  0.00    -0.163 F 
ATOM     18  F   UNL     1      37.907 -23.754 -12.998  0.00  0.00    -0.163 F 
ATOM     19  F   UNL     1      37.032 -25.742 -12.884  0.00  0.00    -0.163 F 
ATOM     20  C   UNL     1      37.293 -24.719 -13.760  0.00  0.00    +0.452 C 
ENDBRANCH  15  20
ENDBRANCH   1   7
BRANCH   3  24
ATOM     21  F   UNL     1      33.909 -19.897 -23.904  0.00  0.00    -0.204 F 
ATOM     22  F   UNL     1      34.548 -14.702 -22.318  0.00  0.00    -0.202 F 
ATOM     23  F   UNL     1      33.694 -15.266 -24.852  0.00  0.00    -0.202 F 
ATOM     24  C   UNL     1      34.503 -18.333 -22.220  0.00  0.00    +0.005 C 
ATOM     25  C   UNL     1      34.068 -18.626 -23.509  0.00  0.00    +0.138 C 
ATOM     26  C   UNL     1      34.666 -17.013 -21.813  0.00  0.00    +0.030 C 
ATOM     27  C   UNL     1      34.393 -15.975 -22.703  0.00  0.00    +0.167 C 
ATOM     28  C   UNL     1      33.796 -17.588 -24.399  0.00  0.00    +0.061 C 
ATOM     29  C   UNL     1      33.958 -16.263 -23.997  0.00  0.00    +0.170 C 
ENDBRANCH   3  24
BRANCH   4  30
ATOM     30  N   UNL     1      32.412 -20.065 -20.933  0.00  0.00    +0.382 N 
ATOM     31  H   UNL     1      32.559 -20.909 -21.485  0.00  0.00    -0.089 HD
ATOM     32  H   UNL     1      32.143 -19.298 -21.548  0.00  0.00    -0.089 HD
ATOM     33  H   UNL     1      31.672 -20.229 -20.250  0.00  0.00    -0.089 HD
ENDBRANCH   4  30
TORSDOF 4
ENDMDL
MODEL 9
REMARK VINA RESULT:     -11.5      1.619      2.466
REMARK  Name = 11538992
REMARK  4 active torsions:
REMARK  status: ('A' for Active; 'I' for Inactive)
REMARK    1  A    between atoms: C_1  and  N_7
REMARK    2  A    between atoms: C_3  and  C_24
REMARK    3  A    between atoms: C_4  and  N_30
REMARK    4  A    between atoms: C_15  and  C_20
REMARK                            x       y       z     vdW  Elec       q    Type
REMARK                         _______ _______ _______ _____ _____    ______ ____
ROOT
ATOM      1  C   UNL     1      35.216 -20.929 -18.171  0.00  0.00    -0.059 C 
ATOM      2  C   UNL     1      33.839 -21.158 -18.803  0.00  0.00    -0.042 C 
ATOM      3  C   UNL     1      34.610 -19.963 -20.915  0.00  0.00    +0.005 C 
ATOM      4  C   UNL     1      33.504 -20.065 -19.833  0.00  0.00    -0.064 C 
ATOM      5  C   UNL     1      36.306 -20.848 -19.243  0.00  0.00    -0.021 C 
ATOM      6  C   UNL     1      35.994 -19.760 -20.269  0.00  0.00    +0.000 C 
ENDROOT
BRANCH   1   7
ATOM      7  N   UNL     1      35.520 -22.013 -17.238  0.00  0.00    +0.394 N 
ATOM      8  N   UNL     1      35.955 -23.509 -14.930  0.00  0.00    -0.299 N 
ATOM      9  N   UNL     1      33.867 -24.053 -14.608  0.00  0.00    -0.136 NA
ATOM     10  N   UNL     1      34.658 -24.769 -13.724  0.00  0.00    -0.125 NA
ATOM     11  C   UNL     1      36.688 -21.675 -16.405  0.00  0.00    -0.052 C 
ATOM     12  C   UNL     1      34.341 -22.316 -16.399  0.00  0.00    -0.009 C 
ATOM     13  C   UNL     1      37.100 -22.878 -15.543  0.00  0.00    +0.086 C 
ATOM     14  C   UNL     1      34.667 -23.299 -15.333  0.00  0.00    +0.122 A 
ATOM     15  C   UNL     1      35.910 -24.428 -13.937  0.00  0.00    +0.238 A 
ATOM     16  H   UNL     1      35.752 -22.848 -17.778  0.00  0.00    -0.079 HD
BRANCH  15  20
ATOM     17  F   UNL     1      38.019 -25.552 -14.064  0.00  0.00    -0.163 F 
ATOM     18  F   UNL     1      37.829 -23.979 -12.581  0.00  0.00    -0.163 F 
ATOM     19  F   UNL     1      36.813 -25.879 -12.284  0.00  0.00    -0.163 F 
ATOM     20  C   UNL     1      37.103 -24.940 -13.242  0.00  0.00    +0.452 C 
ENDBRANCH  15  20
ENDBRANCH   1   7
BRANCH   3  24
ATOM     21  F   UNL     1      35.386 -17.258 -20.552  0.00  0.00    -0.204 F 
ATOM     22  F   UNL     1      32.817 -18.497 -25.219  0.00  0.00    -0.202 F 
ATOM     23  F   UNL     1      33.621 -15.930 -24.738  0.00  0.00    -0.202 F 
ATOM     24  C   UNL     1      34.344 -18.873 -21.945  0.00  0.00    +0.005 C 
ATOM     25  C   UNL     1      34.755 -17.568 -21.694  0.00  0.00    +0.138 C 
ATOM     26  C   UNL     1      33.690 -19.192 -23.130  0.00  0.00    +0.030 C 
ATOM     27  C   UNL     1      33.445 -18.197 -24.076  0.00  0.00    +0.167 C 
ATOM     28  C   UNL     1      34.510 -16.572 -22.639  0.00  0.00    +0.061 C 
ATOM     29  C   UNL     1      33.855 -16.886 -23.829  0.00  0.00    +0.170 C 
ENDBRANCH   3  24
BRANCH   4  30
ATOM     30  N   UNL     1      32.203 -20.354 -20.444  0.00  0.00    +0.382 N 
ATOM     31  H   UNL     1      31.462 -19.952 -19.871  0.00  0.00    -0.089 HD
ATOM     32  H   UNL     1      32.074 -21.363 -20.507  0.00  0.00    -0.089 HD
ATOM     33  H   UNL     1      32.169 -19.947 -21.379  0.00  0.00    -0.089 HD
ENDBRANCH   4  30
TORSDOF 4
ENDMDL
