MODEL 1
REMARK VINA RESULT:     -13.6      0.000      0.000
REMARK  Name = 15985904
REMARK  7 active torsions:
REMARK  status: ('A' for Active; 'I' for Inactive)
REMARK    1  A    between atoms: N_1  and  S_6
REMARK    2  A    between atoms: C_4  and  C_21
REMARK    3  A    between atoms: S_6  and  C_9
REMARK    4  A    between atoms: C_10  and  C_17
REMARK    5  A    between atoms: C_22  and  C_25
REMARK    6  A    between atoms: N_24  and  C_27
REMARK    7  A    between atoms: C_28  and  N_33
REMARK                            x       y       z     vdW  Elec       q    Type
REMARK                         _______ _______ _______ _____ _____    ______ ____
ROOT
ATOM      1  N   UNL     1      34.727 -19.397 -21.024  0.00  0.00    -0.167 N 
ATOM      2  C   UNL     1      35.318 -20.130 -20.081  0.00  0.00    +0.089 C 
ATOM      3  C   UNL     1      33.395 -19.464 -21.016  0.00  0.00    +0.089 C 
ATOM      4  C   UNL     1      34.293 -20.734 -19.387  0.00  0.00    +0.018 C 
ATOM      5  C   UNL     1      33.076 -20.313 -19.979  0.00  0.00    +0.019 C 
ENDROOT
BRANCH   1   6
ATOM      6  S   UNL     1      35.610 -18.441 -22.162  0.00  0.00    +0.080 S 
ATOM      7  O   UNL     1      35.371 -19.130 -23.418  0.00  0.00    -0.149 OA
ATOM      8  O   UNL     1      36.939 -18.285 -21.601  0.00  0.00    -0.149 OA
BRANCH   6   9
ATOM      9  C   UNL     1      34.832 -16.878 -22.167  0.00  0.00    +0.126 C 
ATOM     10  C   UNL     1      33.588 -14.382 -22.175  0.00  0.00    +0.003 C 
ATOM     11  C   UNL     1      34.533 -16.244 -20.961  0.00  0.00    +0.020 C 
ATOM     12  C   UNL     1      34.509 -16.264 -23.377  0.00  0.00    +0.020 C 
ATOM     13  C   UNL     1      33.911 -14.996 -20.965  0.00  0.00    +0.001 C 
ATOM     14  C   UNL     1      33.886 -15.016 -23.381  0.00  0.00    +0.001 C 
BRANCH  10  17
ATOM     15  N   UNL     1      31.691 -11.419 -21.585  0.00  0.00    -0.208 N 
ATOM     16  N   UNL     1      32.271 -10.989 -22.718  0.00  0.00    -0.176 NA
ATOM     17  C   UNL     1      32.947 -13.097 -22.179  0.00  0.00    +0.037 C 
ATOM     18  C   UNL     1      32.063 -12.678 -21.218  0.00  0.00    +0.086 C 
ATOM     19  C   UNL     1      33.039 -12.021 -23.076  0.00  0.00    +0.119 C 
ATOM     20  C   UNL     1      30.768 -10.559 -20.882  0.00  0.00    +0.140 C 
ENDBRANCH  10  17
ENDBRANCH   6   9
ENDBRANCH   1   6
BRANCH   4  21
ATOM     21  C   UNL     1      34.460 -21.607 -18.292  0.00  0.00    +0.006 C 
ATOM     22  C   UNL     1      35.354 -21.516 -17.266  0.00  0.00    +0.058 C 
BRANCH  22  25
ATOM     23  O   UNL     1      34.582 -23.455 -16.125  0.00  0.00    -0.270 OA
ATOM     24  N   UNL     1      36.439 -22.283 -15.293  0.00  0.00    -0.279 N 
ATOM     25  C   UNL     1      35.396 -22.539 -16.173  0.00  0.00    +0.250 C 
ATOM     26  H   UNL     1      36.995 -21.495 -15.492  0.00  0.00    +0.155 HD
BRANCH  24  27
ATOM     27  C   UNL     1      36.793 -23.028 -14.142  0.00  0.00    +0.064 C 
ATOM     28  C   UNL     1      37.883 -23.884 -14.169  0.00  0.00    +0.055 C 
ATOM     29  C   UNL     1      36.026 -22.875 -12.998  0.00  0.00    +0.016 C 
ATOM     30  C   UNL     1      38.212 -24.607 -13.023  0.00  0.00    +0.015 C 
ATOM     31  C   UNL     1      36.355 -23.598 -11.852  0.00  0.00    +0.001 C 
ATOM     32  C   UNL     1      37.448 -24.465 -11.865  0.00  0.00    +0.001 C 
BRANCH  28  33
ATOM     33  N   UNL     1      38.671 -24.044 -15.330  0.00  0.00    -0.356 N 
ATOM     34  H   UNL     1      38.304 -23.799 -16.211  0.00  0.00    +0.142 HD
ATOM     35  H   UNL     1      39.586 -24.398 -15.260  0.00  0.00    +0.142 HD
ENDBRANCH  28  33
ENDBRANCH  24  27
ENDBRANCH  22  25
ENDBRANCH   4  21
TORSDOF 7
ENDMDL
MODEL 2
REMARK VINA RESULT:     -12.8      3.281      3.867
REMARK  Name = 15985904
REMARK  7 active torsions:
REMARK  status: ('A' for Active; 'I' for Inactive)
REMARK    1  A    between atoms: N_1  and  S_6
REMARK    2  A    between atoms: C_4  and  C_21
REMARK    3  A    between atoms: S_6  and  C_9
REMARK    4  A    between atoms: C_10  and  C_17
REMARK    5  A    between atoms: C_22  and  C_25
REMARK    6  A    between atoms: N_24  and  C_27
REMARK    7  A    between atoms: C_28  and  N_33
REMARK                            x       y       z     vdW  Elec       q    Type
REMARK                         _______ _______ _______ _____ _____    ______ ____
ROOT
ATOM      1  N   UNL     1      34.408 -19.137 -21.060  0.00  0.00    -0.167 N 
ATOM      2  C   UNL     1      34.617 -19.888 -19.979  0.00  0.00    +0.089 C 
ATOM      3  C   UNL     1      33.187 -19.257 -21.583  0.00  0.00    +0.089 C 
ATOM      4  C   UNL     1      33.435 -20.563 -19.765  0.00  0.00    +0.018 C 
ATOM      5  C   UNL     1      32.530 -20.163 -20.780  0.00  0.00    +0.019 C 
ENDROOT
BRANCH   1   6
ATOM      6  S   UNL     1      35.616 -18.097 -21.729  0.00  0.00    +0.080 S 
ATOM      7  O   UNL     1      35.877 -18.696 -23.026  0.00  0.00    -0.149 OA
ATOM      8  O   UNL     1      36.641 -17.973 -20.709  0.00  0.00    -0.149 OA
BRANCH   6   9
ATOM      9  C   UNL     1      34.845 -16.543 -21.920  0.00  0.00    +0.126 C 
ATOM     10  C   UNL     1      33.614 -14.058 -22.225  0.00  0.00    +0.003 C 
ATOM     11  C   UNL     1      34.709 -15.983 -23.190  0.00  0.00    +0.020 C 
ATOM     12  C   UNL     1      34.364 -15.860 -20.802  0.00  0.00    +0.020 C 
ATOM     13  C   UNL     1      34.094 -14.741 -23.343  0.00  0.00    +0.001 C 
ATOM     14  C   UNL     1      33.749 -14.618 -20.955  0.00  0.00    +0.001 C 
BRANCH  10  17
ATOM     15  N   UNL     1      31.632 -11.095 -22.075  0.00  0.00    -0.208 N 
ATOM     16  N   UNL     1      32.407 -10.693 -23.097  0.00  0.00    -0.176 NA
ATOM     17  C   UNL     1      32.980 -12.779 -22.383  0.00  0.00    +0.037 C 
ATOM     18  C   UNL     1      31.936 -12.341 -21.609  0.00  0.00    +0.086 C 
ATOM     19  C   UNL     1      33.229 -11.729 -23.280  0.00  0.00    +0.119 C 
ATOM     20  C   UNL     1      30.596 -10.224 -21.575  0.00  0.00    +0.140 C 
ENDBRANCH  10  17
ENDBRANCH   6   9
ENDBRANCH   1   6
BRANCH   4  21
ATOM     21  C   UNL     1      33.202 -21.477 -18.716  0.00  0.00    +0.006 C 
ATOM     22  C   UNL     1      32.073 -21.639 -17.970  0.00  0.00    +0.058 C 
BRANCH  22  25
ATOM     23  O   UNL     1      32.922 -23.438 -16.667  0.00  0.00    -0.270 OA
ATOM     24  N   UNL     1      30.775 -22.599 -16.223  0.00  0.00    -0.279 N 
ATOM     25  C   UNL     1      31.993 -22.668 -16.885  0.00  0.00    +0.250 C 
ATOM     26  H   UNL     1      30.144 -21.910 -16.539  0.00  0.00    +0.155 HD
BRANCH  24  27
ATOM     27  C   UNL     1      30.335 -23.406 -15.146  0.00  0.00    +0.064 C 
ATOM     28  C   UNL     1      30.906 -23.270 -13.890  0.00  0.00    +0.055 C 
ATOM     29  C   UNL     1      29.327 -24.327 -15.383  0.00  0.00    +0.016 C 
ATOM     30  C   UNL     1      30.457 -24.077 -12.845  0.00  0.00    +0.015 C 
ATOM     31  C   UNL     1      28.878 -25.134 -14.338  0.00  0.00    +0.001 C 
ATOM     32  C   UNL     1      29.444 -25.009 -13.069  0.00  0.00    +0.001 C 
BRANCH  28  33
ATOM     33  N   UNL     1      31.933 -22.333 -13.640  0.00  0.00    -0.356 N 
ATOM     34  H   UNL     1      32.667 -22.561 -13.025  0.00  0.00    +0.142 HD
ATOM     35  H   UNL     1      31.914 -21.453 -14.081  0.00  0.00    +0.142 HD
ENDBRANCH  28  33
ENDBRANCH  24  27
ENDBRANCH  22  25
ENDBRANCH   4  21
TORSDOF 7
ENDMDL
MODEL 3
REMARK VINA RESULT:     -12.5      2.704     12.114
REMARK  Name = 15985904
REMARK  7 active torsions:
REMARK  status: ('A' for Active; 'I' for Inactive)
REMARK    1  A    between atoms: N_1  and  S_6
REMARK    2  A    between atoms: C_4  and  C_21
REMARK    3  A    between atoms: S_6  and  C_9
REMARK    4  A    between atoms: C_10  and  C_17
REMARK    5  A    between atoms: C_22  and  C_25
REMARK    6  A    between atoms: N_24  and  C_27
REMARK    7  A    between atoms: C_28  and  N_33
REMARK                            x       y       z     vdW  Elec       q    Type
REMARK                         _______ _______ _______ _____ _____    ______ ____
ROOT
ATOM      1  N   UNL     1      34.715 -17.031 -22.037  0.00  0.00    -0.167 N 
ATOM      2  C   UNL     1      34.517 -16.111 -22.981  0.00  0.00    +0.089 C 
ATOM      3  C   UNL     1      34.508 -16.594 -20.794  0.00  0.00    +0.089 C 
ATOM      4  C   UNL     1      34.145 -14.968 -22.309  0.00  0.00    +0.018 C 
ATOM      5  C   UNL     1      34.140 -15.273 -20.925  0.00  0.00    +0.019 C 
ENDROOT
BRANCH   1   6
ATOM      6  S   UNL     1      35.201 -18.651 -22.392  0.00  0.00    +0.080 S 
ATOM      7  O   UNL     1      36.650 -18.561 -22.400  0.00  0.00    -0.149 OA
ATOM      8  O   UNL     1      34.439 -19.046 -23.562  0.00  0.00    -0.149 OA
BRANCH   6   9
ATOM      9  C   UNL     1      34.659 -19.612 -21.038  0.00  0.00    +0.126 C 
ATOM     10  C   UNL     1      33.794 -21.144 -18.874  0.00  0.00    +0.003 C 
ATOM     11  C   UNL     1      33.295 -19.774 -20.800  0.00  0.00    +0.020 C 
ATOM     12  C   UNL     1      35.591 -20.216 -20.194  0.00  0.00    +0.020 C 
ATOM     13  C   UNL     1      32.862 -20.540 -19.718  0.00  0.00    +0.001 C 
ATOM     14  C   UNL     1      35.158 -20.982 -19.112  0.00  0.00    +0.001 C 
BRANCH  10  17
ATOM     15  N   UNL     1      33.372 -23.101 -15.921  0.00  0.00    -0.208 N 
ATOM     16  N   UNL     1      32.076 -23.102 -16.275  0.00  0.00    -0.176 NA
ATOM     17  C   UNL     1      33.348 -21.933 -17.760  0.00  0.00    +0.037 C 
ATOM     18  C   UNL     1      34.178 -22.412 -16.779  0.00  0.00    +0.086 C 
ATOM     19  C   UNL     1      32.069 -22.385 -17.401  0.00  0.00    +0.119 C 
ATOM     20  C   UNL     1      33.789 -23.791 -14.723  0.00  0.00    +0.140 C 
ENDBRANCH  10  17
ENDBRANCH   6   9
ENDBRANCH   1   6
BRANCH   4  21
ATOM     21  C   UNL     1      33.834 -13.735 -22.919  0.00  0.00    +0.006 C 
ATOM     22  C   UNL     1      32.883 -12.828 -22.556  0.00  0.00    +0.058 C 
BRANCH  22  25
ATOM     23  O   UNL     1      32.822 -11.515 -24.538  0.00  0.00    -0.270 OA
ATOM     24  N   UNL     1      32.340 -10.513 -22.471  0.00  0.00    -0.279 N 
ATOM     25  C   UNL     1      32.683 -11.556 -23.321  0.00  0.00    +0.250 C 
ATOM     26  H   UNL     1      32.274 -10.734 -21.513  0.00  0.00    +0.155 HD
BRANCH  24  27
ATOM     27  C   UNL     1      32.073  -9.168 -22.825  0.00  0.00    +0.064 C 
ATOM     28  C   UNL     1      33.082  -8.364 -23.332  0.00  0.00    +0.055 C 
ATOM     29  C   UNL     1      30.786  -8.685 -22.652  0.00  0.00    +0.016 C 
ATOM     30  C   UNL     1      32.796  -7.043 -23.674  0.00  0.00    +0.015 C 
ATOM     31  C   UNL     1      30.500  -7.363 -22.993  0.00  0.00    +0.001 C 
ATOM     32  C   UNL     1      31.505  -6.542 -23.504  0.00  0.00    +0.001 C 
BRANCH  28  33
ATOM     33  N   UNL     1      34.396  -8.850 -23.514  0.00  0.00    -0.356 N 
ATOM     34  H   UNL     1      34.540  -9.753 -23.879  0.00  0.00    +0.142 HD
ATOM     35  H   UNL     1      35.167  -8.286 -23.277  0.00  0.00    +0.142 HD
ENDBRANCH  28  33
ENDBRANCH  24  27
ENDBRANCH  22  25
ENDBRANCH   4  21
TORSDOF 7
ENDMDL
MODEL 4
REMARK VINA RESULT:     -12.4      2.313     11.430
REMARK  Name = 15985904
REMARK  7 active torsions:
REMARK  status: ('A' for Active; 'I' for Inactive)
REMARK    1  A    between atoms: N_1  and  S_6
REMARK    2  A    between atoms: C_4  and  C_21
REMARK    3  A    between atoms: S_6  and  C_9
REMARK    4  A    between atoms: C_10  and  C_17
REMARK    5  A    between atoms: C_22  and  C_25
REMARK    6  A    between atoms: N_24  and  C_27
REMARK    7  A    between atoms: C_28  and  N_33
REMARK                            x       y       z     vdW  Elec       q    Type
REMARK                         _______ _______ _______ _____ _____    ______ ____
ROOT
ATOM      1  N   UNL     1      33.988 -21.100 -19.517  0.00  0.00    -0.167 N 
ATOM      2  C   UNL     1      33.364 -20.089 -20.121  0.00  0.00    +0.089 C 
ATOM      3  C   UNL     1      35.318 -21.041 -19.583  0.00  0.00    +0.089 C 
ATOM      4  C   UNL     1      34.364 -19.291 -20.631  0.00  0.00    +0.018 C 
ATOM      5  C   UNL     1      35.601 -19.894 -20.291  0.00  0.00    +0.019 C 
ENDROOT
BRANCH   1   6
ATOM      6  S   UNL     1      33.144 -22.379 -18.716  0.00  0.00    +0.080 S 
ATOM      7  O   UNL     1      33.463 -23.537 -19.531  0.00  0.00    -0.149 OA
ATOM      8  O   UNL     1      31.784 -21.905 -18.536  0.00  0.00    -0.149 OA
BRANCH   6   9
ATOM      9  C   UNL     1      33.887 -22.518 -17.142  0.00  0.00    +0.126 C 
ATOM     10  C   UNL     1      35.074 -22.743 -14.628  0.00  0.00    +0.003 C 
ATOM     11  C   UNL     1      35.167 -22.009 -16.928  0.00  0.00    +0.020 C 
ATOM     12  C   UNL     1      33.200 -23.140 -16.099  0.00  0.00    +0.020 C 
ATOM     13  C   UNL     1      35.761 -22.121 -15.671  0.00  0.00    +0.001 C 
ATOM     14  C   UNL     1      33.794 -23.252 -14.842  0.00  0.00    +0.001 C 
BRANCH  10  17
ATOM     15  N   UNL     1      35.953 -23.258 -11.209  0.00  0.00    -0.208 N 
ATOM     16  N   UNL     1      37.165 -22.828 -11.600  0.00  0.00    -0.176 NA
ATOM     17  C   UNL     1      35.686 -22.858 -13.334  0.00  0.00    +0.037 C 
ATOM     18  C   UNL     1      35.030 -23.295 -12.212  0.00  0.00    +0.086 C 
ATOM     19  C   UNL     1      36.993 -22.586 -12.902  0.00  0.00    +0.119 C 
ATOM     20  C   UNL     1      35.735 -23.628  -9.831  0.00  0.00    +0.140 C 
ENDBRANCH  10  17
ENDBRANCH   6   9
ENDBRANCH   1   6
BRANCH   4  21
ATOM     21  C   UNL     1      34.160 -18.098 -21.355  0.00  0.00    +0.006 C 
ATOM     22  C   UNL     1      34.912 -16.961 -21.343  0.00  0.00    +0.058 C 
BRANCH  22  25
ATOM     23  O   UNL     1      34.894 -15.695 -23.355  0.00  0.00    -0.270 OA
ATOM     24  N   UNL     1      33.813 -14.854 -21.448  0.00  0.00    -0.279 N 
ATOM     25  C   UNL     1      34.550 -15.775 -22.181  0.00  0.00    +0.250 C 
ATOM     26  H   UNL     1      33.630 -15.090 -20.509  0.00  0.00    +0.155 HD
BRANCH  24  27
ATOM     27  C   UNL     1      33.295 -13.615 -21.898  0.00  0.00    +0.064 C 
ATOM     28  C   UNL     1      32.279 -12.985 -21.198  0.00  0.00    +0.055 C 
ATOM     29  C   UNL     1      33.832 -13.057 -23.047  0.00  0.00    +0.016 C 
ATOM     30  C   UNL     1      31.785 -11.766 -21.661  0.00  0.00    +0.015 C 
ATOM     31  C   UNL     1      33.338 -11.837 -23.510  0.00  0.00    +0.001 C 
ATOM     32  C   UNL     1      32.314 -11.192 -22.817  0.00  0.00    +0.001 C 
BRANCH  28  33
ATOM     33  N   UNL     1      31.728 -13.547 -20.025  0.00  0.00    -0.356 N 
ATOM     34  H   UNL     1      32.267 -13.593 -19.202  0.00  0.00    +0.142 HD
ATOM     35  H   UNL     1      30.807 -13.892 -20.029  0.00  0.00    +0.142 HD
ENDBRANCH  28  33
ENDBRANCH  24  27
ENDBRANCH  22  25
ENDBRANCH   4  21
TORSDOF 7
ENDMDL
MODEL 5
REMARK VINA RESULT:     -12.0      4.264     10.156
REMARK  Name = 15985904
REMARK  7 active torsions:
REMARK  status: ('A' for Active; 'I' for Inactive)
REMARK    1  A    between atoms: N_1  and  S_6
REMARK    2  A    between atoms: C_4  and  C_21
REMARK    3  A    between atoms: S_6  and  C_9
REMARK    4  A    between atoms: C_10  and  C_17
REMARK    5  A    between atoms: C_22  and  C_25
REMARK    6  A    between atoms: N_24  and  C_27
REMARK    7  A    between atoms: C_28  and  N_33
REMARK                            x       y       z     vdW  Elec       q    Type
REMARK                         _______ _______ _______ _____ _____    ______ ____
ROOT
ATOM      1  N   UNL     1      35.881 -22.964 -15.482  0.00  0.00    -0.167 N 
ATOM      2  C   UNL     1      35.413 -22.252 -16.506  0.00  0.00    +0.089 C 
ATOM      3  C   UNL     1      37.157 -22.719 -15.181  0.00  0.00    +0.089 C 
ATOM      4  C   UNL     1      36.466 -21.466 -16.920  0.00  0.00    +0.018 C 
ATOM      5  C   UNL     1      37.570 -21.762 -16.081  0.00  0.00    +0.019 C 
ENDROOT
BRANCH   1   6
ATOM      6  S   UNL     1      34.918 -24.110 -14.617  0.00  0.00    +0.080 S 
ATOM      7  O   UNL     1      35.313 -23.889 -13.237  0.00  0.00    -0.149 OA
ATOM      8  O   UNL     1      35.114 -25.381 -15.289  0.00  0.00    -0.149 OA
BRANCH   6   9
ATOM      9  C   UNL     1      33.263 -23.612 -14.863  0.00  0.00    +0.126 C 
ATOM     10  C   UNL     1      30.618 -22.815 -15.256  0.00  0.00    +0.003 C 
ATOM     11  C   UNL     1      32.847 -23.167 -16.118  0.00  0.00    +0.020 C 
ATOM     12  C   UNL     1      32.355 -23.659 -13.805  0.00  0.00    +0.020 C 
ATOM     13  C   UNL     1      31.526 -22.768 -16.314  0.00  0.00    +0.001 C 
ATOM     14  C   UNL     1      31.033 -23.260 -14.001  0.00  0.00    +0.001 C 
BRANCH  10  17
ATOM     15  N   UNL     1      27.351 -21.996 -16.431  0.00  0.00    -0.208 N 
ATOM     16  N   UNL     1      27.139 -21.619 -15.158  0.00  0.00    -0.176 NA
ATOM     17  C   UNL     1      29.257 -22.404 -15.458  0.00  0.00    +0.037 C 
ATOM     18  C   UNL     1      28.607 -22.475 -16.663  0.00  0.00    +0.086 C 
ATOM     19  C   UNL     1      28.311 -21.873 -14.569  0.00  0.00    +0.119 C 
ATOM     20  C   UNL     1      26.289 -21.872 -17.401  0.00  0.00    +0.140 C 
ENDBRANCH  10  17
ENDBRANCH   6   9
ENDBRANCH   1   6
BRANCH   4  21
ATOM     21  C   UNL     1      36.420 -20.545 -17.987  0.00  0.00    +0.006 C 
ATOM     22  C   UNL     1      35.764 -20.662 -19.177  0.00  0.00    +0.058 C 
BRANCH  22  25
ATOM     23  O   UNL     1      36.772 -18.810 -20.277  0.00  0.00    -0.270 OA
ATOM     24  N   UNL     1      34.688 -19.600 -21.014  0.00  0.00    -0.279 N 
ATOM     25  C   UNL     1      35.820 -19.579 -20.210  0.00  0.00    +0.250 C 
ATOM     26  H   UNL     1      34.021 -20.296 -20.811  0.00  0.00    +0.155 HD
BRANCH  24  27
ATOM     27  C   UNL     1      34.385 -18.734 -22.093  0.00  0.00    +0.064 C 
ATOM     28  C   UNL     1      34.446 -17.359 -21.926  0.00  0.00    +0.055 C 
ATOM     29  C   UNL     1      34.029 -19.297 -23.308  0.00  0.00    +0.016 C 
ATOM     30  C   UNL     1      34.142 -16.527 -23.003  0.00  0.00    +0.015 C 
ATOM     31  C   UNL     1      33.725 -18.465 -24.385  0.00  0.00    +0.001 C 
ATOM     32  C   UNL     1      33.782 -17.079 -24.232  0.00  0.00    +0.001 C 
BRANCH  28  33
ATOM     33  N   UNL     1      34.810 -16.778 -20.692  0.00  0.00    -0.356 N 
ATOM     34  H   UNL     1      35.653 -16.274 -20.615  0.00  0.00    +0.142 HD
ATOM     35  H   UNL     1      34.222 -16.875 -19.909  0.00  0.00    +0.142 HD
ENDBRANCH  28  33
ENDBRANCH  24  27
ENDBRANCH  22  25
ENDBRANCH   4  21
TORSDOF 7
ENDMDL
MODEL 6
REMARK VINA RESULT:     -11.9      4.060     12.782
REMARK  Name = 15985904
REMARK  7 active torsions:
REMARK  status: ('A' for Active; 'I' for Inactive)
REMARK    1  A    between atoms: N_1  and  S_6
REMARK    2  A    between atoms: C_4  and  C_21
REMARK    3  A    between atoms: S_6  and  C_9
REMARK    4  A    between atoms: C_10  and  C_17
REMARK    5  A    between atoms: C_22  and  C_25
REMARK    6  A    between atoms: N_24  and  C_27
REMARK    7  A    between atoms: C_28  and  N_33
REMARK                            x       y       z     vdW  Elec       q    Type
REMARK                         _______ _______ _______ _____ _____    ______ ____
ROOT
ATOM      1  N   UNL     1      33.654 -14.429 -23.490  0.00  0.00    -0.167 N 
ATOM      2  C   UNL     1      33.277 -13.292 -24.075  0.00  0.00    +0.089 C 
ATOM      3  C   UNL     1      33.825 -14.336 -22.171  0.00  0.00    +0.089 C 
ATOM      4  C   UNL     1      33.189 -12.366 -23.058  0.00  0.00    +0.018 C 
ATOM      5  C   UNL     1      33.536 -13.027 -21.854  0.00  0.00    +0.019 C 
ENDROOT
BRANCH   1   6
ATOM      6  S   UNL     1      33.902 -15.898 -24.367  0.00  0.00    +0.080 S 
ATOM      7  O   UNL     1      35.147 -15.648 -25.071  0.00  0.00    -0.149 OA
ATOM      8  O   UNL     1      32.655 -16.161 -25.060  0.00  0.00    -0.149 OA
BRANCH   6   9
ATOM      9  C   UNL     1      34.126 -17.135 -23.156  0.00  0.00    +0.126 C 
ATOM     10  C   UNL     1      34.483 -19.112 -21.220  0.00  0.00    +0.003 C 
ATOM     11  C   UNL     1      33.496 -18.371 -23.297  0.00  0.00    +0.020 C 
ATOM     12  C   UNL     1      34.935 -16.888 -22.046  0.00  0.00    +0.020 C 
ATOM     13  C   UNL     1      33.674 -19.359 -22.329  0.00  0.00    +0.001 C 
ATOM     14  C   UNL     1      35.113 -17.876 -21.079  0.00  0.00    +0.001 C 
BRANCH  10  17
ATOM     15  N   UNL     1      34.228 -21.670 -18.747  0.00  0.00    -0.208 N 
ATOM     16  N   UNL     1      35.571 -21.611 -18.747  0.00  0.00    -0.176 NA
ATOM     17  C   UNL     1      34.666 -20.130 -20.223  0.00  0.00    +0.037 C 
ATOM     18  C   UNL     1      33.637 -20.801 -19.616  0.00  0.00    +0.086 C 
ATOM     19  C   UNL     1      35.831 -20.666 -19.654  0.00  0.00    +0.119 C 
ATOM     20  C   UNL     1      33.552 -22.601 -17.874  0.00  0.00    +0.140 C 
ENDBRANCH  10  17
ENDBRANCH   6   9
ENDBRANCH   1   6
BRANCH   4  21
ATOM     21  C   UNL     1      32.817 -11.016 -23.222  0.00  0.00    +0.006 C 
ATOM     22  C   UNL     1      31.830 -10.326 -22.582  0.00  0.00    +0.058 C 
BRANCH  22  25
ATOM     23  O   UNL     1      31.497  -8.470 -24.031  0.00  0.00    -0.270 OA
ATOM     24  N   UNL     1      31.428  -8.151 -21.706  0.00  0.00    -0.279 N 
ATOM     25  C   UNL     1      31.567  -8.882 -22.878  0.00  0.00    +0.250 C 
ATOM     26  H   UNL     1      31.516  -8.655 -20.864  0.00  0.00    +0.155 HD
BRANCH  24  27
ATOM     27  C   UNL     1      31.174  -6.763 -21.584  0.00  0.00    +0.064 C 
ATOM     28  C   UNL     1      31.788  -6.024 -20.585  0.00  0.00    +0.055 C 
ATOM     29  C   UNL     1      30.302  -6.173 -22.485  0.00  0.00    +0.016 C 
ATOM     30  C   UNL     1      31.521  -4.659 -20.485  0.00  0.00    +0.015 C 
ATOM     31  C   UNL     1      30.036  -4.808 -22.384  0.00  0.00    +0.001 C 
ATOM     32  C   UNL     1      30.645  -4.050 -21.384  0.00  0.00    +0.001 C 
BRANCH  28  33
ATOM     33  N   UNL     1      32.679  -6.618 -19.665  0.00  0.00    -0.356 N 
ATOM     34  H   UNL     1      32.623  -7.583 -19.479  0.00  0.00    +0.142 HD
ATOM     35  H   UNL     1      33.357  -6.068 -19.210  0.00  0.00    +0.142 HD
ENDBRANCH  28  33
ENDBRANCH  24  27
ENDBRANCH  22  25
ENDBRANCH   4  21
TORSDOF 7
ENDMDL
MODEL 7
REMARK VINA RESULT:     -11.8      4.140     13.090
REMARK  Name = 15985904
REMARK  7 active torsions:
REMARK  status: ('A' for Active; 'I' for Inactive)
REMARK    1  A    between atoms: N_1  and  S_6
REMARK    2  A    between atoms: C_4  and  C_21
REMARK    3  A    between atoms: S_6  and  C_9
REMARK    4  A    between atoms: C_10  and  C_17
REMARK    5  A    between atoms: C_22  and  C_25
REMARK    6  A    between atoms: N_24  and  C_27
REMARK    7  A    between atoms: C_28  and  N_33
REMARK                            x       y       z     vdW  Elec       q    Type
REMARK                         _______ _______ _______ _____ _____    ______ ____
ROOT
ATOM      1  N   UNL     1      33.572 -14.310 -23.565  0.00  0.00    -0.167 N 
ATOM      2  C   UNL     1      33.132 -13.195 -24.148  0.00  0.00    +0.089 C 
ATOM      3  C   UNL     1      33.764 -14.203 -22.251  0.00  0.00    +0.089 C 
ATOM      4  C   UNL     1      33.022 -12.269 -23.133  0.00  0.00    +0.018 C 
ATOM      5  C   UNL     1      33.422 -12.908 -21.933  0.00  0.00    +0.019 C 
ENDROOT
BRANCH   1   6
ATOM      6  S   UNL     1      33.869 -15.771 -24.441  0.00  0.00    +0.080 S 
ATOM      7  O   UNL     1      35.124 -15.493 -25.117  0.00  0.00    -0.149 OA
ATOM      8  O   UNL     1      32.643 -16.058 -25.162  0.00  0.00    -0.149 OA
BRANCH   6   9
ATOM      9  C   UNL     1      34.092 -17.008 -23.229  0.00  0.00    +0.126 C 
ATOM     10  C   UNL     1      34.450 -18.985 -21.294  0.00  0.00    +0.003 C 
ATOM     11  C   UNL     1      34.814 -16.726 -22.070  0.00  0.00    +0.020 C 
ATOM     12  C   UNL     1      33.549 -18.279 -23.421  0.00  0.00    +0.020 C 
ATOM     13  C   UNL     1      34.993 -17.714 -21.102  0.00  0.00    +0.001 C 
ATOM     14  C   UNL     1      33.729 -19.267 -22.453  0.00  0.00    +0.001 C 
BRANCH  10  17
ATOM     15  N   UNL     1      34.198 -21.531 -18.808  0.00  0.00    -0.208 N 
ATOM     16  N   UNL     1      35.541 -21.494 -18.833  0.00  0.00    -0.176 NA
ATOM     17  C   UNL     1      34.635 -20.002 -20.297  0.00  0.00    +0.037 C 
ATOM     18  C   UNL     1      33.605 -20.655 -19.669  0.00  0.00    +0.086 C 
ATOM     19  C   UNL     1      35.801 -20.556 -19.747  0.00  0.00    +0.119 C 
ATOM     20  C   UNL     1      33.523 -22.447 -17.919  0.00  0.00    +0.140 C 
ENDBRANCH  10  17
ENDBRANCH   6   9
ENDBRANCH   1   6
BRANCH   4  21
ATOM     21  C   UNL     1      32.586 -10.938 -23.295  0.00  0.00    +0.006 C 
ATOM     22  C   UNL     1      31.736 -10.223 -22.504  0.00  0.00    +0.058 C 
BRANCH  22  25
ATOM     23  O   UNL     1      30.303  -8.327 -22.476  0.00  0.00    -0.270 OA
ATOM     24  N   UNL     1      32.397  -8.180 -23.527  0.00  0.00    -0.279 N 
ATOM     25  C   UNL     1      31.377  -8.805 -22.823  0.00  0.00    +0.250 C 
ATOM     26  H   UNL     1      33.194  -8.726 -23.718  0.00  0.00    +0.155 HD
BRANCH  24  27
ATOM     27  C   UNL     1      32.421  -6.845 -24.001  0.00  0.00    +0.064 C 
ATOM     28  C   UNL     1      33.287  -5.919 -23.442  0.00  0.00    +0.055 C 
ATOM     29  C   UNL     1      31.561  -6.498 -25.030  0.00  0.00    +0.016 C 
ATOM     30  C   UNL     1      33.292  -4.611 -23.926  0.00  0.00    +0.015 C 
ATOM     31  C   UNL     1      31.566  -5.190 -25.513  0.00  0.00    +0.001 C 
ATOM     32  C   UNL     1      32.431  -4.246 -24.961  0.00  0.00    +0.001 C 
BRANCH  28  33
ATOM     33  N   UNL     1      34.168  -6.266 -22.394  0.00  0.00    -0.356 N 
ATOM     34  H   UNL     1      34.462  -5.580 -21.752  0.00  0.00    +0.142 HD
ATOM     35  H   UNL     1      34.488  -7.192 -22.305  0.00  0.00    +0.142 HD
ENDBRANCH  28  33
ENDBRANCH  24  27
ENDBRANCH  22  25
ENDBRANCH   4  21
TORSDOF 7
ENDMDL
MODEL 8
REMARK VINA RESULT:     -11.7      4.271     10.277
REMARK  Name = 15985904
REMARK  7 active torsions:
REMARK  status: ('A' for Active; 'I' for Inactive)
REMARK    1  A    between atoms: N_1  and  S_6
REMARK    2  A    between atoms: C_4  and  C_21
REMARK    3  A    between atoms: S_6  and  C_9
REMARK    4  A    between atoms: C_10  and  C_17
REMARK    5  A    between atoms: C_22  and  C_25
REMARK    6  A    between atoms: N_24  and  C_27
REMARK    7  A    between atoms: C_28  and  N_33
REMARK                            x       y       z     vdW  Elec       q    Type
REMARK                         _______ _______ _______ _____ _____    ______ ____
ROOT
ATOM      1  N   UNL     1      35.741 -22.137 -16.096  0.00  0.00    -0.167 N 
ATOM      2  C   UNL     1      35.282 -21.876 -17.320  0.00  0.00    +0.089 C 
ATOM      3  C   UNL     1      36.810 -21.420 -15.747  0.00  0.00    +0.089 C 
ATOM      4  C   UNL     1      36.116 -20.903 -17.825  0.00  0.00    +0.018 C 
ATOM      5  C   UNL     1      37.083 -20.615 -16.830  0.00  0.00    +0.019 C 
ENDROOT
BRANCH   1   6
ATOM      6  S   UNL     1      35.013 -23.306 -15.051  0.00  0.00    +0.080 S 
ATOM      7  O   UNL     1      35.365 -22.821 -13.728  0.00  0.00    -0.149 OA
ATOM      8  O   UNL     1      35.442 -24.601 -15.545  0.00  0.00    -0.149 OA
BRANCH   6   9
ATOM      9  C   UNL     1      33.293 -23.164 -15.313  0.00  0.00    +0.126 C 
ATOM     10  C   UNL     1      30.544 -22.935 -15.731  0.00  0.00    +0.003 C 
ATOM     11  C   UNL     1      32.805 -22.839 -16.578  0.00  0.00    +0.020 C 
ATOM     12  C   UNL     1      32.406 -23.374 -14.256  0.00  0.00    +0.020 C 
ATOM     13  C   UNL     1      31.431 -22.724 -16.787  0.00  0.00    +0.001 C 
ATOM     14  C   UNL     1      31.032 -23.260 -14.465  0.00  0.00    +0.001 C 
BRANCH  10  17
ATOM     15  N   UNL     1      27.057 -22.185 -15.722  0.00  0.00    -0.208 N 
ATOM     16  N   UNL     1      27.011 -23.047 -16.752  0.00  0.00    -0.176 NA
ATOM     17  C   UNL     1      29.129 -22.817 -15.946  0.00  0.00    +0.037 C 
ATOM     18  C   UNL     1      28.306 -22.011 -15.203  0.00  0.00    +0.086 C 
ATOM     19  C   UNL     1      28.283 -23.429 -16.883  0.00  0.00    +0.119 C 
ATOM     20  C   UNL     1      25.845 -21.543 -15.270  0.00  0.00    +0.140 C 
ENDBRANCH  10  17
ENDBRANCH   6   9
ENDBRANCH   1   6
BRANCH   4  21
ATOM     21  C   UNL     1      36.000 -20.321 -19.105  0.00  0.00    +0.006 C 
ATOM     22  C   UNL     1      36.356 -19.065 -19.499  0.00  0.00    +0.058 C 
BRANCH  22  25
ATOM     23  O   UNL     1      36.889 -18.998 -21.815  0.00  0.00    -0.270 OA
ATOM     24  N   UNL     1      35.097 -17.719 -21.003  0.00  0.00    -0.279 N 
ATOM     25  C   UNL     1      36.162 -18.604 -20.910  0.00  0.00    +0.250 C 
ATOM     26  H   UNL     1      34.623 -17.516 -20.163  0.00  0.00    +0.155 HD
BRANCH  24  27
ATOM     27  C   UNL     1      34.613 -17.075 -22.168  0.00  0.00    +0.064 C 
ATOM     28  C   UNL     1      34.198 -17.821 -23.260  0.00  0.00    +0.055 C 
ATOM     29  C   UNL     1      34.567 -15.690 -22.183  0.00  0.00    +0.016 C 
ATOM     30  C   UNL     1      33.726 -17.165 -24.396  0.00  0.00    +0.015 C 
ATOM     31  C   UNL     1      34.095 -15.034 -23.319  0.00  0.00    +0.001 C 
ATOM     32  C   UNL     1      33.675 -15.771 -24.426  0.00  0.00    +0.001 C 
BRANCH  28  33
ATOM     33  N   UNL     1      34.240 -19.233 -23.252  0.00  0.00    -0.356 N 
ATOM     34  H   UNL     1      35.089 -19.699 -23.072  0.00  0.00    +0.142 HD
ATOM     35  H   UNL     1      33.422 -19.751 -23.425  0.00  0.00    +0.142 HD
ENDBRANCH  28  33
ENDBRANCH  24  27
ENDBRANCH  22  25
ENDBRANCH   4  21
TORSDOF 7
ENDMDL
MODEL 9
REMARK VINA RESULT:     -11.6      2.108      3.251
REMARK  Name = 15985904
REMARK  7 active torsions:
REMARK  status: ('A' for Active; 'I' for Inactive)
REMARK    1  A    between atoms: N_1  and  S_6
REMARK    2  A    between atoms: C_4  and  C_21
REMARK    3  A    between atoms: S_6  and  C_9
REMARK    4  A    between atoms: C_10  and  C_17
REMARK    5  A    between atoms: C_22  and  C_25
REMARK    6  A    between atoms: N_24  and  C_27
REMARK    7  A    between atoms: C_28  and  N_33
REMARK                            x       y       z     vdW  Elec       q    Type
REMARK                         _______ _______ _______ _____ _____    ______ ____
ROOT
ATOM      1  N   UNL     1      34.477 -17.229 -22.994  0.00  0.00    -0.167 N 
ATOM      2  C   UNL     1      33.841 -18.241 -22.402  0.00  0.00    +0.089 C 
ATOM      3  C   UNL     1      35.684 -16.971 -22.489  0.00  0.00    +0.089 C 
ATOM      4  C   UNL     1      34.699 -18.692 -21.423  0.00  0.00    +0.018 C 
ATOM      5  C   UNL     1      35.865 -17.888 -21.478  0.00  0.00    +0.019 C 
ENDROOT
BRANCH   1   6
ATOM      6  S   UNL     1      33.795 -16.329 -24.303  0.00  0.00    +0.080 S 
ATOM      7  O   UNL     1      32.660 -17.144 -24.699  0.00  0.00    -0.149 OA
ATOM      8  O   UNL     1      34.897 -16.040 -25.202  0.00  0.00    -0.149 OA
BRANCH   6   9
ATOM      9  C   UNL     1      33.250 -14.825 -23.604  0.00  0.00    +0.126 C 
ATOM     10  C   UNL     1      32.381 -12.420 -22.489  0.00  0.00    +0.003 C 
ATOM     11  C   UNL     1      32.667 -13.851 -24.415  0.00  0.00    +0.020 C 
ATOM     12  C   UNL     1      33.398 -14.596 -22.236  0.00  0.00    +0.020 C 
ATOM     13  C   UNL     1      32.233 -12.649 -23.857  0.00  0.00    +0.001 C 
ATOM     14  C   UNL     1      32.964 -13.394 -21.679  0.00  0.00    +0.001 C 
BRANCH  10  17
ATOM     15  N   UNL     1      31.435  -9.073 -21.699  0.00  0.00    -0.208 N 
ATOM     16  N   UNL     1      31.122  -9.592 -20.499  0.00  0.00    -0.176 NA
ATOM     17  C   UNL     1      31.934 -11.182 -21.915  0.00  0.00    +0.037 C 
ATOM     18  C   UNL     1      31.925  -9.986 -22.585  0.00  0.00    +0.086 C 
ATOM     19  C   UNL     1      31.430 -10.883 -20.640  0.00  0.00    +0.119 C 
ATOM     20  C   UNL     1      31.235  -7.664 -21.944  0.00  0.00    +0.140 C 
ENDBRANCH  10  17
ENDBRANCH   6   9
ENDBRANCH   1   6
BRANCH   4  21
ATOM     21  C   UNL     1      34.433 -19.762 -20.544  0.00  0.00    +0.006 C 
ATOM     22  C   UNL     1      35.321 -20.517 -19.836  0.00  0.00    +0.058 C 
BRANCH  22  25
ATOM     23  O   UNL     1      34.177 -22.547 -19.363  0.00  0.00    -0.270 OA
ATOM     24  N   UNL     1      35.325 -21.437 -17.642  0.00  0.00    -0.279 N 
ATOM     25  C   UNL     1      34.865 -21.625 -18.939  0.00  0.00    +0.250 C 
ATOM     26  H   UNL     1      35.870 -20.631 -17.485  0.00  0.00    +0.155 HD
BRANCH  24  27
ATOM     27  C   UNL     1      35.099 -22.272 -16.521  0.00  0.00    +0.064 C 
ATOM     28  C   UNL     1      36.163 -22.719 -15.754  0.00  0.00    +0.055 C 
ATOM     29  C   UNL     1      33.794 -22.624 -16.216  0.00  0.00    +0.016 C 
ATOM     30  C   UNL     1      35.915 -23.541 -14.655  0.00  0.00    +0.015 C 
ATOM     31  C   UNL     1      33.546 -23.445 -15.117  0.00  0.00    +0.001 C 
ATOM     32  C   UNL     1      34.607 -23.904 -14.336  0.00  0.00    +0.001 C 
BRANCH  28  33
ATOM     33  N   UNL     1      37.496 -22.363 -16.057  0.00  0.00    -0.356 N 
ATOM     34  H   UNL     1      38.003 -22.878 -16.726  0.00  0.00    +0.142 HD
ATOM     35  H   UNL     1      37.918 -21.600 -15.601  0.00  0.00    +0.142 HD
ENDBRANCH  28  33
ENDBRANCH  24  27
ENDBRANCH  22  25
ENDBRANCH   4  21
TORSDOF 7
ENDMDL
