MODEL 1
REMARK VINA RESULT:     -12.9      0.000      0.000
REMARK  Name = 216210
REMARK  9 active torsions:
REMARK  status: ('A' for Active; 'I' for Inactive)
REMARK    1  A    between atoms: C_4  and  C_26
REMARK    2  A    between atoms: C_6  and  C_13
REMARK    3  A    between atoms: N_12  and  C_20
REMARK    4  A    between atoms: C_20  and  C_21
REMARK    5  A    between atoms: C_21  and  C_23
REMARK    6  A    between atoms: C_23  and  O_24
REMARK    7  A    between atoms: C_26  and  N_27
REMARK    8  A    between atoms: N_27  and  C_29
REMARK    9  A    between atoms: C_34  and  C_37
REMARK                            x       y       z     vdW  Elec       q    Type
REMARK                         _______ _______ _______ _____ _____    ______ ____
ROOT
ATOM      1  N   UNL     1      33.558 -20.552 -19.743  0.00  0.00    -0.261 N 
ATOM      2  N   UNL     1      35.697 -20.531 -19.142  0.00  0.00    -0.388 NA
ATOM      3  C   UNL     1      33.739 -21.356 -18.640  0.00  0.00    +0.079 C 
ATOM      4  C   UNL     1      34.751 -20.075 -20.017  0.00  0.00    +0.184 C 
ATOM      5  C   UNL     1      35.074 -21.359 -18.245  0.00  0.00    +0.146 C 
ATOM      6  C   UNL     1      34.607 -22.844 -16.444  0.00  0.00    +0.039 C 
ATOM      7  C   UNL     1      35.548 -22.089 -17.154  0.00  0.00    +0.034 C 
ATOM      8  C   UNL     1      32.808 -22.121 -17.917  0.00  0.00    -0.004 C 
ATOM      9  C   UNL     1      33.261 -22.861 -16.818  0.00  0.00    +0.058 C 
ATOM     10  C   UNL     1      32.312 -20.304 -20.428  0.00  0.00    +0.120 C 
ENDROOT
BRANCH   6  13
ATOM     11  O   UNL     1      35.957 -24.435 -15.507  0.00  0.00    -0.270 OA
ATOM     12  N   UNL     1      34.408 -23.415 -14.043  0.00  0.00    -0.240 N 
ATOM     13  C   UNL     1      35.041 -23.626 -15.297  0.00  0.00    +0.250 C 
ATOM     14  N   UNL     1      36.445 -24.012 -12.905  0.00  0.00    -0.229 NA
ATOM     15  C   UNL     1      35.155 -23.621 -12.816  0.00  0.00    +0.138 C 
ATOM     16  C   UNL     1      34.490 -23.402 -11.620  0.00  0.00    +0.035 C 
ATOM     17  C   UNL     1      35.196 -23.597 -10.438  0.00  0.00    +0.004 C 
ATOM     18  C   UNL     1      37.100 -24.193 -11.735  0.00  0.00    +0.100 C 
ATOM     19  C   UNL     1      36.526 -24.000 -10.489  0.00  0.00    +0.021 C 
BRANCH  12  20
ATOM     20  C   UNL     1      33.001 -22.989 -13.979  0.00  0.00    +0.112 C 
BRANCH  20  21
ATOM     21  C   UNL     1      32.058 -24.164 -13.757  0.00  0.00    +0.131 C 
BRANCH  21  23
ATOM     22  O   UNL     1      30.070 -22.753 -13.729  0.00  0.00    -0.250 OA
ATOM     23  C   UNL     1      30.673 -23.736 -13.320  0.00  0.00    +0.316 C 
BRANCH  23  24
ATOM     24  O   UNL     1      30.155 -24.595 -12.403  0.00  0.00    -0.480 OA
ATOM     25  H   UNL     1      29.380 -24.363 -11.929  0.00  0.00    +0.295 HD
ENDBRANCH  23  24
ENDBRANCH  21  23
ENDBRANCH  20  21
ENDBRANCH  12  20
ENDBRANCH   6  13
BRANCH   4  26
ATOM     26  C   UNL     1      35.012 -19.152 -21.141  0.00  0.00    +0.164 C 
BRANCH  26  27
ATOM     27  N   UNL     1      35.103 -17.744 -20.778  0.00  0.00    -0.326 N 
ATOM     28  H   UNL     1      35.522 -17.507 -19.918  0.00  0.00    +0.147 HD
BRANCH  27  29
ATOM     29  C   UNL     1      34.632 -16.726 -21.579  0.00  0.00    +0.045 C 
ATOM     30  C   UNL     1      34.235 -15.516 -21.009  0.00  0.00    +0.014 C 
ATOM     31  C   UNL     1      34.548 -16.907 -22.960  0.00  0.00    +0.014 C 
ATOM     32  C   UNL     1      33.755 -14.488 -21.818  0.00  0.00    +0.004 C 
ATOM     33  C   UNL     1      34.069 -15.878 -23.769  0.00  0.00    +0.004 C 
ATOM     34  C   UNL     1      33.672 -14.668 -23.199  0.00  0.00    +0.031 C 
BRANCH  34  37
ATOM     35  N   UNL     1      33.242 -12.263 -23.641  0.00  0.00    -0.343 N 
ATOM     36  N   UNL     1      32.634 -13.878 -25.217  0.00  0.00    -0.285 NA
ATOM     37  C   UNL     1      33.172 -13.595 -24.045  0.00  0.00    +0.117 C 
ATOM     38  H   UNL     1      32.897 -11.552 -24.230  0.00  0.00    +0.144 HD
ATOM     39  H   UNL     1      33.637 -12.032 -22.770  0.00  0.00    +0.144 HD
ATOM     40  H   UNL     1      32.294 -13.154 -25.791  0.00  0.00    +0.188 HD
ENDBRANCH  34  37
ENDBRANCH  27  29
ENDBRANCH  26  27
ENDBRANCH   4  26
TORSDOF 9
ENDMDL
MODEL 2
REMARK VINA RESULT:     -12.5      5.624     12.941
REMARK  Name = 216210
REMARK  9 active torsions:
REMARK  status: ('A' for Active; 'I' for Inactive)
REMARK    1  A    between atoms: C_4  and  C_26
REMARK    2  A    between atoms: C_6  and  C_13
REMARK    3  A    between atoms: N_12  and  C_20
REMARK    4  A    between atoms: C_20  and  C_21
REMARK    5  A    between atoms: C_21  and  C_23
REMARK    6  A    between atoms: C_23  and  O_24
REMARK    7  A    between atoms: C_26  and  N_27
REMARK    8  A    between atoms: N_27  and  C_29
REMARK    9  A    between atoms: C_34  and  C_37
REMARK                            x       y       z     vdW  Elec       q    Type
REMARK                         _______ _______ _______ _____ _____    ______ ____
ROOT
ATOM      1  N   UNL     1      33.764 -16.359 -23.741  0.00  0.00    -0.261 N 
ATOM      2  N   UNL     1      34.556 -15.424 -21.887  0.00  0.00    -0.388 NA
ATOM      3  C   UNL     1      33.537 -15.001 -23.771  0.00  0.00    +0.079 C 
ATOM      4  C   UNL     1      34.374 -16.577 -22.599  0.00  0.00    +0.184 C 
ATOM      5  C   UNL     1      34.026 -14.393 -22.619  0.00  0.00    +0.146 C 
ATOM      6  C   UNL     1      33.313 -12.249 -23.368  0.00  0.00    +0.039 C 
ATOM      7  C   UNL     1      33.934 -13.021 -22.379  0.00  0.00    +0.034 C 
ATOM      8  C   UNL     1      32.916 -14.211 -24.754  0.00  0.00    -0.004 C 
ATOM      9  C   UNL     1      32.814 -12.831 -24.535  0.00  0.00    +0.058 C 
ATOM     10  C   UNL     1      33.398 -17.312 -24.761  0.00  0.00    +0.120 C 
ENDROOT
BRANCH   6  13
ATOM     11  O   UNL     1      34.176 -10.134 -23.491  0.00  0.00    -0.270 OA
ATOM     12  N   UNL     1      31.973 -10.293 -22.654  0.00  0.00    -0.240 N 
ATOM     13  C   UNL     1      33.188 -10.812 -23.175  0.00  0.00    +0.250 C 
ATOM     14  N   UNL     1      32.312  -8.248 -23.882  0.00  0.00    -0.229 NA
ATOM     15  C   UNL     1      31.538  -8.962 -23.035  0.00  0.00    +0.138 C 
ATOM     16  C   UNL     1      30.345  -8.502 -22.499  0.00  0.00    +0.035 C 
ATOM     17  C   UNL     1      29.919  -7.228 -22.857  0.00  0.00    +0.004 C 
ATOM     18  C   UNL     1      31.867  -7.013 -24.207  0.00  0.00    +0.100 C 
ATOM     19  C   UNL     1      30.689  -6.463 -23.727  0.00  0.00    +0.021 C 
BRANCH  12  20
ATOM     20  C   UNL     1      31.151 -11.094 -21.733  0.00  0.00    +0.112 C 
BRANCH  20  21
ATOM     21  C   UNL     1      31.728 -11.114 -20.323  0.00  0.00    +0.131 C 
BRANCH  21  23
ATOM     22  O   UNL     1      30.104  -9.539 -19.412  0.00  0.00    -0.250 OA
ATOM     23  C   UNL     1      31.254  -9.952 -19.475  0.00  0.00    +0.316 C 
BRANCH  23  24
ATOM     24  O   UNL     1      32.276  -9.410 -18.763  0.00  0.00    -0.480 OA
ATOM     25  H   UNL     1      32.493  -8.505 -18.870  0.00  0.00    +0.295 HD
ENDBRANCH  23  24
ENDBRANCH  21  23
ENDBRANCH  20  21
ENDBRANCH  12  20
ENDBRANCH   6  13
BRANCH   4  26
ATOM     26  C   UNL     1      34.807 -17.919 -22.159  0.00  0.00    +0.164 C 
BRANCH  26  27
ATOM     27  N   UNL     1      33.728 -18.854 -21.866  0.00  0.00    -0.326 N 
ATOM     28  H   UNL     1      32.948 -18.872 -22.467  0.00  0.00    +0.147 HD
BRANCH  27  29
ATOM     29  C   UNL     1      33.744 -19.713 -20.789  0.00  0.00    +0.045 C 
ATOM     30  C   UNL     1      34.960 -20.161 -20.271  0.00  0.00    +0.014 C 
ATOM     31  C   UNL     1      32.544 -20.137 -20.217  0.00  0.00    +0.014 C 
ATOM     32  C   UNL     1      34.976 -21.032 -19.183  0.00  0.00    +0.004 C 
ATOM     33  C   UNL     1      32.561 -21.008 -19.128  0.00  0.00    +0.004 C 
ATOM     34  C   UNL     1      33.777 -21.456 -18.610  0.00  0.00    +0.031 C 
BRANCH  34  37
ATOM     35  N   UNL     1      32.674 -23.125 -17.139  0.00  0.00    -0.343 N 
ATOM     36  N   UNL     1      34.882 -22.475 -16.737  0.00  0.00    -0.285 NA
ATOM     37  C   UNL     1      33.793 -22.364 -17.475  0.00  0.00    +0.117 C 
ATOM     38  H   UNL     1      32.707 -23.734 -16.366  0.00  0.00    +0.144 HD
ATOM     39  H   UNL     1      31.852 -23.055 -17.675  0.00  0.00    +0.144 HD
ATOM     40  H   UNL     1      34.896 -23.089 -15.967  0.00  0.00    +0.188 HD
ENDBRANCH  34  37
ENDBRANCH  27  29
ENDBRANCH  26  27
ENDBRANCH   4  26
TORSDOF 9
ENDMDL
MODEL 3
REMARK VINA RESULT:     -12.4      1.071      1.521
REMARK  Name = 216210
REMARK  9 active torsions:
REMARK  status: ('A' for Active; 'I' for Inactive)
REMARK    1  A    between atoms: C_4  and  C_26
REMARK    2  A    between atoms: C_6  and  C_13
REMARK    3  A    between atoms: N_12  and  C_20
REMARK    4  A    between atoms: C_20  and  C_21
REMARK    5  A    between atoms: C_21  and  C_23
REMARK    6  A    between atoms: C_23  and  O_24
REMARK    7  A    between atoms: C_26  and  N_27
REMARK    8  A    between atoms: N_27  and  C_29
REMARK    9  A    between atoms: C_34  and  C_37
REMARK                            x       y       z     vdW  Elec       q    Type
REMARK                         _______ _______ _______ _____ _____    ______ ____
ROOT
ATOM      1  N   UNL     1      33.552 -20.353 -20.113  0.00  0.00    -0.261 N 
ATOM      2  N   UNL     1      35.730 -20.026 -19.813  0.00  0.00    -0.388 NA
ATOM      3  C   UNL     1      33.970 -21.016 -18.981  0.00  0.00    +0.079 C 
ATOM      4  C   UNL     1      34.631 -19.772 -20.585  0.00  0.00    +0.184 C 
ATOM      5  C   UNL     1      35.333 -20.825 -18.772  0.00  0.00    +0.146 C 
ATOM      6  C   UNL     1      35.288 -22.166 -16.806  0.00  0.00    +0.039 C 
ATOM      7  C   UNL     1      36.029 -21.383 -17.698  0.00  0.00    +0.034 C 
ATOM      8  C   UNL     1      33.241 -21.806 -18.076  0.00  0.00    -0.004 C 
ATOM      9  C   UNL     1      33.919 -22.375 -16.990  0.00  0.00    +0.058 C 
ATOM     10  C   UNL     1      32.209 -20.320 -20.640  0.00  0.00    +0.120 C 
ENDROOT
BRANCH   6  13
ATOM     11  O   UNL     1      37.196 -22.740 -15.684  0.00  0.00    -0.270 OA
ATOM     12  N   UNL     1      35.170 -23.347 -14.632  0.00  0.00    -0.240 N 
ATOM     13  C   UNL     1      35.957 -22.773 -15.666  0.00  0.00    +0.250 C 
ATOM     14  N   UNL     1      36.881 -22.815 -13.023  0.00  0.00    -0.229 NA
ATOM     15  C   UNL     1      35.668 -23.357 -13.269  0.00  0.00    +0.138 C 
ATOM     16  C   UNL     1      34.861 -23.928 -12.299  0.00  0.00    +0.035 C 
ATOM     17  C   UNL     1      35.329 -23.943 -10.990  0.00  0.00    +0.004 C 
ATOM     18  C   UNL     1      37.304 -22.848 -11.739  0.00  0.00    +0.100 C 
ATOM     19  C   UNL     1      36.573 -23.395 -10.696  0.00  0.00    +0.021 C 
BRANCH  12  20
ATOM     20  C   UNL     1      33.853 -23.930 -14.932  0.00  0.00    +0.112 C 
BRANCH  20  21
ATOM     21  C   UNL     1      32.721 -23.158 -14.266  0.00  0.00    +0.131 C 
BRANCH  21  23
ATOM     22  O   UNL     1      31.435 -24.677 -12.858  0.00  0.00    -0.250 OA
ATOM     23  C   UNL     1      31.545 -24.037 -13.894  0.00  0.00    +0.316 C 
BRANCH  23  24
ATOM     24  O   UNL     1      30.596 -24.030 -14.866  0.00  0.00    -0.480 OA
ATOM     25  H   UNL     1      29.851 -23.466 -14.788  0.00  0.00    +0.295 HD
ENDBRANCH  23  24
ENDBRANCH  21  23
ENDBRANCH  20  21
ENDBRANCH  12  20
ENDBRANCH   6  13
BRANCH   4  26
ATOM     26  C   UNL     1      34.631 -18.943 -21.808  0.00  0.00    +0.164 C 
BRANCH  26  27
ATOM     27  N   UNL     1      35.341 -17.675 -21.698  0.00  0.00    -0.326 N 
ATOM     28  H   UNL     1      36.298 -17.693 -21.467  0.00  0.00    +0.147 HD
BRANCH  27  29
ATOM     29  C   UNL     1      34.739 -16.452 -21.900  0.00  0.00    +0.045 C 
ATOM     30  C   UNL     1      34.581 -15.957 -23.195  0.00  0.00    +0.014 C 
ATOM     31  C   UNL     1      34.290 -15.706 -20.809  0.00  0.00    +0.014 C 
ATOM     32  C   UNL     1      33.974 -14.719 -23.398  0.00  0.00    +0.004 C 
ATOM     33  C   UNL     1      33.683 -14.468 -21.013  0.00  0.00    +0.004 C 
ATOM     34  C   UNL     1      33.524 -13.974 -22.308  0.00  0.00    +0.031 C 
BRANCH  34  37
ATOM     35  N   UNL     1      31.622 -12.406 -22.015  0.00  0.00    -0.343 N 
ATOM     36  N   UNL     1      33.519 -11.746 -23.208  0.00  0.00    -0.285 NA
ATOM     37  C   UNL     1      32.891 -12.682 -22.520  0.00  0.00    +0.117 C 
ATOM     38  H   UNL     1      31.211 -11.524 -22.171  0.00  0.00    +0.144 HD
ATOM     39  H   UNL     1      31.135 -13.091 -21.502  0.00  0.00    +0.144 HD
ATOM     40  H   UNL     1      33.092 -10.871 -23.353  0.00  0.00    +0.188 HD
ENDBRANCH  34  37
ENDBRANCH  27  29
ENDBRANCH  26  27
ENDBRANCH   4  26
TORSDOF 9
ENDMDL
MODEL 4
REMARK VINA RESULT:     -12.1      2.192      2.472
REMARK  Name = 216210
REMARK  9 active torsions:
REMARK  status: ('A' for Active; 'I' for Inactive)
REMARK    1  A    between atoms: C_4  and  C_26
REMARK    2  A    between atoms: C_6  and  C_13
REMARK    3  A    between atoms: N_12  and  C_20
REMARK    4  A    between atoms: C_20  and  C_21
REMARK    5  A    between atoms: C_21  and  C_23
REMARK    6  A    between atoms: C_23  and  O_24
REMARK    7  A    between atoms: C_26  and  N_27
REMARK    8  A    between atoms: N_27  and  C_29
REMARK    9  A    between atoms: C_34  and  C_37
REMARK                            x       y       z     vdW  Elec       q    Type
REMARK                         _______ _______ _______ _____ _____    ______ ____
ROOT
ATOM      1  N   UNL     1      33.774 -20.703 -19.844  0.00  0.00    -0.261 N 
ATOM      2  N   UNL     1      35.906 -20.172 -19.515  0.00  0.00    -0.388 NA
ATOM      3  C   UNL     1      34.209 -21.243 -18.655  0.00  0.00    +0.079 C 
ATOM      4  C   UNL     1      34.816 -20.070 -20.333  0.00  0.00    +0.184 C 
ATOM      5  C   UNL     1      35.544 -20.923 -18.427  0.00  0.00    +0.146 C 
ATOM      6  C   UNL     1      35.547 -22.113 -16.365  0.00  0.00    +0.039 C 
ATOM      7  C   UNL     1      36.249 -21.338 -17.295  0.00  0.00    +0.034 C 
ATOM      8  C   UNL     1      33.520 -22.023 -17.711  0.00  0.00    -0.004 C 
ATOM      9  C   UNL     1      34.207 -22.450 -16.568  0.00  0.00    +0.058 C 
ATOM     10  C   UNL     1      32.451 -20.824 -20.407  0.00  0.00    +0.120 C 
ENDROOT
BRANCH   6  13
ATOM     11  O   UNL     1      37.358 -22.105 -14.968  0.00  0.00    -0.270 OA
ATOM     12  N   UNL     1      35.571 -23.507 -14.319  0.00  0.00    -0.240 N 
ATOM     13  C   UNL     1      36.228 -22.575 -15.166  0.00  0.00    +0.250 C 
ATOM     14  N   UNL     1      36.726 -22.599 -12.410  0.00  0.00    -0.229 NA
ATOM     15  C   UNL     1      35.843 -23.501 -12.893  0.00  0.00    +0.138 C 
ATOM     16  C   UNL     1      35.176 -24.430 -12.112  0.00  0.00    +0.035 C 
ATOM     17  C   UNL     1      35.431 -24.434 -10.745  0.00  0.00    +0.004 C 
ATOM     18  C   UNL     1      36.950 -22.633 -11.077  0.00  0.00    +0.100 C 
ATOM     19  C   UNL     1      36.333 -23.521 -10.210  0.00  0.00    +0.021 C 
BRANCH  12  20
ATOM     20  C   UNL     1      34.614 -24.477 -14.875  0.00  0.00    +0.112 C 
BRANCH  20  21
ATOM     21  C   UNL     1      35.044 -25.915 -14.618  0.00  0.00    +0.131 C 
BRANCH  21  23
ATOM     22  O   UNL     1      37.469 -25.888 -14.867  0.00  0.00    -0.250 OA
ATOM     23  C   UNL     1      36.372 -26.259 -15.259  0.00  0.00    +0.316 C 
BRANCH  23  24
ATOM     24  O   UNL     1      36.204 -27.056 -16.347  0.00  0.00    -0.480 OA
ATOM     25  H   UNL     1      36.806 -27.003 -17.064  0.00  0.00    +0.295 HD
ENDBRANCH  23  24
ENDBRANCH  21  23
ENDBRANCH  20  21
ENDBRANCH  12  20
ENDBRANCH   6  13
BRANCH   4  26
ATOM     26  C   UNL     1      34.787 -19.337 -21.615  0.00  0.00    +0.164 C 
BRANCH  26  27
ATOM     27  N   UNL     1      35.371 -18.002 -21.580  0.00  0.00    -0.326 N 
ATOM     28  H   UNL     1      36.211 -17.871 -21.083  0.00  0.00    +0.147 HD
BRANCH  27  29
ATOM     29  C   UNL     1      34.804 -16.913 -22.207  0.00  0.00    +0.045 C 
ATOM     30  C   UNL     1      34.495 -15.768 -21.473  0.00  0.00    +0.014 C 
ATOM     31  C   UNL     1      34.538 -16.958 -23.576  0.00  0.00    +0.014 C 
ATOM     32  C   UNL     1      33.920 -14.668 -22.108  0.00  0.00    +0.004 C 
ATOM     33  C   UNL     1      33.963 -15.857 -24.210  0.00  0.00    +0.004 C 
ATOM     34  C   UNL     1      33.653 -14.711 -23.477  0.00  0.00    +0.031 C 
BRANCH  34  37
ATOM     35  N   UNL     1      33.164 -12.281 -23.605  0.00  0.00    -0.343 N 
ATOM     36  N   UNL     1      32.385 -13.729 -25.265  0.00  0.00    -0.285 NA
ATOM     37  C   UNL     1      33.054 -13.564 -24.138  0.00  0.00    +0.117 C 
ATOM     38  H   UNL     1      32.750 -11.517 -24.070  0.00  0.00    +0.144 HD
ATOM     39  H   UNL     1      33.655 -12.137 -22.765  0.00  0.00    +0.144 HD
ATOM     40  H   UNL     1      31.978 -12.954 -25.715  0.00  0.00    +0.188 HD
ENDBRANCH  34  37
ENDBRANCH  27  29
ENDBRANCH  26  27
ENDBRANCH   4  26
TORSDOF 9
ENDMDL
MODEL 5
REMARK VINA RESULT:     -12.0      6.144     13.104
REMARK  Name = 216210
REMARK  9 active torsions:
REMARK  status: ('A' for Active; 'I' for Inactive)
REMARK    1  A    between atoms: C_4  and  C_26
REMARK    2  A    between atoms: C_6  and  C_13
REMARK    3  A    between atoms: N_12  and  C_20
REMARK    4  A    between atoms: C_20  and  C_21
REMARK    5  A    between atoms: C_21  and  C_23
REMARK    6  A    between atoms: C_23  and  O_24
REMARK    7  A    between atoms: C_26  and  N_27
REMARK    8  A    between atoms: N_27  and  C_29
REMARK    9  A    between atoms: C_34  and  C_37
REMARK                            x       y       z     vdW  Elec       q    Type
REMARK                         _______ _______ _______ _____ _____    ______ ____
ROOT
ATOM      1  N   UNL     1      34.081 -15.604 -23.097  0.00  0.00    -0.261 N 
ATOM      2  N   UNL     1      34.148 -15.117 -20.930  0.00  0.00    -0.388 NA
ATOM      3  C   UNL     1      33.399 -14.431 -22.862  0.00  0.00    +0.079 C 
ATOM      4  C   UNL     1      34.516 -15.987 -21.918  0.00  0.00    +0.184 C 
ATOM      5  C   UNL     1      33.427 -14.105 -21.510  0.00  0.00    +0.146 C 
ATOM      6  C   UNL     1      32.148 -12.134 -21.889  0.00  0.00    +0.039 C 
ATOM      7  C   UNL     1      32.814 -12.967 -20.983  0.00  0.00    +0.034 C 
ATOM      8  C   UNL     1      32.724 -13.584 -23.758  0.00  0.00    -0.004 C 
ATOM      9  C   UNL     1      32.103 -12.436 -23.252  0.00  0.00    +0.058 C 
ATOM     10  C   UNL     1      34.265 -16.248 -24.375  0.00  0.00    +0.120 C 
ENDROOT
BRANCH   6  13
ATOM     11  O   UNL     1      30.672 -11.097 -20.483  0.00  0.00    -0.270 OA
ATOM     12  N   UNL     1      31.822  -9.681 -21.984  0.00  0.00    -0.240 N 
ATOM     13  C   UNL     1      31.490 -10.932 -21.400  0.00  0.00    +0.250 C 
ATOM     14  N   UNL     1      31.360  -8.573 -19.896  0.00  0.00    -0.229 NA
ATOM     15  C   UNL     1      31.748  -8.471 -21.187  0.00  0.00    +0.138 C 
ATOM     16  C   UNL     1      32.082  -7.278 -21.805  0.00  0.00    +0.035 C 
ATOM     17  C   UNL     1      32.013  -6.112 -21.050  0.00  0.00    +0.004 C 
ATOM     18  C   UNL     1      31.304  -7.420 -19.193  0.00  0.00    +0.100 C 
ATOM     19  C   UNL     1      31.618  -6.176 -19.718  0.00  0.00    +0.021 C 
BRANCH  12  20
ATOM     20  C   UNL     1      32.241  -9.603 -23.393  0.00  0.00    +0.112 C 
BRANCH  20  21
ATOM     21  C   UNL     1      33.731  -9.864 -23.561  0.00  0.00    +0.131 C 
BRANCH  21  23
ATOM     22  O   UNL     1      34.070  -7.477 -23.919  0.00  0.00    -0.250 OA
ATOM     23  C   UNL     1      34.515  -8.616 -23.908  0.00  0.00    +0.316 C 
BRANCH  23  24
ATOM     24  O   UNL     1      35.807  -8.910 -24.208  0.00  0.00    -0.480 OA
ATOM     25  H   UNL     1      36.217  -9.662 -23.827  0.00  0.00    +0.295 HD
ENDBRANCH  23  24
ENDBRANCH  21  23
ENDBRANCH  20  21
ENDBRANCH  12  20
ENDBRANCH   6  13
BRANCH   4  26
ATOM     26  C   UNL     1      35.310 -17.215 -21.711  0.00  0.00    +0.164 C 
BRANCH  26  27
ATOM     27  N   UNL     1      34.582 -18.464 -21.903  0.00  0.00    -0.326 N 
ATOM     28  H   UNL     1      34.191 -18.646 -22.788  0.00  0.00    +0.147 HD
BRANCH  27  29
ATOM     29  C   UNL     1      34.413 -19.400 -20.906  0.00  0.00    +0.045 C 
ATOM     30  C   UNL     1      33.129 -19.791 -20.527  0.00  0.00    +0.014 C 
ATOM     31  C   UNL     1      35.526 -19.954 -20.273  0.00  0.00    +0.014 C 
ATOM     32  C   UNL     1      32.958 -20.736 -19.517  0.00  0.00    +0.004 C 
ATOM     33  C   UNL     1      35.355 -20.900 -19.264  0.00  0.00    +0.004 C 
ATOM     34  C   UNL     1      34.071 -21.292 -18.884  0.00  0.00    +0.031 C 
BRANCH  34  37
ATOM     35  N   UNL     1      32.755 -23.082 -17.775  0.00  0.00    -0.343 N 
ATOM     36  N   UNL     1      34.818 -22.420 -16.899  0.00  0.00    -0.285 NA
ATOM     37  C   UNL     1      33.893 -22.278 -17.830  0.00  0.00    +0.117 C 
ATOM     38  H   UNL     1      32.655 -23.744 -17.053  0.00  0.00    +0.144 HD
ATOM     39  H   UNL     1      32.053 -22.989 -18.458  0.00  0.00    +0.144 HD
ATOM     40  H   UNL     1      34.699 -23.087 -16.185  0.00  0.00    +0.188 HD
ENDBRANCH  34  37
ENDBRANCH  27  29
ENDBRANCH  26  27
ENDBRANCH   4  26
TORSDOF 9
ENDMDL
MODEL 6
REMARK VINA RESULT:     -11.8      5.315      9.384
REMARK  Name = 216210
REMARK  9 active torsions:
REMARK  status: ('A' for Active; 'I' for Inactive)
REMARK    1  A    between atoms: C_4  and  C_26
REMARK    2  A    between atoms: C_6  and  C_13
REMARK    3  A    between atoms: N_12  and  C_20
REMARK    4  A    between atoms: C_20  and  C_21
REMARK    5  A    between atoms: C_21  and  C_23
REMARK    6  A    between atoms: C_23  and  O_24
REMARK    7  A    between atoms: C_26  and  N_27
REMARK    8  A    between atoms: N_27  and  C_29
REMARK    9  A    between atoms: C_34  and  C_37
REMARK                            x       y       z     vdW  Elec       q    Type
REMARK                         _______ _______ _______ _____ _____    ______ ____
ROOT
ATOM      1  N   UNL     1      33.049 -12.602 -22.886  0.00  0.00    -0.261 N 
ATOM      2  N   UNL     1      32.725 -13.348 -20.818  0.00  0.00    -0.388 NA
ATOM      3  C   UNL     1      33.669 -13.821 -22.729  0.00  0.00    +0.079 C 
ATOM      4  C   UNL     1      32.494 -12.349 -21.723  0.00  0.00    +0.184 C 
ATOM      5  C   UNL     1      33.480 -14.309 -21.440  0.00  0.00    +0.146 C 
ATOM      6  C   UNL     1      34.741 -16.268 -21.924  0.00  0.00    +0.039 C 
ATOM      7  C   UNL     1      33.998 -15.527 -20.998  0.00  0.00    +0.034 C 
ATOM      8  C   UNL     1      34.418 -14.578 -23.646  0.00  0.00    -0.004 C 
ATOM      9  C   UNL     1      34.947 -15.804 -23.225  0.00  0.00    +0.058 C 
ATOM     10  C   UNL     1      33.028 -11.798 -24.085  0.00  0.00    +0.120 C 
ENDROOT
BRANCH   6  13
ATOM     11  O   UNL     1      36.525 -17.552 -21.291  0.00  0.00    -0.270 OA
ATOM     12  N   UNL     1      34.451 -18.676 -21.419  0.00  0.00    -0.240 N 
ATOM     13  C   UNL     1      35.307 -17.547 -21.522  0.00  0.00    +0.250 C 
ATOM     14  N   UNL     1      35.849 -19.589 -19.684  0.00  0.00    -0.229 NA
ATOM     15  C   UNL     1      34.751 -19.722 -20.460  0.00  0.00    +0.138 C 
ATOM     16  C   UNL     1      33.884 -20.801 -20.400  0.00  0.00    +0.035 C 
ATOM     17  C   UNL     1      34.162 -21.810 -19.484  0.00  0.00    +0.004 C 
ATOM     18  C   UNL     1      36.089 -20.590 -18.807  0.00  0.00    +0.100 C 
ATOM     19  C   UNL     1      35.284 -21.709 -18.669  0.00  0.00    +0.021 C 
BRANCH  12  20
ATOM     20  C   UNL     1      33.261 -18.792 -22.278  0.00  0.00    +0.112 C 
BRANCH  20  21
ATOM     21  C   UNL     1      33.631 -18.997 -23.741  0.00  0.00    +0.131 C 
BRANCH  21  23
ATOM     22  O   UNL     1      32.962 -17.063 -25.066  0.00  0.00    -0.250 OA
ATOM     23  C   UNL     1      32.753 -18.208 -24.689  0.00  0.00    +0.316 C 
BRANCH  23  24
ATOM     24  O   UNL     1      31.679 -18.937 -25.093  0.00  0.00    -0.480 OA
ATOM     25  H   UNL     1      31.807 -19.753 -25.536  0.00  0.00    +0.295 HD
ENDBRANCH  23  24
ENDBRANCH  21  23
ENDBRANCH  20  21
ENDBRANCH  12  20
ENDBRANCH   6  13
BRANCH   4  26
ATOM     26  C   UNL     1      31.714 -11.124 -21.449  0.00  0.00    +0.164 C 
BRANCH  26  27
ATOM     27  N   UNL     1      31.692 -10.149 -22.532  0.00  0.00    -0.326 N 
ATOM     28  H   UNL     1      31.914 -10.454 -23.442  0.00  0.00    +0.147 HD
BRANCH  27  29
ATOM     29  C   UNL     1      31.377  -8.821 -22.346  0.00  0.00    +0.045 C 
ATOM     30  C   UNL     1      31.587  -8.221 -21.104  0.00  0.00    +0.014 C 
ATOM     31  C   UNL     1      30.843  -8.076 -23.398  0.00  0.00    +0.014 C 
ATOM     32  C   UNL     1      31.265  -6.878 -20.915  0.00  0.00    +0.004 C 
ATOM     33  C   UNL     1      30.522  -6.732 -23.209  0.00  0.00    +0.004 C 
ATOM     34  C   UNL     1      30.733  -6.133 -21.967  0.00  0.00    +0.031 C 
BRANCH  34  37
ATOM     35  N   UNL     1      30.028  -3.917 -22.840  0.00  0.00    -0.343 N 
ATOM     36  N   UNL     1      30.445  -4.207 -20.559  0.00  0.00    -0.285 NA
ATOM     37  C   UNL     1      30.397  -4.731 -21.770  0.00  0.00    +0.117 C 
ATOM     38  H   UNL     1      29.805  -2.971 -22.684  0.00  0.00    +0.144 HD
ATOM     39  H   UNL     1      29.990  -4.288 -23.751  0.00  0.00    +0.144 HD
ATOM     40  H   UNL     1      30.219  -3.259 -20.423  0.00  0.00    +0.188 HD
ENDBRANCH  34  37
ENDBRANCH  27  29
ENDBRANCH  26  27
ENDBRANCH   4  26
TORSDOF 9
ENDMDL
MODEL 7
REMARK VINA RESULT:     -11.4     10.355     17.379
REMARK  Name = 216210
REMARK  9 active torsions:
REMARK  status: ('A' for Active; 'I' for Inactive)
REMARK    1  A    between atoms: C_4  and  C_26
REMARK    2  A    between atoms: C_6  and  C_13
REMARK    3  A    between atoms: N_12  and  C_20
REMARK    4  A    between atoms: C_20  and  C_21
REMARK    5  A    between atoms: C_21  and  C_23
REMARK    6  A    between atoms: C_23  and  O_24
REMARK    7  A    between atoms: C_26  and  N_27
REMARK    8  A    between atoms: N_27  and  C_29
REMARK    9  A    between atoms: C_34  and  C_37
REMARK                            x       y       z     vdW  Elec       q    Type
REMARK                         _______ _______ _______ _____ _____    ______ ____
ROOT
ATOM      1  N   UNL     1      31.536  -8.697 -20.713  0.00  0.00    -0.261 N 
ATOM      2  N   UNL     1      31.545  -9.209 -22.875  0.00  0.00    -0.388 NA
ATOM      3  C   UNL     1      31.994  -7.624 -21.444  0.00  0.00    +0.079 C 
ATOM      4  C   UNL     1      31.277  -9.629 -21.602  0.00  0.00    +0.184 C 
ATOM      5  C   UNL     1      32.008  -7.921 -22.803  0.00  0.00    +0.146 C 
ATOM      6  C   UNL     1      32.846  -5.758 -23.337  0.00  0.00    +0.039 C 
ATOM      7  C   UNL     1      32.427  -7.017 -23.781  0.00  0.00    +0.034 C 
ATOM      8  C   UNL     1      32.420  -6.355 -21.015  0.00  0.00    -0.004 C 
ATOM      9  C   UNL     1      32.843  -5.431 -21.979  0.00  0.00    +0.058 C 
ATOM     10  C   UNL     1      31.383  -8.755 -19.279  0.00  0.00    +0.120 C 
ENDROOT
BRANCH   6  13
ATOM     11  O   UNL     1      34.521  -4.656 -24.437  0.00  0.00    -0.270 OA
ATOM     12  N   UNL     1      32.322  -4.032 -25.032  0.00  0.00    -0.240 N 
ATOM     13  C   UNL     1      33.294  -4.773 -24.309  0.00  0.00    +0.250 C 
ATOM     14  N   UNL     1      33.830  -3.866 -26.904  0.00  0.00    -0.229 NA
ATOM     15  C   UNL     1      32.621  -3.572 -26.376  0.00  0.00    +0.138 C 
ATOM     16  C   UNL     1      31.639  -2.853 -27.038  0.00  0.00    +0.035 C 
ATOM     17  C   UNL     1      31.915  -2.407 -28.326  0.00  0.00    +0.004 C 
ATOM     18  C   UNL     1      34.063  -3.416 -28.157  0.00  0.00    +0.100 C 
ATOM     19  C   UNL     1      33.148  -2.690 -28.903  0.00  0.00    +0.021 C 
BRANCH  12  20
ATOM     20  C   UNL     1      31.015  -3.726 -24.430  0.00  0.00    +0.112 C 
BRANCH  20  21
ATOM     21  C   UNL     1      31.116  -2.648 -23.359  0.00  0.00    +0.131 C 
BRANCH  21  23
ATOM     22  O   UNL     1      29.479  -1.786 -21.772  0.00  0.00    -0.250 OA
ATOM     23  C   UNL     1      30.013  -2.737 -22.326  0.00  0.00    +0.316 C 
BRANCH  23  24
ATOM     24  O   UNL     1      29.665  -4.027 -22.082  0.00  0.00    -0.480 OA
ATOM     25  H   UNL     1      29.224  -4.526 -22.742  0.00  0.00    +0.295 HD
ENDBRANCH  23  24
ENDBRANCH  21  23
ENDBRANCH  20  21
ENDBRANCH  12  20
ENDBRANCH   6  13
BRANCH   4  26
ATOM     26  C   UNL     1      30.756 -10.963 -21.243  0.00  0.00    +0.164 C 
BRANCH  26  27
ATOM     27  N   UNL     1      31.727 -11.867 -20.639  0.00  0.00    -0.326 N 
ATOM     28  H   UNL     1      31.909 -11.782 -19.674  0.00  0.00    +0.147 HD
BRANCH  27  29
ATOM     29  C   UNL     1      32.404 -12.833 -21.350  0.00  0.00    +0.045 C 
ATOM     30  C   UNL     1      33.148 -13.803 -20.677  0.00  0.00    +0.014 C 
ATOM     31  C   UNL     1      32.348 -12.840 -22.745  0.00  0.00    +0.014 C 
ATOM     32  C   UNL     1      33.835 -14.779 -21.398  0.00  0.00    +0.004 C 
ATOM     33  C   UNL     1      33.035 -13.816 -23.465  0.00  0.00    +0.004 C 
ATOM     34  C   UNL     1      33.779 -14.786 -22.792  0.00  0.00    +0.031 C 
BRANCH  34  37
ATOM     35  N   UNL     1      35.237 -16.793 -22.899  0.00  0.00    -0.343 N 
ATOM     36  N   UNL     1      34.454 -15.799 -24.863  0.00  0.00    -0.285 NA
ATOM     37  C   UNL     1      34.496 -15.804 -23.544  0.00  0.00    +0.117 C 
ATOM     38  H   UNL     1      35.715 -17.474 -23.428  0.00  0.00    +0.144 HD
ATOM     39  H   UNL     1      35.283 -16.813 -21.916  0.00  0.00    +0.144 HD
ATOM     40  H   UNL     1      34.939 -16.487 -25.374  0.00  0.00    +0.188 HD
ENDBRANCH  34  37
ENDBRANCH  27  29
ENDBRANCH  26  27
ENDBRANCH   4  26
TORSDOF 9
ENDMDL
MODEL 8
REMARK VINA RESULT:     -11.3      3.839      7.245
REMARK  Name = 216210
REMARK  9 active torsions:
REMARK  status: ('A' for Active; 'I' for Inactive)
REMARK    1  A    between atoms: C_4  and  C_26
REMARK    2  A    between atoms: C_6  and  C_13
REMARK    3  A    between atoms: N_12  and  C_20
REMARK    4  A    between atoms: C_20  and  C_21
REMARK    5  A    between atoms: C_21  and  C_23
REMARK    6  A    between atoms: C_23  and  O_24
REMARK    7  A    between atoms: C_26  and  N_27
REMARK    8  A    between atoms: N_27  and  C_29
REMARK    9  A    between atoms: C_34  and  C_37
REMARK                            x       y       z     vdW  Elec       q    Type
REMARK                         _______ _______ _______ _____ _____    ______ ____
ROOT
ATOM      1  N   UNL     1      33.324 -14.876 -23.768  0.00  0.00    -0.261 N 
ATOM      2  N   UNL     1      33.549 -14.452 -21.599  0.00  0.00    -0.388 NA
ATOM      3  C   UNL     1      34.015 -15.901 -23.164  0.00  0.00    +0.079 C 
ATOM      4  C   UNL     1      33.061 -14.026 -22.802  0.00  0.00    +0.184 C 
ATOM      5  C   UNL     1      34.169 -15.658 -21.802  0.00  0.00    +0.146 C 
ATOM      6  C   UNL     1      35.356 -17.700 -21.503  0.00  0.00    +0.039 C 
ATOM      7  C   UNL     1      34.832 -16.531 -20.938  0.00  0.00    +0.034 C 
ATOM      8  C   UNL     1      34.548 -17.079 -23.715  0.00  0.00    -0.004 C 
ATOM      9  C   UNL     1      35.217 -17.971 -22.866  0.00  0.00    +0.058 C 
ATOM     10  C   UNL     1      32.975 -14.783 -25.166  0.00  0.00    +0.120 C 
ENDROOT
BRANCH   6  13
ATOM     11  O   UNL     1      37.239 -18.376 -20.395  0.00  0.00    -0.270 OA
ATOM     12  N   UNL     1      35.362 -19.794 -20.182  0.00  0.00    -0.240 N 
ATOM     13  C   UNL     1      36.057 -18.649 -20.653  0.00  0.00    +0.250 C 
ATOM     14  N   UNL     1      36.716 -19.809 -18.190  0.00  0.00    -0.229 NA
ATOM     15  C   UNL     1      35.719 -20.379 -18.903  0.00  0.00    +0.138 C 
ATOM     16  C   UNL     1      35.010 -21.495 -18.491  0.00  0.00    +0.035 C 
ATOM     17  C   UNL     1      35.345 -22.063 -17.266  0.00  0.00    +0.004 C 
ATOM     18  C   UNL     1      37.015 -20.389 -17.006  0.00  0.00    +0.100 C 
ATOM     19  C   UNL     1      36.365 -21.505 -16.504  0.00  0.00    +0.021 C 
BRANCH  12  20
ATOM     20  C   UNL     1      34.281 -20.393 -20.982  0.00  0.00    +0.112 C 
BRANCH  20  21
ATOM     21  C   UNL     1      32.913 -19.851 -20.589  0.00  0.00    +0.131 C 
BRANCH  21  23
ATOM     22  O   UNL     1      31.435 -20.386 -18.725  0.00  0.00    -0.250 OA
ATOM     23  C   UNL     1      32.172 -20.757 -19.628  0.00  0.00    +0.316 C 
BRANCH  23  24
ATOM     24  O   UNL     1      32.418 -22.067 -19.894  0.00  0.00    -0.480 OA
ATOM     25  H   UNL     1      33.092 -22.521 -19.427  0.00  0.00    +0.295 HD
ENDBRANCH  23  24
ENDBRANCH  21  23
ENDBRANCH  20  21
ENDBRANCH  12  20
ENDBRANCH   6  13
BRANCH   4  26
ATOM     26  C   UNL     1      32.321 -12.765 -23.015  0.00  0.00    +0.164 C 
BRANCH  26  27
ATOM     27  N   UNL     1      31.613 -12.257 -21.847  0.00  0.00    -0.326 N 
ATOM     28  H   UNL     1      31.128 -12.897 -21.277  0.00  0.00    +0.147 HD
BRANCH  27  29
ATOM     29  C   UNL     1      31.588 -10.923 -21.501  0.00  0.00    +0.045 C 
ATOM     30  C   UNL     1      31.932  -9.951 -22.440  0.00  0.00    +0.014 C 
ATOM     31  C   UNL     1      31.220 -10.545 -20.208  0.00  0.00    +0.014 C 
ATOM     32  C   UNL     1      31.909  -8.602 -22.089  0.00  0.00    +0.004 C 
ATOM     33  C   UNL     1      31.197  -9.196 -19.858  0.00  0.00    +0.004 C 
ATOM     34  C   UNL     1      31.541  -8.224 -20.797  0.00  0.00    +0.031 C 
BRANCH  34  37
ATOM     35  N   UNL     1      30.723  -5.902 -21.121  0.00  0.00    -0.343 N 
ATOM     36  N   UNL     1      32.261  -6.385 -19.429  0.00  0.00    -0.285 NA
ATOM     37  C   UNL     1      31.517  -6.816 -20.431  0.00  0.00    +0.117 C 
ATOM     38  H   UNL     1      30.721  -4.953 -20.856  0.00  0.00    +0.144 HD
ATOM     39  H   UNL     1      30.163  -6.203 -21.872  0.00  0.00    +0.144 HD
ATOM     40  H   UNL     1      32.246  -5.433 -19.179  0.00  0.00    +0.188 HD
ENDBRANCH  34  37
ENDBRANCH  27  29
ENDBRANCH  26  27
ENDBRANCH   4  26
TORSDOF 9
ENDMDL
MODEL 9
REMARK VINA RESULT:     -10.9      8.732     16.472
REMARK  Name = 216210
REMARK  9 active torsions:
REMARK  status: ('A' for Active; 'I' for Inactive)
REMARK    1  A    between atoms: C_4  and  C_26
REMARK    2  A    between atoms: C_6  and  C_13
REMARK    3  A    between atoms: N_12  and  C_20
REMARK    4  A    between atoms: C_20  and  C_21
REMARK    5  A    between atoms: C_21  and  C_23
REMARK    6  A    between atoms: C_23  and  O_24
REMARK    7  A    between atoms: C_26  and  N_27
REMARK    8  A    between atoms: N_27  and  C_29
REMARK    9  A    between atoms: C_34  and  C_37
REMARK                            x       y       z     vdW  Elec       q    Type
REMARK                         _______ _______ _______ _____ _____    ______ ____
ROOT
ATOM      1  N   UNL     1      31.633 -10.720 -21.767  0.00  0.00    -0.261 N 
ATOM      2  N   UNL     1      32.934 -10.687 -23.568  0.00  0.00    -0.388 NA
ATOM      3  C   UNL     1      31.960  -9.420 -22.081  0.00  0.00    +0.079 C 
ATOM      4  C   UNL     1      32.234 -11.452 -22.677  0.00  0.00    +0.184 C 
ATOM      5  C   UNL     1      32.775  -9.374 -23.208  0.00  0.00    +0.146 C 
ATOM      6  C   UNL     1      32.890  -6.999 -23.112  0.00  0.00    +0.039 C 
ATOM      7  C   UNL     1      33.261  -8.185 -23.755  0.00  0.00    +0.034 C 
ATOM      8  C   UNL     1      31.597  -8.219 -21.448  0.00  0.00    -0.004 C 
ATOM      9  C   UNL     1      32.072  -7.014 -21.979  0.00  0.00    +0.058 C 
ATOM     10  C   UNL     1      30.805 -11.154 -20.668  0.00  0.00    +0.120 C 
ENDROOT
BRANCH   6  13
ATOM     11  O   UNL     1      34.470  -5.350 -23.222  0.00  0.00    -0.270 OA
ATOM     12  N   UNL     1      32.554  -5.020 -24.563  0.00  0.00    -0.240 N 
ATOM     13  C   UNL     1      33.364  -5.727 -23.635  0.00  0.00    +0.250 C 
ATOM     14  N   UNL     1      34.525  -4.088 -25.586  0.00  0.00    -0.229 NA
ATOM     15  C   UNL     1      33.177  -4.177 -25.567  0.00  0.00    +0.138 C 
ATOM     16  C   UNL     1      32.342  -3.510 -26.448  0.00  0.00    +0.035 C 
ATOM     17  C   UNL     1      32.928  -2.699 -27.413  0.00  0.00    +0.004 C 
ATOM     18  C   UNL     1      35.061  -3.289 -26.537  0.00  0.00    +0.100 C 
ATOM     19  C   UNL     1      34.313  -2.581 -27.465  0.00  0.00    +0.021 C 
BRANCH  12  20
ATOM     20  C   UNL     1      31.088  -5.138 -24.516  0.00  0.00    +0.112 C 
BRANCH  20  21
ATOM     21  C   UNL     1      30.439  -3.927 -23.859  0.00  0.00    +0.131 C 
BRANCH  21  23
ATOM     22  O   UNL     1      29.336  -4.605 -21.793  0.00  0.00    -0.250 OA
ATOM     23  C   UNL     1      30.284  -4.081 -22.360  0.00  0.00    +0.316 C 
BRANCH  23  24
ATOM     24  O   UNL     1      31.351  -3.563 -21.697  0.00  0.00    -0.480 OA
ATOM     25  H   UNL     1      31.268  -3.316 -20.797  0.00  0.00    +0.295 HD
ENDBRANCH  23  24
ENDBRANCH  21  23
ENDBRANCH  20  21
ENDBRANCH  12  20
ENDBRANCH   6  13
BRANCH   4  26
ATOM     26  C   UNL     1      32.145 -12.926 -22.715  0.00  0.00    +0.164 C 
BRANCH  26  27
ATOM     27  N   UNL     1      33.313 -13.604 -23.264  0.00  0.00    -0.326 N 
ATOM     28  H   UNL     1      33.752 -13.213 -24.054  0.00  0.00    +0.147 HD
BRANCH  27  29
ATOM     29  C   UNL     1      33.831 -14.765 -22.734  0.00  0.00    +0.045 C 
ATOM     30  C   UNL     1      33.959 -14.906 -21.352  0.00  0.00    +0.014 C 
ATOM     31  C   UNL     1      34.230 -15.801 -23.580  0.00  0.00    +0.014 C 
ATOM     32  C   UNL     1      34.486 -16.080 -20.816  0.00  0.00    +0.004 C 
ATOM     33  C   UNL     1      34.756 -16.976 -23.044  0.00  0.00    +0.004 C 
ATOM     34  C   UNL     1      34.884 -17.116 -21.662  0.00  0.00    +0.031 C 
BRANCH  34  37
ATOM     35  N   UNL     1      34.727 -19.542 -21.158  0.00  0.00    -0.343 N 
ATOM     36  N   UNL     1      36.620 -18.327 -20.526  0.00  0.00    -0.285 NA
ATOM     37  C   UNL     1      35.433 -18.341 -21.103  0.00  0.00    +0.117 C 
ATOM     38  H   UNL     1      35.118 -20.360 -20.773  0.00  0.00    +0.144 HD
ATOM     39  H   UNL     1      33.839 -19.573 -21.581  0.00  0.00    +0.144 HD
ATOM     40  H   UNL     1      36.994 -19.155 -20.146  0.00  0.00    +0.188 HD
ENDBRANCH  34  37
ENDBRANCH  27  29
ENDBRANCH  26  27
ENDBRANCH   4  26
TORSDOF 9
ENDMDL
