MODEL 1
REMARK VINA RESULT:     -13.0      0.000      0.000
REMARK  Name = 60854
REMARK  3 active torsions:
REMARK  status: ('A' for Active; 'I' for Inactive)
REMARK    1  A    between atoms: N_2  and  C_17
REMARK    2  A    between atoms: C_17  and  C_18
REMARK    3  A    between atoms: C_18  and  C_22
REMARK                            x       y       z     vdW  Elec       q    Type
REMARK                         _______ _______ _______ _____ _____    ______ ____
ROOT
ATOM      1  S   UNL     1      33.271 -15.274 -25.090  0.00  0.00    +0.014 S 
ATOM      2  N   UNL     1      35.733 -19.834 -21.009  0.00  0.00    +0.389 N 
ATOM      3  N   UNL     1      34.605 -17.622 -22.421  0.00  0.00    -0.297 N 
ATOM      4  N   UNL     1      33.818 -16.725 -24.509  0.00  0.00    -0.194 NA
ATOM      5  C   UNL     1      36.032 -18.458 -20.595  0.00  0.00    -0.055 C 
ATOM      6  C   UNL     1      34.365 -19.910 -21.537  0.00  0.00    -0.055 C 
ATOM      7  C   UNL     1      35.916 -17.491 -21.776  0.00  0.00    +0.069 C 
ATOM      8  C   UNL     1      34.194 -18.993 -22.750  0.00  0.00    +0.069 C 
ATOM      9  C   UNL     1      34.115 -16.580 -23.216  0.00  0.00    +0.140 A 
ATOM     10  C   UNL     1      33.911 -15.278 -22.640  0.00  0.00    +0.040 A 
ATOM     11  C   UNL     1      33.420 -14.405 -23.612  0.00  0.00    +0.050 A 
ATOM     12  C   UNL     1      34.117 -14.783 -21.333  0.00  0.00    +0.003 C 
ATOM     13  C   UNL     1      33.128 -13.061 -23.332  0.00  0.00    +0.008 C 
ATOM     14  C   UNL     1      33.829 -13.446 -21.044  0.00  0.00    +0.000 C 
ATOM     15  C   UNL     1      33.341 -12.597 -22.032  0.00  0.00    +0.001 C 
ATOM     16  H   UNL     1      36.386 -20.107 -21.744  0.00  0.00    -0.080 HD
ENDROOT
BRANCH   2  17
ATOM     17  C   UNL     1      35.900 -20.755 -19.885  0.00  0.00    -0.072 C 
BRANCH  17  18
ATOM     18  C   UNL     1      34.570 -20.991 -19.168  0.00  0.00    +0.004 C 
BRANCH  18  22
ATOM     19 CL   UNL     1      32.089 -22.159 -17.775  0.00  0.00    -0.083 Cl
ATOM     20  O   UNL     1      37.697 -23.586 -13.114  0.00  0.00    -0.274 OA
ATOM     21  N   UNL     1      35.621 -23.392 -14.201  0.00  0.00    -0.284 N 
ATOM     22  C   UNL     1      34.773 -21.653 -17.828  0.00  0.00    -0.014 C 
ATOM     23  C   UNL     1      36.255 -22.295 -16.090  0.00  0.00    +0.000 C 
ATOM     24  C   UNL     1      36.069 -21.688 -17.317  0.00  0.00    -0.006 C 
ATOM     25  C   UNL     1      35.178 -22.846 -15.401  0.00  0.00    +0.048 C 
ATOM     26  C   UNL     1      33.691 -22.209 -17.132  0.00  0.00    +0.055 C 
ATOM     27  C   UNL     1      37.507 -22.485 -15.295  0.00  0.00    +0.113 C 
ATOM     28  C   UNL     1      33.889 -22.820 -15.892  0.00  0.00    +0.025 C 
ATOM     29  C   UNL     1      37.002 -23.223 -14.051  0.00  0.00    +0.231 C 
ATOM     30  H   UNL     1      35.040 -23.837 -13.544  0.00  0.00    +0.155 HD
ENDBRANCH  18  22
ENDBRANCH  17  18
ENDBRANCH   2  17
TORSDOF 3
ENDMDL
MODEL 2
REMARK VINA RESULT:     -12.6      4.600      9.927
REMARK  Name = 60854
REMARK  3 active torsions:
REMARK  status: ('A' for Active; 'I' for Inactive)
REMARK    1  A    between atoms: N_2  and  C_17
REMARK    2  A    between atoms: C_17  and  C_18
REMARK    3  A    between atoms: C_18  and  C_22
REMARK                            x       y       z     vdW  Elec       q    Type
REMARK                         _______ _______ _______ _____ _____    ______ ____
ROOT
ATOM      1  S   UNL     1      35.038 -24.295 -14.271  0.00  0.00    +0.014 S 
ATOM      2  N   UNL     1      34.071 -20.974 -19.887  0.00  0.00    +0.389 N 
ATOM      3  N   UNL     1      34.122 -22.229 -17.321  0.00  0.00    -0.297 N 
ATOM      4  N   UNL     1      35.317 -23.599 -15.747  0.00  0.00    -0.194 NA
ATOM      5  C   UNL     1      32.826 -21.439 -19.262  0.00  0.00    -0.055 C 
ATOM      6  C   UNL     1      35.005 -20.512 -18.853  0.00  0.00    -0.055 C 
ATOM      7  C   UNL     1      33.094 -22.599 -18.300  0.00  0.00    +0.069 C 
ATOM      8  C   UNL     1      35.347 -21.642 -17.879  0.00  0.00    +0.069 C 
ATOM      9  C   UNL     1      34.220 -22.934 -16.117  0.00  0.00    +0.140 A 
ATOM     10  C   UNL     1      33.102 -22.962 -15.213  0.00  0.00    +0.040 A 
ATOM     11  C   UNL     1      33.427 -23.720 -14.086  0.00  0.00    +0.050 A 
ATOM     12  C   UNL     1      31.817 -22.382 -15.286  0.00  0.00    +0.003 C 
ATOM     13  C   UNL     1      32.522 -23.920 -13.032  0.00  0.00    +0.008 C 
ATOM     14  C   UNL     1      30.908 -22.576 -14.241  0.00  0.00    +0.000 C 
ATOM     15  C   UNL     1      31.258 -23.335 -13.130  0.00  0.00    +0.001 C 
ATOM     16  H   UNL     1      34.495 -21.750 -20.393  0.00  0.00    -0.080 HD
ENDROOT
BRANCH   2  17
ATOM     17  C   UNL     1      33.794 -19.902 -20.843  0.00  0.00    -0.072 C 
BRANCH  17  18
ATOM     18  C   UNL     1      34.991 -18.960 -20.971  0.00  0.00    +0.004 C 
BRANCH  18  22
ATOM     19 CL   UNL     1      34.565 -19.311 -23.998  0.00  0.00    -0.083 Cl
ATOM     20  O   UNL     1      33.481 -12.061 -22.783  0.00  0.00    -0.274 OA
ATOM     21  N   UNL     1      33.714 -14.217 -23.692  0.00  0.00    -0.284 N 
ATOM     22  C   UNL     1      34.644 -17.729 -21.771  0.00  0.00    -0.014 C 
ATOM     23  C   UNL     1      34.225 -15.394 -21.815  0.00  0.00    +0.000 C 
ATOM     24  C   UNL     1      34.542 -16.522 -21.083  0.00  0.00    -0.006 C 
ATOM     25  C   UNL     1      34.017 -15.477 -23.189  0.00  0.00    +0.048 C 
ATOM     26  C   UNL     1      34.436 -17.808 -23.154  0.00  0.00    +0.055 C 
ATOM     27  C   UNL     1      34.047 -13.979 -21.367  0.00  0.00    +0.113 C 
ATOM     28  C   UNL     1      34.115 -16.664 -23.887  0.00  0.00    +0.025 C 
ATOM     29  C   UNL     1      33.709 -13.256 -22.675  0.00  0.00    +0.231 C 
ATOM     30  H   UNL     1      33.528 -14.025 -24.640  0.00  0.00    +0.155 HD
ENDBRANCH  18  22
ENDBRANCH  17  18
ENDBRANCH   2  17
TORSDOF 3
ENDMDL
MODEL 3
REMARK VINA RESULT:     -12.3      1.976      2.644
REMARK  Name = 60854
REMARK  3 active torsions:
REMARK  status: ('A' for Active; 'I' for Inactive)
REMARK    1  A    between atoms: N_2  and  C_17
REMARK    2  A    between atoms: C_17  and  C_18
REMARK    3  A    between atoms: C_18  and  C_22
REMARK                            x       y       z     vdW  Elec       q    Type
REMARK                         _______ _______ _______ _____ _____    ______ ____
ROOT
ATOM      1  S   UNL     1      33.436 -15.425 -25.045  0.00  0.00    +0.014 S 
ATOM      2  N   UNL     1      35.538 -19.864 -20.642  0.00  0.00    +0.389 N 
ATOM      3  N   UNL     1      34.561 -17.685 -22.208  0.00  0.00    -0.297 N 
ATOM      4  N   UNL     1      33.899 -16.864 -24.370  0.00  0.00    -0.194 NA
ATOM      5  C   UNL     1      35.874 -18.481 -20.282  0.00  0.00    -0.055 C 
ATOM      6  C   UNL     1      34.192 -19.914 -21.226  0.00  0.00    -0.055 C 
ATOM      7  C   UNL     1      35.847 -17.571 -21.513  0.00  0.00    +0.069 C 
ATOM      8  C   UNL     1      34.110 -19.054 -22.488  0.00  0.00    +0.069 C 
ATOM      9  C   UNL     1      34.147 -16.666 -23.074  0.00  0.00    +0.140 A 
ATOM     10  C   UNL     1      33.971 -15.330 -22.571  0.00  0.00    +0.040 A 
ATOM     11  C   UNL     1      33.557 -14.489 -23.606  0.00  0.00    +0.050 A 
ATOM     12  C   UNL     1      34.141 -14.778 -21.283  0.00  0.00    +0.003 C 
ATOM     13  C   UNL     1      33.307 -13.123 -23.405  0.00  0.00    +0.008 C 
ATOM     14  C   UNL     1      33.894 -13.418 -21.072  0.00  0.00    +0.000 C 
ATOM     15  C   UNL     1      33.483 -12.603 -22.121  0.00  0.00    +0.001 C 
ATOM     16  H   UNL     1      36.210 -20.197 -21.332  0.00  0.00    -0.080 HD
ENDROOT
BRANCH   2  17
ATOM     17  C   UNL     1      35.620 -20.733 -19.468  0.00  0.00    -0.072 C 
BRANCH  17  18
ATOM     18  C   UNL     1      34.451 -21.716 -19.432  0.00  0.00    +0.004 C 
BRANCH  18  22
ATOM     19 CL   UNL     1      36.657 -21.722 -17.287  0.00  0.00    -0.083 Cl
ATOM     20  O   UNL     1      30.448 -23.450 -13.589  0.00  0.00    -0.274 OA
ATOM     21  N   UNL     1      32.646 -22.952 -14.259  0.00  0.00    -0.284 N 
ATOM     22  C   UNL     1      34.042 -22.039 -18.016  0.00  0.00    -0.014 C 
ATOM     23  C   UNL     1      32.322 -22.608 -16.484  0.00  0.00    +0.000 C 
ATOM     24  C   UNL     1      32.696 -22.312 -17.780  0.00  0.00    -0.006 C 
ATOM     25  C   UNL     1      33.266 -22.629 -15.461  0.00  0.00    +0.048 C 
ATOM     26  C   UNL     1      34.990 -22.062 -16.984  0.00  0.00    +0.055 C 
ATOM     27  C   UNL     1      30.975 -22.939 -15.928  0.00  0.00    +0.113 C 
ATOM     28  C   UNL     1      34.603 -22.362 -15.676  0.00  0.00    +0.025 C 
ATOM     29  C   UNL     1      31.273 -23.155 -14.440  0.00  0.00    +0.231 C 
ATOM     30  H   UNL     1      33.111 -23.027 -13.395  0.00  0.00    +0.155 HD
ENDBRANCH  18  22
ENDBRANCH  17  18
ENDBRANCH   2  17
TORSDOF 3
ENDMDL
MODEL 4
REMARK VINA RESULT:     -12.1      6.198      9.743
REMARK  Name = 60854
REMARK  3 active torsions:
REMARK  status: ('A' for Active; 'I' for Inactive)
REMARK    1  A    between atoms: N_2  and  C_17
REMARK    2  A    between atoms: C_17  and  C_18
REMARK    3  A    between atoms: C_18  and  C_22
REMARK                            x       y       z     vdW  Elec       q    Type
REMARK                         _______ _______ _______ _____ _____    ______ ____
ROOT
ATOM      1  S   UNL     1      30.587  -4.566 -22.366  0.00  0.00    +0.014 S 
ATOM      2  N   UNL     1      31.672 -11.062 -21.988  0.00  0.00    +0.389 N 
ATOM      3  N   UNL     1      31.590  -8.228 -22.339  0.00  0.00    -0.297 N 
ATOM      4  N   UNL     1      30.444  -6.156 -21.924  0.00  0.00    -0.194 NA
ATOM      5  C   UNL     1      32.226 -10.447 -23.201  0.00  0.00    -0.055 C 
ATOM      6  C   UNL     1      31.866 -10.166 -20.841  0.00  0.00    -0.055 C 
ATOM      7  C   UNL     1      31.536  -9.115 -23.506  0.00  0.00    +0.069 C 
ATOM      8  C   UNL     1      31.163  -8.825 -21.068  0.00  0.00    +0.069 C 
ATOM      9  C   UNL     1      31.423  -6.849 -22.507  0.00  0.00    +0.140 A 
ATOM     10  C   UNL     1      32.335  -6.116 -23.343  0.00  0.00    +0.040 A 
ATOM     11  C   UNL     1      31.977  -4.767 -23.361  0.00  0.00    +0.050 A 
ATOM     12  C   UNL     1      33.459  -6.524 -24.095  0.00  0.00    +0.003 C 
ATOM     13  C   UNL     1      32.694  -3.811 -24.097  0.00  0.00    +0.008 C 
ATOM     14  C   UNL     1      34.180  -5.580 -24.833  0.00  0.00    +0.000 C 
ATOM     15  C   UNL     1      33.801  -4.242 -24.833  0.00  0.00    +0.001 C 
ATOM     16  H   UNL     1      30.673 -11.214 -22.123  0.00  0.00    -0.080 HD
ENDROOT
BRANCH   2  17
ATOM     17  C   UNL     1      32.302 -12.358 -21.737  0.00  0.00    -0.072 C 
BRANCH  17  18
ATOM     18  C   UNL     1      33.459 -12.600 -22.706  0.00  0.00    +0.004 C 
BRANCH  18  22
ATOM     19 CL   UNL     1      32.907 -13.783 -25.492  0.00  0.00    -0.083 Cl
ATOM     20  O   UNL     1      35.314 -19.540 -21.459  0.00  0.00    -0.274 OA
ATOM     21  N   UNL     1      34.519 -18.098 -23.137  0.00  0.00    -0.284 N 
ATOM     22  C   UNL     1      33.721 -14.073 -22.900  0.00  0.00    -0.014 C 
ATOM     23  C   UNL     1      34.433 -16.141 -21.981  0.00  0.00    +0.000 C 
ATOM     24  C   UNL     1      34.193 -14.793 -21.804  0.00  0.00    -0.006 C 
ATOM     25  C   UNL     1      34.206 -16.746 -23.214  0.00  0.00    +0.048 C 
ATOM     26  C   UNL     1      33.493 -14.684 -24.140  0.00  0.00    +0.055 C 
ATOM     27  C   UNL     1      34.933 -17.161 -21.009  0.00  0.00    +0.113 C 
ATOM     28  C   UNL     1      33.738 -16.049 -24.310  0.00  0.00    +0.025 C 
ATOM     29  C   UNL     1      34.963 -18.439 -21.855  0.00  0.00    +0.231 C 
ATOM     30  H   UNL     1      34.438 -18.733 -23.885  0.00  0.00    +0.155 HD
ENDBRANCH  18  22
ENDBRANCH  17  18
ENDBRANCH   2  17
TORSDOF 3
ENDMDL
MODEL 5
REMARK VINA RESULT:     -12.1      3.648      5.762
REMARK  Name = 60854
REMARK  3 active torsions:
REMARK  status: ('A' for Active; 'I' for Inactive)
REMARK    1  A    between atoms: N_2  and  C_17
REMARK    2  A    between atoms: C_17  and  C_18
REMARK    3  A    between atoms: C_18  and  C_22
REMARK                            x       y       z     vdW  Elec       q    Type
REMARK                         _______ _______ _______ _____ _____    ______ ____
ROOT
ATOM      1  S   UNL     1      30.323  -9.818 -21.048  0.00  0.00    +0.014 S 
ATOM      2  N   UNL     1      33.860 -15.247 -22.284  0.00  0.00    +0.389 N 
ATOM      3  N   UNL     1      32.657 -12.681 -21.928  0.00  0.00    -0.297 N 
ATOM      4  N   UNL     1      30.851 -11.388 -21.008  0.00  0.00    -0.194 NA
ATOM      5  C   UNL     1      34.003 -14.210 -23.313  0.00  0.00    -0.055 C 
ATOM      6  C   UNL     1      33.813 -14.627 -20.954  0.00  0.00    -0.055 C 
ATOM      7  C   UNL     1      32.825 -13.233 -23.277  0.00  0.00    +0.069 C 
ATOM      8  C   UNL     1      32.628 -13.665 -20.839  0.00  0.00    +0.069 C 
ATOM      9  C   UNL     1      31.954 -11.484 -21.751  0.00  0.00    +0.140 A 
ATOM     10  C   UNL     1      32.421 -10.282 -22.388  0.00  0.00    +0.040 A 
ATOM     11  C   UNL     1      31.570  -9.221 -22.072  0.00  0.00    +0.050 A 
ATOM     12  C   UNL     1      33.529 -10.029 -23.226  0.00  0.00    +0.003 C 
ATOM     13  C   UNL     1      31.782  -7.921 -22.557  0.00  0.00    +0.008 C 
ATOM     14  C   UNL     1      33.749  -8.738 -23.716  0.00  0.00    +0.000 C 
ATOM     15  C   UNL     1      32.886  -7.699 -23.384  0.00  0.00    +0.001 C 
ATOM     16  H   UNL     1      32.988 -15.752 -22.444  0.00  0.00    -0.080 HD
ENDROOT
BRANCH   2  17
ATOM     17  C   UNL     1      34.963 -16.205 -22.364  0.00  0.00    -0.072 C 
BRANCH  17  18
ATOM     18  C   UNL     1      34.468 -17.569 -22.845  0.00  0.00    +0.004 C 
BRANCH  18  22
ATOM     19 CL   UNL     1      37.258 -18.229 -21.728  0.00  0.00    -0.083 Cl
ATOM     20  O   UNL     1      32.626 -22.592 -17.891  0.00  0.00    -0.274 OA
ATOM     21  N   UNL     1      34.477 -21.455 -18.790  0.00  0.00    -0.284 N 
ATOM     22  C   UNL     1      34.552 -18.605 -21.751  0.00  0.00    -0.014 C 
ATOM     23  C   UNL     1      33.436 -20.137 -20.324  0.00  0.00    +0.000 C 
ATOM     24  C   UNL     1      33.360 -19.189 -21.326  0.00  0.00    -0.006 C 
ATOM     25  C   UNL     1      34.665 -20.487 -19.770  0.00  0.00    +0.048 C 
ATOM     26  C   UNL     1      35.787 -18.959 -21.192  0.00  0.00    +0.055 C 
ATOM     27  C   UNL     1      32.350 -20.927 -19.668  0.00  0.00    +0.113 C 
ATOM     28  C   UNL     1      35.854 -19.919 -20.180  0.00  0.00    +0.025 C 
ATOM     29  C   UNL     1      33.123 -21.782 -18.658  0.00  0.00    +0.231 C 
ATOM     30  H   UNL     1      35.202 -21.857 -18.259  0.00  0.00    +0.155 HD
ENDBRANCH  18  22
ENDBRANCH  17  18
ENDBRANCH   2  17
TORSDOF 3
ENDMDL
MODEL 6
REMARK VINA RESULT:     -11.7      6.999     12.062
REMARK  Name = 60854
REMARK  3 active torsions:
REMARK  status: ('A' for Active; 'I' for Inactive)
REMARK    1  A    between atoms: N_2  and  C_17
REMARK    2  A    between atoms: C_17  and  C_18
REMARK    3  A    between atoms: C_18  and  C_22
REMARK                            x       y       z     vdW  Elec       q    Type
REMARK                         _______ _______ _______ _____ _____    ______ ____
ROOT
ATOM      1  S   UNL     1      35.368 -17.945 -20.819  0.00  0.00    +0.014 S 
ATOM      2  N   UNL     1      32.843 -12.034 -22.298  0.00  0.00    +0.389 N 
ATOM      3  N   UNL     1      33.708 -14.739 -21.994  0.00  0.00    -0.297 N 
ATOM      4  N   UNL     1      34.919 -16.357 -20.690  0.00  0.00    -0.194 NA
ATOM      5  C   UNL     1      33.116 -12.863 -23.478  0.00  0.00    -0.055 C 
ATOM      6  C   UNL     1      32.306 -12.868 -21.215  0.00  0.00    -0.055 C 
ATOM      7  C   UNL     1      34.140 -13.956 -23.156  0.00  0.00    +0.069 C 
ATOM      8  C   UNL     1      33.303 -13.959 -20.818  0.00  0.00    +0.069 C 
ATOM      9  C   UNL     1      34.235 -16.019 -21.785  0.00  0.00    +0.140 A 
ATOM     10  C   UNL     1      34.046 -17.039 -22.780  0.00  0.00    +0.040 A 
ATOM     11  C   UNL     1      34.652 -18.224 -22.359  0.00  0.00    +0.050 A 
ATOM     12  C   UNL     1      33.388 -17.027 -24.029  0.00  0.00    +0.003 C 
ATOM     13  C   UNL     1      34.627 -19.395 -23.133  0.00  0.00    +0.008 C 
ATOM     14  C   UNL     1      33.357 -18.188 -24.809  0.00  0.00    +0.000 C 
ATOM     15  C   UNL     1      33.969 -19.355 -24.365  0.00  0.00    +0.001 C 
ATOM     16  H   UNL     1      33.715 -11.608 -21.985  0.00  0.00    -0.080 HD
ENDROOT
BRANCH   2  17
ATOM     17  C   UNL     1      31.905 -10.962 -22.632  0.00  0.00    -0.072 C 
BRANCH  17  18
ATOM     18  C   UNL     1      31.088 -10.548 -21.407  0.00  0.00    +0.004 C 
BRANCH  18  22
ATOM     19 CL   UNL     1      31.433  -9.698 -18.471  0.00  0.00    -0.083 Cl
ATOM     20  O   UNL     1      31.539  -3.325 -22.288  0.00  0.00    -0.274 OA
ATOM     21  N   UNL     1      31.573  -5.006 -20.645  0.00  0.00    -0.284 N 
ATOM     22  C   UNL     1      31.225  -9.073 -21.123  0.00  0.00    -0.014 C 
ATOM     23  C   UNL     1      31.311  -6.851 -21.948  0.00  0.00    +0.000 C 
ATOM     24  C   UNL     1      31.186  -8.202 -22.209  0.00  0.00    -0.006 C 
ATOM     25  C   UNL     1      31.471  -6.392 -20.643  0.00  0.00    +0.048 C 
ATOM     26  C   UNL     1      31.386  -8.609 -19.810  0.00  0.00    +0.055 C 
ATOM     27  C   UNL     1      31.306  -5.689 -22.889  0.00  0.00    +0.113 C 
ATOM     28  C   UNL     1      31.512  -7.241 -19.556  0.00  0.00    +0.025 C 
ATOM     29  C   UNL     1      31.486  -4.496 -21.945  0.00  0.00    +0.231 C 
ATOM     30  H   UNL     1      31.691  -4.455 -19.837  0.00  0.00    +0.155 HD
ENDBRANCH  18  22
ENDBRANCH  17  18
ENDBRANCH   2  17
TORSDOF 3
ENDMDL
MODEL 7
REMARK VINA RESULT:     -11.5      4.413     10.116
REMARK  Name = 60854
REMARK  3 active torsions:
REMARK  status: ('A' for Active; 'I' for Inactive)
REMARK    1  A    between atoms: N_2  and  C_17
REMARK    2  A    between atoms: C_17  and  C_18
REMARK    3  A    between atoms: C_18  and  C_22
REMARK                            x       y       z     vdW  Elec       q    Type
REMARK                         _______ _______ _______ _____ _____    ______ ____
ROOT
ATOM      1  S   UNL     1      35.138 -23.898 -12.963  0.00  0.00    +0.014 S 
ATOM      2  N   UNL     1      34.708 -20.817 -18.780  0.00  0.00    +0.389 N 
ATOM      3  N   UNL     1      35.278 -22.291 -16.400  0.00  0.00    -0.297 N 
ATOM      4  N   UNL     1      34.511 -23.092 -14.267  0.00  0.00    -0.194 NA
ATOM      5  C   UNL     1      36.074 -20.861 -18.242  0.00  0.00    -0.055 C 
ATOM      6  C   UNL     1      34.026 -22.089 -18.514  0.00  0.00    -0.055 C 
ATOM      7  C   UNL     1      36.061 -21.095 -16.729  0.00  0.00    +0.069 C 
ATOM      8  C   UNL     1      33.944 -22.363 -17.010  0.00  0.00    +0.069 C 
ATOM      9  C   UNL     1      35.477 -22.935 -15.174  0.00  0.00    +0.140 A 
ATOM     10  C   UNL     1      36.773 -23.464 -14.848  0.00  0.00    +0.040 A 
ATOM     11  C   UNL     1      36.734 -24.058 -13.585  0.00  0.00    +0.050 A 
ATOM     12  C   UNL     1      37.993 -23.474 -15.558  0.00  0.00    +0.003 C 
ATOM     13  C   UNL     1      37.862 -24.660 -13.006  0.00  0.00    +0.008 C 
ATOM     14  C   UNL     1      39.123 -24.071 -14.990  0.00  0.00    +0.000 C 
ATOM     15  C   UNL     1      39.056 -24.656 -13.731  0.00  0.00    +0.001 C 
ATOM     16  H   UNL     1      34.197 -20.065 -18.318  0.00  0.00    -0.080 HD
ENDROOT
BRANCH   2  17
ATOM     17  C   UNL     1      34.732 -20.539 -20.216  0.00  0.00    -0.072 C 
BRANCH  17  18
ATOM     18  C   UNL     1      35.780 -19.477 -20.550  0.00  0.00    +0.004 C 
BRANCH  18  22
ATOM     19 CL   UNL     1      35.148 -20.070 -23.502  0.00  0.00    -0.083 Cl
ATOM     20  O   UNL     1      33.144 -12.979 -22.546  0.00  0.00    -0.274 OA
ATOM     21  N   UNL     1      33.604 -15.134 -23.367  0.00  0.00    -0.284 N 
ATOM     22  C   UNL     1      35.192 -18.358 -21.373  0.00  0.00    -0.014 C 
ATOM     23  C   UNL     1      34.439 -16.111 -21.491  0.00  0.00    +0.000 C 
ATOM     24  C   UNL     1      34.978 -17.136 -20.738  0.00  0.00    -0.006 C 
ATOM     25  C   UNL     1      34.127 -16.307 -22.834  0.00  0.00    +0.048 C 
ATOM     26  C   UNL     1      34.878 -18.551 -22.725  0.00  0.00    +0.055 C 
ATOM     27  C   UNL     1      34.100 -14.709 -21.098  0.00  0.00    +0.113 C 
ATOM     28  C   UNL     1      34.333 -17.509 -23.478  0.00  0.00    +0.025 C 
ATOM     29  C   UNL     1      33.549 -14.122 -22.402  0.00  0.00    +0.231 C 
ATOM     30  H   UNL     1      33.310 -15.029 -24.301  0.00  0.00    +0.155 HD
ENDBRANCH  18  22
ENDBRANCH  17  18
ENDBRANCH   2  17
TORSDOF 3
ENDMDL
MODEL 8
REMARK VINA RESULT:     -11.2      3.799      5.956
REMARK  Name = 60854
REMARK  3 active torsions:
REMARK  status: ('A' for Active; 'I' for Inactive)
REMARK    1  A    between atoms: N_2  and  C_17
REMARK    2  A    between atoms: C_17  and  C_18
REMARK    3  A    between atoms: C_18  and  C_22
REMARK                            x       y       z     vdW  Elec       q    Type
REMARK                         _______ _______ _______ _____ _____    ______ ____
ROOT
ATOM      1  S   UNL     1      32.086  -8.708 -23.323  0.00  0.00    +0.014 S 
ATOM      2  N   UNL     1      33.800 -15.074 -23.506  0.00  0.00    +0.389 N 
ATOM      3  N   UNL     1      32.866 -12.414 -23.052  0.00  0.00    -0.297 N 
ATOM      4  N   UNL     1      32.616 -10.172 -23.886  0.00  0.00    -0.194 NA
ATOM      5  C   UNL     1      33.792 -14.511 -22.151  0.00  0.00    -0.055 C 
ATOM      6  C   UNL     1      32.666 -14.545 -24.274  0.00  0.00    -0.055 C 
ATOM      7  C   UNL     1      33.905 -12.985 -22.189  0.00  0.00    +0.069 C 
ATOM      8  C   UNL     1      32.743 -13.020 -24.384  0.00  0.00    +0.069 C 
ATOM      9  C   UNL     1      32.503 -11.070 -22.906  0.00  0.00    +0.140 A 
ATOM     10  C   UNL     1      31.980 -10.606 -21.650  0.00  0.00    +0.040 A 
ATOM     11  C   UNL     1      31.688  -9.243 -21.737  0.00  0.00    +0.050 A 
ATOM     12  C   UNL     1      31.733 -11.269 -20.429  0.00  0.00    +0.003 C 
ATOM     13  C   UNL     1      31.162  -8.519 -20.656  0.00  0.00    +0.008 C 
ATOM     14  C   UNL     1      31.208 -10.558 -19.345  0.00  0.00    +0.000 C 
ATOM     15  C   UNL     1      30.927  -9.201 -19.459  0.00  0.00    +0.001 C 
ATOM     16  H   UNL     1      34.667 -14.804 -23.970  0.00  0.00    -0.080 HD
ENDROOT
BRANCH   2  17
ATOM     17  C   UNL     1      33.746 -16.536 -23.454  0.00  0.00    -0.072 C 
BRANCH  17  18
ATOM     18  C   UNL     1      35.098 -17.118 -23.044  0.00  0.00    +0.004 C 
BRANCH  18  22
ATOM     19 CL   UNL     1      37.664 -18.200 -21.735  0.00  0.00    -0.083 Cl
ATOM     20  O   UNL     1      32.164 -21.993 -18.485  0.00  0.00    -0.274 OA
ATOM     21  N   UNL     1      34.224 -21.098 -19.180  0.00  0.00    -0.284 N 
ATOM     22  C   UNL     1      34.944 -18.191 -21.995  0.00  0.00    -0.014 C 
ATOM     23  C   UNL     1      33.510 -19.598 -20.733  0.00  0.00    +0.000 C 
ATOM     24  C   UNL     1      33.652 -18.616 -21.694  0.00  0.00    -0.006 C 
ATOM     25  C   UNL     1      34.627 -20.134 -20.097  0.00  0.00    +0.048 C 
ATOM     26  C   UNL     1      36.066 -18.734 -21.354  0.00  0.00    +0.055 C 
ATOM     27  C   UNL     1      32.273 -20.249 -20.203  0.00  0.00    +0.113 C 
ATOM     28  C   UNL     1      35.913 -19.726 -20.383  0.00  0.00    +0.025 C 
ATOM     29  C   UNL     1      32.831 -21.236 -19.173  0.00  0.00    +0.231 C 
ATOM     30  H   UNL     1      34.837 -21.616 -18.610  0.00  0.00    +0.155 HD
ENDBRANCH  18  22
ENDBRANCH  17  18
ENDBRANCH   2  17
TORSDOF 3
ENDMDL
MODEL 9
REMARK VINA RESULT:     -11.1      4.690      9.672
REMARK  Name = 60854
REMARK  3 active torsions:
REMARK  status: ('A' for Active; 'I' for Inactive)
REMARK    1  A    between atoms: N_2  and  C_17
REMARK    2  A    between atoms: C_17  and  C_18
REMARK    3  A    between atoms: C_18  and  C_22
REMARK                            x       y       z     vdW  Elec       q    Type
REMARK                         _______ _______ _______ _____ _____    ______ ____
ROOT
ATOM      1  S   UNL     1      36.296 -21.265 -18.145  0.00  0.00    +0.014 S 
ATOM      2  N   UNL     1      34.439 -17.463 -23.205  0.00  0.00    +0.389 N 
ATOM      3  N   UNL     1      34.822 -19.141 -20.925  0.00  0.00    -0.297 N 
ATOM      4  N   UNL     1      36.359 -20.189 -19.401  0.00  0.00    -0.194 NA
ATOM      5  C   UNL     1      33.500 -18.556 -22.920  0.00  0.00    -0.055 C 
ATOM      6  C   UNL     1      34.947 -16.903 -21.947  0.00  0.00    -0.055 C 
ATOM      7  C   UNL     1      34.184 -19.677 -22.132  0.00  0.00    +0.069 C 
ATOM      8  C   UNL     1      35.680 -17.968 -21.128  0.00  0.00    +0.069 C 
ATOM      9  C   UNL     1      35.120 -19.999 -19.860  0.00  0.00    +0.140 A 
ATOM     10  C   UNL     1      34.063 -20.722 -19.209  0.00  0.00    +0.040 A 
ATOM     11  C   UNL     1      34.593 -21.508 -18.183  0.00  0.00    +0.050 A 
ATOM     12  C   UNL     1      32.669 -20.758 -19.431  0.00  0.00    +0.003 C 
ATOM     13  C   UNL     1      33.788 -22.324 -17.373  0.00  0.00    +0.008 C 
ATOM     14  C   UNL     1      31.858 -21.569 -18.631  0.00  0.00    +0.000 C 
ATOM     15  C   UNL     1      32.412 -22.341 -17.615  0.00  0.00    +0.001 C 
ATOM     16  H   UNL     1      35.223 -17.834 -23.742  0.00  0.00    -0.080 HD
ENDROOT
BRANCH   2  17
ATOM     17  C   UNL     1      33.789 -16.424 -24.004  0.00  0.00    -0.072 C 
BRANCH  17  18
ATOM     18  C   UNL     1      34.561 -15.108 -23.921  0.00  0.00    +0.004 C 
BRANCH  18  22
ATOM     19 CL   UNL     1      33.191 -13.407 -26.089  0.00  0.00    -0.083 Cl
ATOM     20  O   UNL     1      30.941 -10.422 -19.667  0.00  0.00    -0.274 OA
ATOM     21  N   UNL     1      31.335 -10.969 -21.920  0.00  0.00    -0.284 N 
ATOM     22  C   UNL     1      33.677 -13.976 -23.460  0.00  0.00    -0.014 C 
ATOM     23  C   UNL     1      32.735 -12.744 -21.665  0.00  0.00    +0.000 C 
ATOM     24  C   UNL     1      33.544 -13.781 -22.087  0.00  0.00    -0.006 C 
ATOM     25  C   UNL     1      32.082 -11.932 -22.589  0.00  0.00    +0.048 C 
ATOM     26  C   UNL     1      33.019 -13.156 -24.388  0.00  0.00    +0.055 C 
ATOM     27  C   UNL     1      32.401 -12.293 -20.279  0.00  0.00    +0.113 C 
ATOM     28  C   UNL     1      32.203 -12.111 -23.952  0.00  0.00    +0.025 C 
ATOM     29  C   UNL     1      31.465 -11.106 -20.533  0.00  0.00    +0.231 C 
ATOM     30  H   UNL     1      30.788 -10.281 -22.362  0.00  0.00    +0.155 HD
ENDBRANCH  18  22
ENDBRANCH  17  18
ENDBRANCH   2  17
TORSDOF 3
ENDMDL
