MODEL 1
REMARK VINA RESULT:     -10.1      0.000      0.000
REMARK  Name = 11602832
REMARK  4 active torsions:
REMARK  status: ('A' for Active; 'I' for Inactive)
REMARK    1  A    between atoms: C_8  and  C_24
REMARK    2  A    between atoms: C_10  and  C_18
REMARK    3  A    between atoms: C_24  and  C_25
REMARK    4  A    between atoms: C_25  and  O_26
REMARK                            x       y       z     vdW  Elec       q    Type
REMARK                         _______ _______ _______ _____ _____    ______ ____
ROOT
ATOM      1  O   UNL     1      31.899 -21.917 -18.096  0.00  0.00    -0.270 OA
ATOM      2  O   UNL     1      36.074 -22.557 -16.255  0.00  0.00    -0.270 OA
ATOM      3  N   UNL     1      30.369 -23.933 -13.532  0.00  0.00    -0.284 N 
ATOM      4  N   UNL     1      34.148 -22.094 -17.495  0.00  0.00    -0.248 N 
ATOM      5  C   UNL     1      31.451 -23.129 -15.309  0.00  0.00    +0.016 C 
ATOM      6  C   UNL     1      31.628 -23.672 -14.028  0.00  0.00    +0.051 C 
ATOM      7  C   UNL     1      32.615 -22.791 -15.996  0.00  0.00    +0.059 C 
ATOM      8  C   UNL     1      30.056 -23.074 -15.558  0.00  0.00    -0.003 C 
ATOM      9  C   UNL     1      33.872 -22.986 -15.436  0.00  0.00    +0.058 C 
ATOM     10  C   UNL     1      34.043 -23.521 -14.177  0.00  0.00    +0.007 C 
ATOM     11  C   UNL     1      32.899 -23.876 -13.447  0.00  0.00    +0.015 C 
ATOM     12  C   UNL     1      29.416 -23.574 -14.447  0.00  0.00    +0.061 C 
ATOM     13  C   UNL     1      32.789 -22.216 -17.325  0.00  0.00    +0.252 C 
ATOM     14  C   UNL     1      34.867 -22.535 -16.408  0.00  0.00    +0.252 C 
ATOM     15  C   UNL     1      30.080 -24.500 -12.232  0.00  0.00    +0.117 C 
ATOM     16  H   UNL     1      34.564 -21.730 -18.310  0.00  0.00    +0.158 HD
ENDROOT
BRANCH  10  18
ATOM     17 CL   UNL     1      35.636 -26.003 -15.082  0.00  0.00    -0.082 Cl
ATOM     18  C   UNL     1      35.349 -23.726 -13.591  0.00  0.00    +0.011 C 
ATOM     19  C   UNL     1      36.150 -24.818 -13.933  0.00  0.00    +0.058 C 
ATOM     20  C   UNL     1      35.810 -22.795 -12.656  0.00  0.00    +0.001 C 
ATOM     21  C   UNL     1      37.404 -24.978 -13.344  0.00  0.00    +0.011 C 
ATOM     22  C   UNL     1      37.063 -22.955 -12.068  0.00  0.00    +0.000 C 
ATOM     23  C   UNL     1      37.861 -24.046 -12.411  0.00  0.00    +0.001 C 
ENDBRANCH  10  18
BRANCH   8  24
ATOM     24  C   UNL     1      29.374 -22.580 -16.770  0.00  0.00    +0.059 C 
BRANCH  24  25
ATOM     25  C   UNL     1      27.858 -22.394 -16.588  0.00  0.00    +0.142 C 
BRANCH  25  26
ATOM     26  O   UNL     1      27.169 -23.158 -17.570  0.00  0.00    -0.382 OA
ATOM     27  H   UNL     1      26.254 -22.844 -17.639  0.00  0.00    +0.210 HD
ENDBRANCH  25  26
ENDBRANCH  24  25
ENDBRANCH   8  24
TORSDOF 4
ENDMDL
MODEL 2
REMARK VINA RESULT:      -9.9      2.313      3.150
REMARK  Name = 11602832
REMARK  4 active torsions:
REMARK  status: ('A' for Active; 'I' for Inactive)
REMARK    1  A    between atoms: C_8  and  C_24
REMARK    2  A    between atoms: C_10  and  C_18
REMARK    3  A    between atoms: C_24  and  C_25
REMARK    4  A    between atoms: C_25  and  O_26
REMARK                            x       y       z     vdW  Elec       q    Type
REMARK                         _______ _______ _______ _____ _____    ______ ____
ROOT
ATOM      1  O   UNL     1      36.072 -21.194 -18.497  0.00  0.00    -0.270 OA
ATOM      2  O   UNL     1      37.990 -22.827 -14.640  0.00  0.00    -0.270 OA
ATOM      3  N   UNL     1      31.717 -22.947 -16.216  0.00  0.00    -0.284 N 
ATOM      4  N   UNL     1      37.378 -21.899 -16.694  0.00  0.00    -0.248 N 
ATOM      5  C   UNL     1      33.786 -22.358 -16.806  0.00  0.00    +0.016 C 
ATOM      6  C   UNL     1      33.028 -22.966 -15.794  0.00  0.00    +0.051 C 
ATOM      7  C   UNL     1      35.158 -22.273 -16.577  0.00  0.00    +0.059 C 
ATOM      8  C   UNL     1      32.890 -21.978 -17.837  0.00  0.00    -0.003 C 
ATOM      9  C   UNL     1      35.731 -22.767 -15.412  0.00  0.00    +0.058 C 
ATOM     10  C   UNL     1      34.985 -23.365 -14.419  0.00  0.00    +0.007 C 
ATOM     11  C   UNL     1      33.599 -23.472 -14.605  0.00  0.00    +0.015 C 
ATOM     12  C   UNL     1      31.624 -22.352 -17.446  0.00  0.00    +0.061 C 
ATOM     13  C   UNL     1      36.217 -21.712 -17.408  0.00  0.00    +0.252 C 
ATOM     14  C   UNL     1      37.171 -22.526 -15.487  0.00  0.00    +0.252 C 
ATOM     15  C   UNL     1      30.590 -23.472 -15.477  0.00  0.00    +0.117 C 
ATOM     16  H   UNL     1      38.265 -21.615 -17.015  0.00  0.00    +0.158 HD
ENDROOT
BRANCH  10  18
ATOM     17 CL   UNL     1      36.334 -26.136 -14.559  0.00  0.00    -0.082 Cl
ATOM     18  C   UNL     1      35.578 -23.881 -13.205  0.00  0.00    +0.011 C 
ATOM     19  C   UNL     1      36.213 -25.125 -13.162  0.00  0.00    +0.058 C 
ATOM     20  C   UNL     1      35.506 -23.101 -12.049  0.00  0.00    +0.001 C 
ATOM     21  C   UNL     1      36.772 -25.584 -11.970  0.00  0.00    +0.011 C 
ATOM     22  C   UNL     1      36.065 -23.560 -10.857  0.00  0.00    +0.000 C 
ATOM     23  C   UNL     1      36.698 -24.802 -10.817  0.00  0.00    +0.001 C 
ENDBRANCH  10  18
BRANCH   8  24
ATOM     24  C   UNL     1      33.211 -21.304 -19.111  0.00  0.00    +0.059 C 
BRANCH  24  25
ATOM     25  C   UNL     1      32.091 -20.379 -19.615  0.00  0.00    +0.142 C 
BRANCH  25  26
ATOM     26  O   UNL     1      32.474 -19.810 -20.861  0.00  0.00    -0.382 OA
ATOM     27  H   UNL     1      31.792 -19.997 -21.525  0.00  0.00    +0.210 HD
ENDBRANCH  25  26
ENDBRANCH  24  25
ENDBRANCH   8  24
TORSDOF 4
ENDMDL
MODEL 3
REMARK VINA RESULT:      -8.5      2.292      3.650
REMARK  Name = 11602832
REMARK  4 active torsions:
REMARK  status: ('A' for Active; 'I' for Inactive)
REMARK    1  A    between atoms: C_8  and  C_24
REMARK    2  A    between atoms: C_10  and  C_18
REMARK    3  A    between atoms: C_24  and  C_25
REMARK    4  A    between atoms: C_25  and  O_26
REMARK                            x       y       z     vdW  Elec       q    Type
REMARK                         _______ _______ _______ _____ _____    ______ ____
ROOT
ATOM      1  O   UNL     1      30.959 -23.431 -12.748  0.00  0.00    -0.270 OA
ATOM      2  O   UNL     1      35.401 -24.546 -12.246  0.00  0.00    -0.270 OA
ATOM      3  N   UNL     1      32.530 -22.320 -17.599  0.00  0.00    -0.284 N 
ATOM      4  N   UNL     1      33.114 -24.084 -12.130  0.00  0.00    -0.248 N 
ATOM      5  C   UNL     1      32.305 -22.912 -15.461  0.00  0.00    +0.016 C 
ATOM      6  C   UNL     1      33.227 -22.799 -16.512  0.00  0.00    +0.051 C 
ATOM      7  C   UNL     1      32.809 -23.385 -14.251  0.00  0.00    +0.059 C 
ATOM      8  C   UNL     1      31.044 -22.489 -15.955  0.00  0.00    -0.003 C 
ATOM      9  C   UNL     1      34.150 -23.720 -14.105  0.00  0.00    +0.058 C 
ATOM     10  C   UNL     1      35.055 -23.607 -15.139  0.00  0.00    +0.007 C 
ATOM     11  C   UNL     1      34.592 -23.136 -16.376  0.00  0.00    +0.015 C 
ATOM     12  C   UNL     1      31.214 -22.132 -17.273  0.00  0.00    +0.061 C 
ATOM     13  C   UNL     1      32.137 -23.618 -12.979  0.00  0.00    +0.252 C 
ATOM     14  C   UNL     1      34.349 -24.173 -12.729  0.00  0.00    +0.252 C 
ATOM     15  C   UNL     1      33.094 -22.053 -18.905  0.00  0.00    +0.117 C 
ATOM     16  H   UNL     1      32.946 -24.327 -11.190  0.00  0.00    +0.158 HD
ENDROOT
BRANCH  10  18
ATOM     17 CL   UNL     1      37.137 -21.391 -15.661  0.00  0.00    -0.082 Cl
ATOM     18  C   UNL     1      36.451 -23.954 -14.991  0.00  0.00    +0.011 C 
ATOM     19  C   UNL     1      37.472 -23.024 -15.205  0.00  0.00    +0.058 C 
ATOM     20  C   UNL     1      36.773 -25.263 -14.623  0.00  0.00    +0.001 C 
ATOM     21  C   UNL     1      38.805 -23.401 -15.050  0.00  0.00    +0.011 C 
ATOM     22  C   UNL     1      38.107 -25.639 -14.469  0.00  0.00    +0.000 C 
ATOM     23  C   UNL     1      39.123 -24.709 -14.683  0.00  0.00    +0.001 C 
ENDBRANCH  10  18
BRANCH   8  24
ATOM     24  C   UNL     1      29.763 -22.427 -15.225  0.00  0.00    +0.059 C 
BRANCH  24  25
ATOM     25  C   UNL     1      28.542 -22.757 -16.100  0.00  0.00    +0.142 C 
BRANCH  25  26
ATOM     26  O   UNL     1      27.831 -21.561 -16.388  0.00  0.00    -0.382 OA
ATOM     27  H   UNL     1      28.424 -20.800 -16.286  0.00  0.00    +0.210 HD
ENDBRANCH  25  26
ENDBRANCH  24  25
ENDBRANCH   8  24
TORSDOF 4
ENDMDL
MODEL 4
REMARK VINA RESULT:      -8.5     14.599     17.042
REMARK  Name = 11602832
REMARK  4 active torsions:
REMARK  status: ('A' for Active; 'I' for Inactive)
REMARK    1  A    between atoms: C_8  and  C_24
REMARK    2  A    between atoms: C_10  and  C_18
REMARK    3  A    between atoms: C_24  and  C_25
REMARK    4  A    between atoms: C_25  and  O_26
REMARK                            x       y       z     vdW  Elec       q    Type
REMARK                         _______ _______ _______ _____ _____    ______ ____
ROOT
ATOM      1  O   UNL     1      31.387 -10.446 -18.698  0.00  0.00    -0.270 OA
ATOM      2  O   UNL     1      31.271  -6.196 -20.472  0.00  0.00    -0.270 OA
ATOM      3  N   UNL     1      32.414 -11.710 -23.656  0.00  0.00    -0.284 N 
ATOM      4  N   UNL     1      31.250  -8.178 -19.235  0.00  0.00    -0.248 N 
ATOM      5  C   UNL     1      31.961 -10.735 -21.702  0.00  0.00    +0.016 C 
ATOM      6  C   UNL     1      32.183 -10.487 -23.065  0.00  0.00    +0.051 C 
ATOM      7  C   UNL     1      31.704  -9.617 -20.911  0.00  0.00    +0.059 C 
ATOM      8  C   UNL     1      32.068 -12.135 -21.502  0.00  0.00    -0.003 C 
ATOM      9  C   UNL     1      31.670  -8.337 -21.451  0.00  0.00    +0.058 C 
ATOM     10  C   UNL     1      31.888  -8.096 -22.791  0.00  0.00    +0.007 C 
ATOM     11  C   UNL     1      32.152  -9.192 -23.626  0.00  0.00    +0.015 C 
ATOM     12  C   UNL     1      32.348 -12.708 -22.721  0.00  0.00    +0.061 C 
ATOM     13  C   UNL     1      31.434  -9.519 -19.481  0.00  0.00    +0.252 C 
ATOM     14  C   UNL     1      31.375  -7.403 -20.365  0.00  0.00    +0.252 C 
ATOM     15  C   UNL     1      32.692 -11.924 -25.059  0.00  0.00    +0.117 C 
ATOM     16  H   UNL     1      31.050  -7.812 -18.343  0.00  0.00    +0.158 HD
ENDROOT
BRANCH  10  18
ATOM     17 CL   UNL     1      34.452  -6.393 -22.585  0.00  0.00    -0.082 Cl
ATOM     18  C   UNL     1      31.853  -6.766 -23.357  0.00  0.00    +0.011 C 
ATOM     19  C   UNL     1      32.960  -5.915 -23.316  0.00  0.00    +0.058 C 
ATOM     20  C   UNL     1      30.669  -6.334 -23.959  0.00  0.00    +0.001 C 
ATOM     21  C   UNL     1      32.883  -4.640 -23.875  0.00  0.00    +0.011 C 
ATOM     22  C   UNL     1      30.593  -5.058 -24.518  0.00  0.00    +0.000 C 
ATOM     23  C   UNL     1      31.699  -4.211 -24.476  0.00  0.00    +0.001 C 
ENDBRANCH  10  18
BRANCH   8  24
ATOM     24  C   UNL     1      31.914 -12.881 -20.237  0.00  0.00    +0.059 C 
BRANCH  24  25
ATOM     25  C   UNL     1      32.622 -14.246 -20.240  0.00  0.00    +0.142 C 
BRANCH  25  26
ATOM     26  O   UNL     1      34.029 -14.047 -20.271  0.00  0.00    -0.382 OA
ATOM     27  H   UNL     1      34.278 -13.394 -19.598  0.00  0.00    +0.210 HD
ENDBRANCH  25  26
ENDBRANCH  24  25
ENDBRANCH   8  24
TORSDOF 4
ENDMDL
MODEL 5
REMARK VINA RESULT:      -7.9      3.041      6.687
REMARK  Name = 11602832
REMARK  4 active torsions:
REMARK  status: ('A' for Active; 'I' for Inactive)
REMARK    1  A    between atoms: C_8  and  C_24
REMARK    2  A    between atoms: C_10  and  C_18
REMARK    3  A    between atoms: C_24  and  C_25
REMARK    4  A    between atoms: C_25  and  O_26
REMARK                            x       y       z     vdW  Elec       q    Type
REMARK                         _______ _______ _______ _____ _____    ______ ____
ROOT
ATOM      1  O   UNL     1      33.431 -24.034 -11.972  0.00  0.00    -0.270 OA
ATOM      2  O   UNL     1      32.474 -22.069 -16.028  0.00  0.00    -0.270 OA
ATOM      3  N   UNL     1      38.247 -24.148 -13.979  0.00  0.00    -0.284 N 
ATOM      4  N   UNL     1      32.582 -23.021 -13.897  0.00  0.00    -0.248 N 
ATOM      5  C   UNL     1      36.077 -23.899 -13.526  0.00  0.00    +0.016 C 
ATOM      6  C   UNL     1      37.062 -23.676 -14.500  0.00  0.00    +0.051 C 
ATOM      7  C   UNL     1      34.787 -23.489 -13.856  0.00  0.00    +0.059 C 
ATOM      8  C   UNL     1      36.709 -24.514 -12.416  0.00  0.00    -0.003 C 
ATOM      9  C   UNL     1      34.504 -22.897 -15.081  0.00  0.00    +0.058 C 
ATOM     10  C   UNL     1      35.473 -22.679 -16.036  0.00  0.00    +0.007 C 
ATOM     11  C   UNL     1      36.788 -23.075 -15.748  0.00  0.00    +0.015 C 
ATOM     12  C   UNL     1      38.044 -24.654 -12.723  0.00  0.00    +0.061 C 
ATOM     13  C   UNL     1      33.550 -23.571 -13.089  0.00  0.00    +0.252 C 
ATOM     14  C   UNL     1      33.074 -22.594 -15.109  0.00  0.00    +0.252 C 
ATOM     15  C   UNL     1      39.529 -24.118 -14.649  0.00  0.00    +0.117 C 
ATOM     16  H   UNL     1      31.636 -22.942 -13.635  0.00  0.00    +0.158 HD
ENDROOT
BRANCH  10  18
ATOM     17 CL   UNL     1      37.255 -20.320 -16.919  0.00  0.00    -0.082 Cl
ATOM     18  C   UNL     1      35.183 -22.064 -17.313  0.00  0.00    +0.011 C 
ATOM     19  C   UNL     1      35.929 -20.990 -17.804  0.00  0.00    +0.058 C 
ATOM     20  C   UNL     1      34.120 -22.570 -18.065  0.00  0.00    +0.001 C 
ATOM     21  C   UNL     1      35.615 -20.426 -19.040  0.00  0.00    +0.011 C 
ATOM     22  C   UNL     1      33.806 -22.007 -19.301  0.00  0.00    +0.000 C 
ATOM     23  C   UNL     1      34.553 -20.935 -19.789  0.00  0.00    +0.001 C 
ENDBRANCH  10  18
BRANCH   8  24
ATOM     24  C   UNL     1      36.089 -24.942 -11.146  0.00  0.00    +0.059 C 
BRANCH  24  25
ATOM     25  C   UNL     1      35.900 -23.796 -10.139  0.00  0.00    +0.142 C 
BRANCH  25  26
ATOM     26  O   UNL     1      34.915 -24.166  -9.183  0.00  0.00    -0.382 OA
ATOM     27  H   UNL     1      34.197 -23.513  -9.190  0.00  0.00    +0.210 HD
ENDBRANCH  25  26
ENDBRANCH  24  25
ENDBRANCH   8  24
TORSDOF 4
ENDMDL
MODEL 6
REMARK VINA RESULT:      -7.8      2.325      6.303
REMARK  Name = 11602832
REMARK  4 active torsions:
REMARK  status: ('A' for Active; 'I' for Inactive)
REMARK    1  A    between atoms: C_8  and  C_24
REMARK    2  A    between atoms: C_10  and  C_18
REMARK    3  A    between atoms: C_24  and  C_25
REMARK    4  A    between atoms: C_25  and  O_26
REMARK                            x       y       z     vdW  Elec       q    Type
REMARK                         _______ _______ _______ _____ _____    ______ ____
ROOT
ATOM      1  O   UNL     1      36.146 -22.060 -17.488  0.00  0.00    -0.270 OA
ATOM      2  O   UNL     1      31.547 -22.243 -17.687  0.00  0.00    -0.270 OA
ATOM      3  N   UNL     1      35.295 -23.941 -12.695  0.00  0.00    -0.284 N 
ATOM      4  N   UNL     1      33.857 -22.012 -17.947  0.00  0.00    -0.248 N 
ATOM      5  C   UNL     1      35.195 -23.150 -14.779  0.00  0.00    +0.016 C 
ATOM      6  C   UNL     1      34.418 -23.606 -13.703  0.00  0.00    +0.051 C 
ATOM      7  C   UNL     1      34.494 -22.756 -15.916  0.00  0.00    +0.059 C 
ATOM      8  C   UNL     1      36.554 -23.224 -14.381  0.00  0.00    -0.003 C 
ATOM      9  C   UNL     1      33.106 -22.813 -15.971  0.00  0.00    +0.058 C 
ATOM     10  C   UNL     1      32.345 -23.261 -14.912  0.00  0.00    +0.007 C 
ATOM     11  C   UNL     1      33.007 -23.670 -13.746  0.00  0.00    +0.015 C 
ATOM     12  C   UNL     1      36.585 -23.715 -13.096  0.00  0.00    +0.061 C 
ATOM     13  C   UNL     1      34.982 -22.239 -17.189  0.00  0.00    +0.252 C 
ATOM     14  C   UNL     1      32.692 -22.330 -17.287  0.00  0.00    +0.252 C 
ATOM     15  C   UNL     1      34.923 -24.460 -11.397  0.00  0.00    +0.117 C 
ATOM     16  H   UNL     1      33.883 -21.658 -18.865  0.00  0.00    +0.158 HD
ENDROOT
BRANCH  10  18
ATOM     17 CL   UNL     1      30.775 -20.894 -13.707  0.00  0.00    -0.082 Cl
ATOM     18  C   UNL     1      30.901 -23.322 -14.965  0.00  0.00    +0.011 C 
ATOM     19  C   UNL     1      30.098 -22.302 -14.448  0.00  0.00    +0.058 C 
ATOM     20  C   UNL     1      30.306 -24.439 -15.555  0.00  0.00    +0.001 C 
ATOM     21  C   UNL     1      28.709 -22.400 -14.520  0.00  0.00    +0.011 C 
ATOM     22  C   UNL     1      28.917 -24.537 -15.627  0.00  0.00    +0.000 C 
ATOM     23  C   UNL     1      28.118 -23.518 -15.109  0.00  0.00    +0.001 C 
ENDBRANCH  10  18
BRANCH   8  24
ATOM     24  C   UNL     1      37.747 -22.854 -15.169  0.00  0.00    +0.059 C 
BRANCH  24  25
ATOM     25  C   UNL     1      38.946 -23.790 -14.942  0.00  0.00    +0.142 C 
BRANCH  25  26
ATOM     26  O   UNL     1      38.582 -25.117 -15.300  0.00  0.00    -0.382 OA
ATOM     27  H   UNL     1      39.133 -25.746 -14.808  0.00  0.00    +0.210 HD
ENDBRANCH  25  26
ENDBRANCH  24  25
ENDBRANCH   8  24
TORSDOF 4
ENDMDL
MODEL 7
REMARK VINA RESULT:      -7.7     13.239     15.641
REMARK  Name = 11602832
REMARK  4 active torsions:
REMARK  status: ('A' for Active; 'I' for Inactive)
REMARK    1  A    between atoms: C_8  and  C_24
REMARK    2  A    between atoms: C_10  and  C_18
REMARK    3  A    between atoms: C_24  and  C_25
REMARK    4  A    between atoms: C_25  and  O_26
REMARK                            x       y       z     vdW  Elec       q    Type
REMARK                         _______ _______ _______ _____ _____    ______ ____
ROOT
ATOM      1  O   UNL     1      30.326  -8.966 -20.455  0.00  0.00    -0.270 OA
ATOM      2  O   UNL     1      31.236 -13.389 -21.368  0.00  0.00    -0.270 OA
ATOM      3  N   UNL     1      34.177  -8.212 -23.895  0.00  0.00    -0.284 N 
ATOM      4  N   UNL     1      30.505 -11.284 -20.665  0.00  0.00    -0.248 N 
ATOM      5  C   UNL     1      32.612  -8.985 -22.508  0.00  0.00    +0.016 C 
ATOM      6  C   UNL     1      33.610  -9.371 -23.414  0.00  0.00    +0.051 C 
ATOM      7  C   UNL     1      31.906 -10.020 -21.897  0.00  0.00    +0.059 C 
ATOM      8  C   UNL     1      32.602  -7.568 -22.466  0.00  0.00    -0.003 C 
ATOM      9  C   UNL     1      32.184 -11.352 -22.177  0.00  0.00    +0.058 C 
ATOM     10  C   UNL     1      33.166 -11.729 -23.067  0.00  0.00    +0.007 C 
ATOM     11  C   UNL     1      33.903 -10.722 -23.707  0.00  0.00    +0.015 C 
ATOM     12  C   UNL     1      33.575  -7.120 -23.330  0.00  0.00    +0.061 C 
ATOM     13  C   UNL     1      30.823  -9.971 -20.922  0.00  0.00    +0.252 C 
ATOM     14  C   UNL     1      31.276 -12.174 -21.377  0.00  0.00    +0.252 C 
ATOM     15  C   UNL     1      35.252  -8.142 -24.861  0.00  0.00    +0.117 C 
ATOM     16  H   UNL     1      29.799 -11.559 -20.035  0.00  0.00    +0.158 HD
ENDROOT
BRANCH  10  18
ATOM     17 CL   UNL     1      32.321 -12.811 -25.830  0.00  0.00    -0.082 Cl
ATOM     18  C   UNL     1      33.459 -13.115 -23.360  0.00  0.00    +0.011 C 
ATOM     19  C   UNL     1      33.118 -13.702 -24.581  0.00  0.00    +0.058 C 
ATOM     20  C   UNL     1      34.103 -13.877 -22.382  0.00  0.00    +0.001 C 
ATOM     21  C   UNL     1      33.420 -15.042 -24.823  0.00  0.00    +0.011 C 
ATOM     22  C   UNL     1      34.405 -15.217 -22.624  0.00  0.00    +0.000 C 
ATOM     23  C   UNL     1      34.063 -15.800 -23.843  0.00  0.00    +0.001 C 
ENDBRANCH  10  18
BRANCH   8  24
ATOM     24  C   UNL     1      31.727  -6.694 -21.659  0.00  0.00    +0.059 C 
BRANCH  24  25
ATOM     25  C   UNL     1      32.399  -6.163 -20.382  0.00  0.00    +0.142 C 
BRANCH  25  26
ATOM     26  O   UNL     1      32.671  -7.249 -19.506  0.00  0.00    -0.382 OA
ATOM     27  H   UNL     1      33.592  -7.532 -19.618  0.00  0.00    +0.210 HD
ENDBRANCH  25  26
ENDBRANCH  24  25
ENDBRANCH   8  24
TORSDOF 4
ENDMDL
MODEL 8
REMARK VINA RESULT:      -7.5     18.116     20.123
REMARK  Name = 11602832
REMARK  4 active torsions:
REMARK  status: ('A' for Active; 'I' for Inactive)
REMARK    1  A    between atoms: C_8  and  C_24
REMARK    2  A    between atoms: C_10  and  C_18
REMARK    3  A    between atoms: C_24  and  C_25
REMARK    4  A    between atoms: C_25  and  O_26
REMARK                            x       y       z     vdW  Elec       q    Type
REMARK                         _______ _______ _______ _____ _____    ______ ____
ROOT
ATOM      1  O   UNL     1      34.625  -4.860 -25.951  0.00  0.00    -0.270 OA
ATOM      2  O   UNL     1      33.732  -8.501 -23.272  0.00  0.00    -0.270 OA
ATOM      3  N   UNL     1      30.835  -2.721 -23.071  0.00  0.00    -0.284 N 
ATOM      4  N   UNL     1      34.450  -6.882 -24.796  0.00  0.00    -0.248 N 
ATOM      5  C   UNL     1      32.376  -4.011 -24.038  0.00  0.00    +0.016 C 
ATOM      6  C   UNL     1      31.393  -3.979 -23.038  0.00  0.00    +0.051 C 
ATOM      7  C   UNL     1      33.071  -5.210 -24.176  0.00  0.00    +0.059 C 
ATOM      8  C   UNL     1      32.385  -2.738 -24.664  0.00  0.00    -0.003 C 
ATOM      9  C   UNL     1      32.798  -6.305 -23.365  0.00  0.00    +0.058 C 
ATOM     10  C   UNL     1      31.831  -6.272 -22.383  0.00  0.00    +0.007 C 
ATOM     11  C   UNL     1      31.106  -5.085 -22.207  0.00  0.00    +0.015 C 
ATOM     12  C   UNL     1      31.427  -1.966 -24.048  0.00  0.00    +0.061 C 
ATOM     13  C   UNL     1      34.137  -5.578 -25.101  0.00  0.00    +0.252 C 
ATOM     14  C   UNL     1      33.692  -7.391 -23.767  0.00  0.00    +0.252 C 
ATOM     15  C   UNL     1      29.777  -2.249 -22.204  0.00  0.00    +0.117 C 
ATOM     16  H   UNL     1      35.145  -7.398 -25.266  0.00  0.00    +0.158 HD
ENDROOT
BRANCH  10  18
ATOM     17 CL   UNL     1      32.597  -6.061 -19.401  0.00  0.00    -0.082 Cl
ATOM     18  C   UNL     1      31.544  -7.410 -21.537  0.00  0.00    +0.011 C 
ATOM     19  C   UNL     1      31.851  -7.416 -20.174  0.00  0.00    +0.058 C 
ATOM     20  C   UNL     1      30.941  -8.529 -22.116  0.00  0.00    +0.001 C 
ATOM     21  C   UNL     1      31.555  -8.534 -19.395  0.00  0.00    +0.011 C 
ATOM     22  C   UNL     1      30.646  -9.647 -21.336  0.00  0.00    +0.000 C 
ATOM     23  C   UNL     1      30.953  -9.650 -19.976  0.00  0.00    +0.001 C 
ENDBRANCH  10  18
BRANCH   8  24
ATOM     24  C   UNL     1      33.245  -2.284 -25.774  0.00  0.00    +0.059 C 
BRANCH  24  25
ATOM     25  C   UNL     1      32.542  -2.299 -27.141  0.00  0.00    +0.142 C 
BRANCH  25  26
ATOM     26  O   UNL     1      32.744  -3.562 -27.762  0.00  0.00    -0.382 OA
ATOM     27  H   UNL     1      33.105  -4.186 -27.113  0.00  0.00    +0.210 HD
ENDBRANCH  25  26
ENDBRANCH  24  25
ENDBRANCH   8  24
TORSDOF 4
ENDMDL
MODEL 9
REMARK VINA RESULT:      -7.4      2.101      4.205
REMARK  Name = 11602832
REMARK  4 active torsions:
REMARK  status: ('A' for Active; 'I' for Inactive)
REMARK    1  A    between atoms: C_8  and  C_24
REMARK    2  A    between atoms: C_10  and  C_18
REMARK    3  A    between atoms: C_24  and  C_25
REMARK    4  A    between atoms: C_25  and  O_26
REMARK                            x       y       z     vdW  Elec       q    Type
REMARK                         _______ _______ _______ _____ _____    ______ ____
ROOT
ATOM      1  O   UNL     1      30.873 -22.818 -16.878  0.00  0.00    -0.270 OA
ATOM      2  O   UNL     1      32.280 -24.410 -12.790  0.00  0.00    -0.270 OA
ATOM      3  N   UNL     1      35.923 -21.578 -17.324  0.00  0.00    -0.284 N 
ATOM      4  N   UNL     1      31.216 -23.724 -14.754  0.00  0.00    -0.248 N 
ATOM      5  C   UNL     1      33.892 -22.274 -16.718  0.00  0.00    +0.016 C 
ATOM      6  C   UNL     1      35.230 -22.191 -16.303  0.00  0.00    +0.051 C 
ATOM      7  C   UNL     1      33.009 -22.868 -15.820  0.00  0.00    +0.059 C 
ATOM      8  C   UNL     1      33.812 -21.694 -18.010  0.00  0.00    -0.003 C 
ATOM      9  C   UNL     1      33.439 -23.347 -14.588  0.00  0.00    +0.058 C 
ATOM     10  C   UNL     1      34.754 -23.264 -14.182  0.00  0.00    +0.007 C 
ATOM     11  C   UNL     1      35.680 -22.673 -15.054  0.00  0.00    +0.015 C 
ATOM     12  C   UNL     1      35.076 -21.276 -18.357  0.00  0.00    +0.061 C 
ATOM     13  C   UNL     1      31.575 -23.110 -15.931  0.00  0.00    +0.252 C 
ATOM     14  C   UNL     1      32.276 -23.902 -13.895  0.00  0.00    +0.252 C 
ATOM     15  C   UNL     1      37.341 -21.290 -17.321  0.00  0.00    +0.117 C 
ATOM     16  H   UNL     1      30.295 -24.006 -14.547  0.00  0.00    +0.158 HD
ENDROOT
BRANCH  10  18
ATOM     17 CL   UNL     1      36.408 -25.868 -14.166  0.00  0.00    -0.082 Cl
ATOM     18  C   UNL     1      35.205 -23.761 -12.901  0.00  0.00    +0.011 C 
ATOM     19  C   UNL     1      35.959 -24.931 -12.784  0.00  0.00    +0.058 C 
ATOM     20  C   UNL     1      34.867 -23.038 -11.754  0.00  0.00    +0.001 C 
ATOM     21  C   UNL     1      36.374 -25.374 -11.529  0.00  0.00    +0.011 C 
ATOM     22  C   UNL     1      35.282 -23.480 -10.499  0.00  0.00    +0.000 C 
ATOM     23  C   UNL     1      36.035 -24.649 -10.386  0.00  0.00    +0.001 C 
ENDBRANCH  10  18
BRANCH   8  24
ATOM     24  C   UNL     1      32.614 -21.547 -18.860  0.00  0.00    +0.059 C 
BRANCH  24  25
ATOM     25  C   UNL     1      32.729 -20.411 -19.890  0.00  0.00    +0.142 C 
BRANCH  25  26
ATOM     26  O   UNL     1      31.520 -20.323 -20.632  0.00  0.00    -0.382 OA
ATOM     27  H   UNL     1      31.543 -20.961 -21.363  0.00  0.00    +0.210 HD
ENDBRANCH  25  26
ENDBRANCH  24  25
ENDBRANCH   8  24
TORSDOF 4
ENDMDL
