MODEL 1
REMARK VINA RESULT:     -10.5      0.000      0.000
REMARK  Name = 6433109
REMARK  6 active torsions:
REMARK  status: ('A' for Active; 'I' for Inactive)
REMARK    1  A    between atoms: N_2  and  C_18
REMARK    2  A    between atoms: C_11  and  C_12
REMARK    3  A    between atoms: C_18  and  C_21
REMARK    4  A    between atoms: N_20  and  C_22
REMARK    5  A    between atoms: N_20  and  C_24
REMARK    6  A    between atoms: C_24  and  C_25
REMARK                            x       y       z     vdW  Elec       q    Type
REMARK                         _______ _______ _______ _____ _____    ______ ____
ROOT
ATOM      1  O   UNL     1      30.896  -9.626 -20.062  0.00  0.00    -0.246 OA
ATOM      2  N   UNL     1      31.656  -8.956 -22.210  0.00  0.00    -0.245 N 
ATOM      3  N   UNL     1      31.627  -7.420 -20.547  0.00  0.00    -0.274 N 
ATOM      4  N   UNL     1      32.534  -7.476 -23.982  0.00  0.00    -0.331 NA
ATOM      5  N   UNL     1      32.947  -5.199 -23.219  0.00  0.00    -0.181 NA
ATOM      6  C   UNL     1      32.127  -7.740 -22.735  0.00  0.00    +0.228 A 
ATOM      7  C   UNL     1      32.105  -6.812 -21.711  0.00  0.00    +0.132 A 
ATOM      8  C   UNL     1      31.333  -8.783 -20.833  0.00  0.00    +0.334 A 
ATOM      9  C   UNL     1      31.460  -6.774 -19.270  0.00  0.00    +0.135 C 
ATOM     10  C   UNL     1      32.523  -5.539 -21.982  0.00  0.00    +0.132 C 
ATOM     11  C   UNL     1      32.927  -6.192 -24.149  0.00  0.00    +0.089 C 
ENDROOT
BRANCH  11  12
ATOM     12  C   UNL     1      33.378  -5.831 -25.468  0.00  0.00    +0.074 C 
ATOM     13  C   UNL     1      34.686  -5.378 -25.664  0.00  0.00    +0.011 C 
ATOM     14  C   UNL     1      32.512  -5.934 -26.560  0.00  0.00    +0.011 C 
ATOM     15  C   UNL     1      35.124  -5.031 -26.942  0.00  0.00    +0.001 C 
ATOM     16  C   UNL     1      32.950  -5.586 -27.837  0.00  0.00    +0.001 C 
ATOM     17  C   UNL     1      34.256  -5.135 -28.030  0.00  0.00    +0.000 C 
ENDBRANCH  11  12
BRANCH   2  18
ATOM     18  C   UNL     1      31.535 -10.162 -22.986  0.00  0.00    +0.198 C 
BRANCH  18  21
ATOM     19  O   UNL     1      33.830 -10.598 -23.522  0.00  0.00    -0.273 OA
ATOM     20  N   UNL     1      32.781 -12.112 -22.111  0.00  0.00    -0.274 N 
ATOM     21  C   UNL     1      32.824 -10.962 -22.908  0.00  0.00    +0.249 C 
BRANCH  20  22
ATOM     22  C   UNL     1      31.578 -12.522 -21.397  0.00  0.00    +0.094 C 
ATOM     23  C   UNL     1      31.906 -13.443 -20.240  0.00  0.00    +0.023 C 
ENDBRANCH  20  22
BRANCH  20  24
ATOM     24  C   UNL     1      33.938 -12.987 -21.938  0.00  0.00    +0.120 C 
BRANCH  24  25
ATOM     25  C   UNL     1      33.871 -14.189 -22.834  0.00  0.00    -0.002 C 
ATOM     26  C   UNL     1      34.422 -15.394 -22.411  0.00  0.00    -0.003 C 
ATOM     27  C   UNL     1      33.260 -14.088 -24.079  0.00  0.00    -0.003 C 
ATOM     28  C   UNL     1      34.360 -16.511 -23.243  0.00  0.00    -0.000 C 
ATOM     29  C   UNL     1      33.198 -15.206 -24.911  0.00  0.00    -0.000 C 
ATOM     30  C   UNL     1      33.749 -16.418 -24.494  0.00  0.00    -0.000 C 
ENDBRANCH  24  25
ENDBRANCH  20  24
ENDBRANCH  18  21
ENDBRANCH   2  18
TORSDOF 6
ENDMDL
MODEL 2
REMARK VINA RESULT:     -10.0      9.963     15.679
REMARK  Name = 6433109
REMARK  6 active torsions:
REMARK  status: ('A' for Active; 'I' for Inactive)
REMARK    1  A    between atoms: N_2  and  C_18
REMARK    2  A    between atoms: C_11  and  C_12
REMARK    3  A    between atoms: C_18  and  C_21
REMARK    4  A    between atoms: N_20  and  C_22
REMARK    5  A    between atoms: N_20  and  C_24
REMARK    6  A    between atoms: C_24  and  C_25
REMARK                            x       y       z     vdW  Elec       q    Type
REMARK                         _______ _______ _______ _____ _____    ______ ____
ROOT
ATOM      1  O   UNL     1      30.990 -22.001 -17.513  0.00  0.00    -0.246 OA
ATOM      2  N   UNL     1      33.206 -22.749 -17.104  0.00  0.00    -0.245 N 
ATOM      3  N   UNL     1      31.805 -22.511 -15.342  0.00  0.00    -0.274 N 
ATOM      4  N   UNL     1      35.177 -23.519 -15.828  0.00  0.00    -0.331 NA
ATOM      5  N   UNL     1      34.774 -23.669 -13.430  0.00  0.00    -0.181 NA
ATOM      6  C   UNL     1      33.909 -23.106 -15.939  0.00  0.00    +0.228 A 
ATOM      7  C   UNL     1      33.043 -22.956 -14.872  0.00  0.00    +0.132 A 
ATOM      8  C   UNL     1      31.878 -22.370 -16.756  0.00  0.00    +0.334 A 
ATOM      9  C   UNL     1      30.647 -22.240 -14.529  0.00  0.00    +0.135 C 
ATOM     10  C   UNL     1      33.505 -23.247 -13.619  0.00  0.00    +0.132 C 
ATOM     11  C   UNL     1      35.537 -23.780 -14.551  0.00  0.00    +0.089 C 
ENDROOT
BRANCH  11  12
ATOM     12  C   UNL     1      36.891 -24.229 -14.350  0.00  0.00    +0.074 C 
ATOM     13  C   UNL     1      37.180 -25.171 -13.359  0.00  0.00    +0.011 C 
ATOM     14  C   UNL     1      37.923 -23.729 -15.149  0.00  0.00    +0.011 C 
ATOM     15  C   UNL     1      38.491 -25.608 -13.166  0.00  0.00    +0.001 C 
ATOM     16  C   UNL     1      39.234 -24.166 -14.955  0.00  0.00    +0.001 C 
ATOM     17  C   UNL     1      39.518 -25.105 -13.965  0.00  0.00    +0.000 C 
ENDBRANCH  11  12
BRANCH   2  18
ATOM     18  C   UNL     1      33.786 -22.778 -18.421  0.00  0.00    +0.198 C 
BRANCH  18  21
ATOM     19  O   UNL     1      35.822 -21.659 -17.831  0.00  0.00    -0.273 OA
ATOM     20  N   UNL     1      34.567 -20.714 -19.538  0.00  0.00    -0.274 N 
ATOM     21  C   UNL     1      34.825 -21.678 -18.556  0.00  0.00    +0.249 C 
BRANCH  20  22
ATOM     22  C   UNL     1      33.380 -20.758 -20.383  0.00  0.00    +0.094 C 
ATOM     23  C   UNL     1      32.189 -20.118 -19.701  0.00  0.00    +0.023 C 
ENDBRANCH  20  22
BRANCH  20  24
ATOM     24  C   UNL     1      35.470 -19.593 -19.788  0.00  0.00    +0.120 C 
BRANCH  24  25
ATOM     25  C   UNL     1      35.063 -18.805 -20.999  0.00  0.00    -0.002 C 
ATOM     26  C   UNL     1      35.023 -17.417 -20.934  0.00  0.00    -0.003 C 
ATOM     27  C   UNL     1      34.730 -19.470 -22.173  0.00  0.00    -0.003 C 
ATOM     28  C   UNL     1      34.645 -16.684 -22.059  0.00  0.00    -0.000 C 
ATOM     29  C   UNL     1      34.353 -18.736 -23.299  0.00  0.00    -0.000 C 
ATOM     30  C   UNL     1      34.310 -17.344 -23.242  0.00  0.00    -0.000 C 
ENDBRANCH  24  25
ENDBRANCH  20  24
ENDBRANCH  18  21
ENDBRANCH   2  18
TORSDOF 6
ENDMDL
MODEL 3
REMARK VINA RESULT:     -10.0     12.993     16.480
REMARK  Name = 6433109
REMARK  6 active torsions:
REMARK  status: ('A' for Active; 'I' for Inactive)
REMARK    1  A    between atoms: N_2  and  C_18
REMARK    2  A    between atoms: C_11  and  C_12
REMARK    3  A    between atoms: C_18  and  C_21
REMARK    4  A    between atoms: N_20  and  C_22
REMARK    5  A    between atoms: N_20  and  C_24
REMARK    6  A    between atoms: C_24  and  C_25
REMARK                            x       y       z     vdW  Elec       q    Type
REMARK                         _______ _______ _______ _____ _____    ______ ____
ROOT
ATOM      1  O   UNL     1      30.806 -24.216 -12.371  0.00  0.00    -0.246 OA
ATOM      2  N   UNL     1      32.333 -23.254 -13.913  0.00  0.00    -0.245 N 
ATOM      3  N   UNL     1      30.247 -23.762 -14.634  0.00  0.00    -0.274 N 
ATOM      4  N   UNL     1      33.186 -22.354 -16.050  0.00  0.00    -0.331 NA
ATOM      5  N   UNL     1      31.538 -22.407 -17.844  0.00  0.00    -0.181 NA
ATOM      6  C   UNL     1      32.244 -22.898 -15.271  0.00  0.00    +0.228 A 
ATOM      7  C   UNL     1      30.967 -23.212 -15.698  0.00  0.00    +0.132 A 
ATOM      8  C   UNL     1      31.089 -23.801 -13.486  0.00  0.00    +0.334 A 
ATOM      9  C   UNL     1      28.880 -24.212 -14.688  0.00  0.00    +0.135 C 
ATOM     10  C   UNL     1      30.638 -22.955 -16.999  0.00  0.00    +0.132 C 
ATOM     11  C   UNL     1      32.763 -22.138 -17.317  0.00  0.00    +0.089 C 
ENDROOT
BRANCH  11  12
ATOM     12  C   UNL     1      33.724 -21.555 -18.218  0.00  0.00    +0.074 C 
ATOM     13  C   UNL     1      33.294 -20.896 -19.373  0.00  0.00    +0.011 C 
ATOM     14  C   UNL     1      35.091 -21.641 -17.940  0.00  0.00    +0.011 C 
ATOM     15  C   UNL     1      34.224 -20.329 -20.245  0.00  0.00    +0.001 C 
ATOM     16  C   UNL     1      36.020 -21.075 -18.812  0.00  0.00    +0.001 C 
ATOM     17  C   UNL     1      35.588 -20.418 -19.964  0.00  0.00    +0.000 C 
ENDBRANCH  11  12
BRANCH   2  18
ATOM     18  C   UNL     1      33.522 -23.075 -13.122  0.00  0.00    +0.198 C 
BRANCH  18  21
ATOM     19  O   UNL     1      34.284 -25.049 -14.248  0.00  0.00    -0.273 OA
ATOM     20  N   UNL     1      35.522 -24.347 -12.416  0.00  0.00    -0.274 N 
ATOM     21  C   UNL     1      34.465 -24.249 -13.328  0.00  0.00    +0.249 C 
BRANCH  20  22
ATOM     22  C   UNL     1      35.714 -23.388 -11.335  0.00  0.00    +0.094 C 
ATOM     23  C   UNL     1      35.367 -23.990  -9.990  0.00  0.00    +0.023 C 
ENDBRANCH  20  22
BRANCH  20  24
ATOM     24  C   UNL     1      36.511 -25.421 -12.479  0.00  0.00    +0.120 C 
BRANCH  24  25
ATOM     25  C   UNL     1      37.667 -25.067 -13.368  0.00  0.00    -0.002 C 
ATOM     26  C   UNL     1      38.861 -25.770 -13.256  0.00  0.00    -0.003 C 
ATOM     27  C   UNL     1      37.534 -24.039 -14.294  0.00  0.00    -0.003 C 
ATOM     28  C   UNL     1      39.936 -25.442 -14.081  0.00  0.00    -0.000 C 
ATOM     29  C   UNL     1      38.610 -23.711 -15.120  0.00  0.00    -0.000 C 
ATOM     30  C   UNL     1      39.811 -24.411 -15.013  0.00  0.00    -0.000 C 
ENDBRANCH  24  25
ENDBRANCH  20  24
ENDBRANCH  18  21
ENDBRANCH   2  18
TORSDOF 6
ENDMDL
MODEL 4
REMARK VINA RESULT:      -9.9      1.537      7.907
REMARK  Name = 6433109
REMARK  6 active torsions:
REMARK  status: ('A' for Active; 'I' for Inactive)
REMARK    1  A    between atoms: N_2  and  C_18
REMARK    2  A    between atoms: C_11  and  C_12
REMARK    3  A    between atoms: C_18  and  C_21
REMARK    4  A    between atoms: N_20  and  C_22
REMARK    5  A    between atoms: N_20  and  C_24
REMARK    6  A    between atoms: C_24  and  C_25
REMARK                            x       y       z     vdW  Elec       q    Type
REMARK                         _______ _______ _______ _____ _____    ______ ____
ROOT
ATOM      1  O   UNL     1      30.901  -7.233 -21.277  0.00  0.00    -0.246 OA
ATOM      2  N   UNL     1      31.778  -9.098 -22.456  0.00  0.00    -0.245 N 
ATOM      3  N   UNL     1      31.112  -9.392 -20.312  0.00  0.00    -0.274 N 
ATOM      4  N   UNL     1      32.509 -11.421 -22.872  0.00  0.00    -0.331 NA
ATOM      5  N   UNL     1      32.214 -12.884 -20.946  0.00  0.00    -0.181 NA
ATOM      6  C   UNL     1      32.000 -10.444 -22.112  0.00  0.00    +0.228 A 
ATOM      7  C   UNL     1      31.589 -10.610 -20.803  0.00  0.00    +0.132 A 
ATOM      8  C   UNL     1      31.220  -8.412 -21.339  0.00  0.00    +0.334 A 
ATOM      9  C   UNL     1      30.597  -9.166 -18.986  0.00  0.00    +0.135 C 
ATOM     10  C   UNL     1      31.708 -11.849 -20.240  0.00  0.00    +0.132 C 
ATOM     11  C   UNL     1      32.585 -12.607 -22.225  0.00  0.00    +0.089 C 
ENDROOT
BRANCH  11  12
ATOM     12  C   UNL     1      33.125 -13.709 -22.978  0.00  0.00    +0.074 C 
ATOM     13  C   UNL     1      33.964 -14.640 -22.359  0.00  0.00    +0.011 C 
ATOM     14  C   UNL     1      32.810 -13.857 -24.332  0.00  0.00    +0.011 C 
ATOM     15  C   UNL     1      34.485 -15.709 -23.088  0.00  0.00    +0.001 C 
ATOM     16  C   UNL     1      33.332 -14.926 -25.060  0.00  0.00    +0.001 C 
ATOM     17  C   UNL     1      34.169 -15.853 -24.439  0.00  0.00    +0.000 C 
ENDBRANCH  11  12
BRANCH   2  18
ATOM     18  C   UNL     1      32.087  -8.547 -23.749  0.00  0.00    +0.198 C 
BRANCH  18  21
ATOM     19  O   UNL     1      34.269  -7.744 -23.168  0.00  0.00    -0.273 OA
ATOM     20  N   UNL     1      32.776  -6.188 -24.024  0.00  0.00    -0.274 N 
ATOM     21  C   UNL     1      33.152  -7.472 -23.615  0.00  0.00    +0.249 C 
BRANCH  20  22
ATOM     22  C   UNL     1      31.449  -5.892 -24.548  0.00  0.00    +0.094 C 
ATOM     23  C   UNL     1      30.790  -4.762 -23.786  0.00  0.00    +0.023 C 
ENDBRANCH  20  22
BRANCH  20  24
ATOM     24  C   UNL     1      33.687  -5.048 -23.955  0.00  0.00    +0.120 C 
BRANCH  24  25
ATOM     25  C   UNL     1      34.149  -4.615 -25.315  0.00  0.00    -0.002 C 
ATOM     26  C   UNL     1      34.877  -5.497 -26.107  0.00  0.00    -0.003 C 
ATOM     27  C   UNL     1      33.847  -3.337 -25.771  0.00  0.00    -0.003 C 
ATOM     28  C   UNL     1      35.307  -5.096 -27.371  0.00  0.00    -0.000 C 
ATOM     29  C   UNL     1      34.277  -2.936 -27.037  0.00  0.00    -0.000 C 
ATOM     30  C   UNL     1      35.008  -3.815 -27.836  0.00  0.00    -0.000 C 
ENDBRANCH  24  25
ENDBRANCH  20  24
ENDBRANCH  18  21
ENDBRANCH   2  18
TORSDOF 6
ENDMDL
MODEL 5
REMARK VINA RESULT:      -9.6      2.046      8.389
REMARK  Name = 6433109
REMARK  6 active torsions:
REMARK  status: ('A' for Active; 'I' for Inactive)
REMARK    1  A    between atoms: N_2  and  C_18
REMARK    2  A    between atoms: C_11  and  C_12
REMARK    3  A    between atoms: C_18  and  C_21
REMARK    4  A    between atoms: N_20  and  C_22
REMARK    5  A    between atoms: N_20  and  C_24
REMARK    6  A    between atoms: C_24  and  C_25
REMARK                            x       y       z     vdW  Elec       q    Type
REMARK                         _______ _______ _______ _____ _____    ______ ____
ROOT
ATOM      1  O   UNL     1      30.935  -7.297 -21.333  0.00  0.00    -0.246 OA
ATOM      2  N   UNL     1      31.857  -9.170 -22.464  0.00  0.00    -0.245 N 
ATOM      3  N   UNL     1      31.046  -9.465 -20.370  0.00  0.00    -0.274 N 
ATOM      4  N   UNL     1      32.576 -11.502 -22.847  0.00  0.00    -0.331 NA
ATOM      5  N   UNL     1      32.129 -12.971 -20.955  0.00  0.00    -0.181 NA
ATOM      6  C   UNL     1      32.033 -10.521 -22.116  0.00  0.00    +0.228 A 
ATOM      7  C   UNL     1      31.534 -10.687 -20.838  0.00  0.00    +0.132 A 
ATOM      8  C   UNL     1      31.237  -8.481 -21.381  0.00  0.00    +0.334 A 
ATOM      9  C   UNL     1      30.447  -9.237 -19.080  0.00  0.00    +0.135 C 
ATOM     10  C   UNL     1      31.595 -11.932 -20.276  0.00  0.00    +0.132 C 
ATOM     11  C   UNL     1      32.589 -12.693 -22.204  0.00  0.00    +0.089 C 
ENDROOT
BRANCH  11  12
ATOM     12  C   UNL     1      33.160 -13.800 -22.928  0.00  0.00    +0.074 C 
ATOM     13  C   UNL     1      33.960 -14.735 -22.266  0.00  0.00    +0.011 C 
ATOM     14  C   UNL     1      32.914 -13.947 -24.296  0.00  0.00    +0.011 C 
ATOM     15  C   UNL     1      34.510 -15.809 -22.966  0.00  0.00    +0.001 C 
ATOM     16  C   UNL     1      33.466 -15.020 -24.995  0.00  0.00    +0.001 C 
ATOM     17  C   UNL     1      34.263 -15.952 -24.331  0.00  0.00    +0.000 C 
ENDBRANCH  11  12
BRANCH   2  18
ATOM     18  C   UNL     1      32.260  -8.616 -23.730  0.00  0.00    +0.198 C 
BRANCH  18  21
ATOM     19  O   UNL     1      33.989  -7.301 -22.717  0.00  0.00    -0.273 OA
ATOM     20  N   UNL     1      32.626  -6.227 -24.256  0.00  0.00    -0.274 N 
ATOM     21  C   UNL     1      33.046  -7.334 -23.510  0.00  0.00    +0.249 C 
BRANCH  20  22
ATOM     22  C   UNL     1      31.506  -6.292 -25.188  0.00  0.00    +0.094 C 
ATOM     23  C   UNL     1      31.977  -6.240 -26.626  0.00  0.00    +0.023 C 
ENDBRANCH  20  22
BRANCH  20  24
ATOM     24  C   UNL     1      33.277  -4.924 -24.155  0.00  0.00    +0.120 C 
BRANCH  24  25
ATOM     25  C   UNL     1      32.299  -3.830 -23.839  0.00  0.00    -0.002 C 
ATOM     26  C   UNL     1      32.098  -2.802 -24.753  0.00  0.00    -0.003 C 
ATOM     27  C   UNL     1      31.603  -3.855 -22.635  0.00  0.00    -0.003 C 
ATOM     28  C   UNL     1      31.189  -1.786 -24.460  0.00  0.00    -0.000 C 
ATOM     29  C   UNL     1      30.694  -2.838 -22.343  0.00  0.00    -0.000 C 
ATOM     30  C   UNL     1      30.487  -1.803 -23.254  0.00  0.00    -0.000 C 
ENDBRANCH  24  25
ENDBRANCH  20  24
ENDBRANCH  18  21
ENDBRANCH   2  18
TORSDOF 6
ENDMDL
MODEL 6
REMARK VINA RESULT:      -9.5     11.515     15.046
REMARK  Name = 6433109
REMARK  6 active torsions:
REMARK  status: ('A' for Active; 'I' for Inactive)
REMARK    1  A    between atoms: N_2  and  C_18
REMARK    2  A    between atoms: C_11  and  C_12
REMARK    3  A    between atoms: C_18  and  C_21
REMARK    4  A    between atoms: N_20  and  C_22
REMARK    5  A    between atoms: N_20  and  C_24
REMARK    6  A    between atoms: C_24  and  C_25
REMARK                            x       y       z     vdW  Elec       q    Type
REMARK                         _______ _______ _______ _____ _____    ______ ____
ROOT
ATOM      1  O   UNL     1      34.753 -24.477 -13.750  0.00  0.00    -0.246 OA
ATOM      2  N   UNL     1      34.294 -23.394 -15.813  0.00  0.00    -0.245 N 
ATOM      3  N   UNL     1      36.189 -22.843 -14.702  0.00  0.00    -0.274 N 
ATOM      4  N   UNL     1      34.609 -21.873 -17.733  0.00  0.00    -0.331 NA
ATOM      5  N   UNL     1      36.655 -20.557 -17.595  0.00  0.00    -0.181 NA
ATOM      6  C   UNL     1      34.970 -22.417 -16.566  0.00  0.00    +0.228 A 
ATOM      7  C   UNL     1      36.123 -22.090 -15.878  0.00  0.00    +0.132 A 
ATOM      8  C   UNL     1      35.040 -23.681 -14.633  0.00  0.00    +0.334 A 
ATOM      9  C   UNL     1      37.244 -22.781 -13.724  0.00  0.00    +0.135 C 
ATOM     10  C   UNL     1      36.955 -21.150 -16.419  0.00  0.00    +0.132 C 
ATOM     11  C   UNL     1      35.495 -20.956 -18.185  0.00  0.00    +0.089 C 
ENDROOT
BRANCH  11  12
ATOM     12  C   UNL     1      35.174 -20.324 -19.438  0.00  0.00    +0.074 C 
ATOM     13  C   UNL     1      33.873 -20.389 -19.946  0.00  0.00    +0.011 C 
ATOM     14  C   UNL     1      36.161 -19.638 -20.153  0.00  0.00    +0.011 C 
ATOM     15  C   UNL     1      33.562 -19.774 -21.159  0.00  0.00    +0.001 C 
ATOM     16  C   UNL     1      35.848 -19.025 -21.366  0.00  0.00    +0.001 C 
ATOM     17  C   UNL     1      34.550 -19.092 -21.870  0.00  0.00    +0.000 C 
ENDBRANCH  11  12
BRANCH   2  18
ATOM     18  C   UNL     1      33.043 -23.981 -16.214  0.00  0.00    +0.198 C 
BRANCH  18  21
ATOM     19  O   UNL     1      31.644 -22.071 -16.587  0.00  0.00    -0.273 OA
ATOM     20  N   UNL     1      31.170 -23.364 -14.720  0.00  0.00    -0.274 N 
ATOM     21  C   UNL     1      31.896 -23.045 -15.873  0.00  0.00    +0.249 C 
BRANCH  20  22
ATOM     22  C   UNL     1      31.488 -24.522 -13.893  0.00  0.00    +0.094 C 
ATOM     23  C   UNL     1      30.466 -24.715 -12.792  0.00  0.00    +0.023 C 
ENDBRANCH  20  22
BRANCH  20  24
ATOM     24  C   UNL     1      30.042 -22.559 -14.259  0.00  0.00    +0.120 C 
BRANCH  24  25
ATOM     25  C   UNL     1      28.870 -22.650 -15.193  0.00  0.00    -0.002 C 
ATOM     26  C   UNL     1      27.932 -21.624 -15.220  0.00  0.00    -0.003 C 
ATOM     27  C   UNL     1      28.733 -23.758 -16.021  0.00  0.00    -0.003 C 
ATOM     28  C   UNL     1      26.843 -21.707 -16.087  0.00  0.00    -0.000 C 
ATOM     29  C   UNL     1      27.643 -23.840 -16.889  0.00  0.00    -0.000 C 
ATOM     30  C   UNL     1      26.698 -22.816 -16.921  0.00  0.00    -0.000 C 
ENDBRANCH  24  25
ENDBRANCH  20  24
ENDBRANCH  18  21
ENDBRANCH   2  18
TORSDOF 6
ENDMDL
MODEL 7
REMARK VINA RESULT:      -9.5      1.643      2.915
REMARK  Name = 6433109
REMARK  6 active torsions:
REMARK  status: ('A' for Active; 'I' for Inactive)
REMARK    1  A    between atoms: N_2  and  C_18
REMARK    2  A    between atoms: C_11  and  C_12
REMARK    3  A    between atoms: C_18  and  C_21
REMARK    4  A    between atoms: N_20  and  C_22
REMARK    5  A    between atoms: N_20  and  C_24
REMARK    6  A    between atoms: C_24  and  C_25
REMARK                            x       y       z     vdW  Elec       q    Type
REMARK                         _______ _______ _______ _____ _____    ______ ____
ROOT
ATOM      1  O   UNL     1      31.251 -12.608 -20.119  0.00  0.00    -0.246 OA
ATOM      2  N   UNL     1      31.747 -11.224 -21.983  0.00  0.00    -0.245 N 
ATOM      3  N   UNL     1      31.446 -10.247 -19.962  0.00  0.00    -0.274 N 
ATOM      4  N   UNL     1      32.193  -9.157 -23.261  0.00  0.00    -0.331 NA
ATOM      5  N   UNL     1      32.118  -7.143 -21.891  0.00  0.00    -0.181 NA
ATOM      6  C   UNL     1      31.910  -9.836 -22.143  0.00  0.00    +0.228 A 
ATOM      7  C   UNL     1      31.725  -9.253 -20.903  0.00  0.00    +0.132 A 
ATOM      8  C   UNL     1      31.453 -11.511 -20.618  0.00  0.00    +0.334 A 
ATOM      9  C   UNL     1      31.195 -10.030 -18.561  0.00  0.00    +0.135 C 
ATOM     10  C   UNL     1      31.835  -7.894 -20.805  0.00  0.00    +0.132 C 
ATOM     11  C   UNL     1      32.281  -7.822 -23.059  0.00  0.00    +0.089 C 
ENDROOT
BRANCH  11  12
ATOM     12  C   UNL     1      32.581  -7.022 -24.218  0.00  0.00    +0.074 C 
ATOM     13  C   UNL     1      31.561  -6.643 -25.095  0.00  0.00    +0.011 C 
ATOM     14  C   UNL     1      33.895  -6.616 -24.471  0.00  0.00    +0.011 C 
ATOM     15  C   UNL     1      31.852  -5.866 -26.216  0.00  0.00    +0.001 C 
ATOM     16  C   UNL     1      34.185  -5.840 -25.593  0.00  0.00    +0.001 C 
ATOM     17  C   UNL     1      33.164  -5.464 -26.465  0.00  0.00    +0.000 C 
ENDBRANCH  11  12
BRANCH   2  18
ATOM     18  C   UNL     1      31.866 -12.167 -23.063  0.00  0.00    +0.198 C 
BRANCH  18  21
ATOM     19  O   UNL     1      33.906 -12.777 -21.963  0.00  0.00    -0.273 OA
ATOM     20  N   UNL     1      33.442 -13.844 -23.970  0.00  0.00    -0.274 N 
ATOM     21  C   UNL     1      33.164 -12.946 -22.933  0.00  0.00    +0.249 C 
BRANCH  20  22
ATOM     22  C   UNL     1      32.548 -14.026 -25.107  0.00  0.00    +0.094 C 
ATOM     23  C   UNL     1      32.860 -13.049 -26.221  0.00  0.00    +0.023 C 
ENDBRANCH  20  22
BRANCH  20  24
ATOM     24  C   UNL     1      34.651 -14.664 -23.991  0.00  0.00    +0.120 C 
BRANCH  24  25
ATOM     25  C   UNL     1      34.392 -16.058 -23.499  0.00  0.00    -0.002 C 
ATOM     26  C   UNL     1      33.792 -16.984 -24.344  0.00  0.00    -0.003 C 
ATOM     27  C   UNL     1      34.754 -16.410 -22.204  0.00  0.00    -0.003 C 
ATOM     28  C   UNL     1      33.550 -18.280 -23.889  0.00  0.00    -0.000 C 
ATOM     29  C   UNL     1      34.513 -17.706 -21.748  0.00  0.00    -0.000 C 
ATOM     30  C   UNL     1      33.910 -18.641 -22.590  0.00  0.00    -0.000 C 
ENDBRANCH  24  25
ENDBRANCH  20  24
ENDBRANCH  18  21
ENDBRANCH   2  18
TORSDOF 6
ENDMDL
MODEL 8
REMARK VINA RESULT:      -9.4     12.919     16.299
REMARK  Name = 6433109
REMARK  6 active torsions:
REMARK  status: ('A' for Active; 'I' for Inactive)
REMARK    1  A    between atoms: N_2  and  C_18
REMARK    2  A    between atoms: C_11  and  C_12
REMARK    3  A    between atoms: C_18  and  C_21
REMARK    4  A    between atoms: N_20  and  C_22
REMARK    5  A    between atoms: N_20  and  C_24
REMARK    6  A    between atoms: C_24  and  C_25
REMARK                            x       y       z     vdW  Elec       q    Type
REMARK                         _______ _______ _______ _____ _____    ______ ____
ROOT
ATOM      1  O   UNL     1      30.925 -24.789 -12.436  0.00  0.00    -0.246 OA
ATOM      2  N   UNL     1      32.381 -23.799 -14.029  0.00  0.00    -0.245 N 
ATOM      3  N   UNL     1      30.164 -23.860 -14.484  0.00  0.00    -0.274 N 
ATOM      4  N   UNL     1      33.092 -22.666 -16.106  0.00  0.00    -0.331 NA
ATOM      5  N   UNL     1      31.241 -22.155 -17.606  0.00  0.00    -0.181 NA
ATOM      6  C   UNL     1      32.179 -23.197 -15.283  0.00  0.00    +0.228 A 
ATOM      7  C   UNL     1      30.823 -23.240 -15.549  0.00  0.00    +0.132 A 
ATOM      8  C   UNL     1      31.128 -24.227 -13.503  0.00  0.00    +0.334 A 
ATOM      9  C   UNL     1      28.745 -24.090 -14.395  0.00  0.00    +0.135 C 
ATOM     10  C   UNL     1      30.377 -22.709 -16.727  0.00  0.00    +0.132 C 
ATOM     11  C   UNL     1      32.551 -22.167 -17.242  0.00  0.00    +0.089 C 
ENDROOT
BRANCH  11  12
ATOM     12  C   UNL     1      33.473 -21.579 -18.179  0.00  0.00    +0.074 C 
ATOM     13  C   UNL     1      34.851 -21.713 -17.989  0.00  0.00    +0.011 C 
ATOM     14  C   UNL     1      32.994 -20.873 -19.287  0.00  0.00    +0.011 C 
ATOM     15  C   UNL     1      35.744 -21.145 -18.899  0.00  0.00    +0.001 C 
ATOM     16  C   UNL     1      33.887 -20.305 -20.195  0.00  0.00    +0.001 C 
ATOM     17  C   UNL     1      35.262 -20.441 -20.002  0.00  0.00    +0.000 C 
ENDBRANCH  11  12
BRANCH   2  18
ATOM     18  C   UNL     1      33.675 -23.940 -13.415  0.00  0.00    +0.198 C 
BRANCH  18  21
ATOM     19  O   UNL     1      34.587 -25.051 -15.333  0.00  0.00    -0.273 OA
ATOM     20  N   UNL     1      35.855 -23.338 -14.417  0.00  0.00    -0.274 N 
ATOM     21  C   UNL     1      34.734 -24.173 -14.480  0.00  0.00    +0.249 C 
BRANCH  20  22
ATOM     22  C   UNL     1      36.005 -22.307 -13.397  0.00  0.00    +0.094 C 
ATOM     23  C   UNL     1      36.689 -22.846 -12.158  0.00  0.00    +0.023 C 
ENDBRANCH  20  22
BRANCH  20  24
ATOM     24  C   UNL     1      36.960 -23.439 -15.368  0.00  0.00    +0.120 C 
BRANCH  24  25
ATOM     25  C   UNL     1      38.073 -24.299 -14.845  0.00  0.00    -0.002 C 
ATOM     26  C   UNL     1      39.362 -23.782 -14.766  0.00  0.00    -0.003 C 
ATOM     27  C   UNL     1      37.807 -25.603 -14.445  0.00  0.00    -0.003 C 
ATOM     28  C   UNL     1      40.397 -24.580 -14.280  0.00  0.00    -0.000 C 
ATOM     29  C   UNL     1      38.843 -26.401 -13.959  0.00  0.00    -0.000 C 
ATOM     30  C   UNL     1      40.138 -25.890 -13.877  0.00  0.00    -0.000 C 
ENDBRANCH  24  25
ENDBRANCH  20  24
ENDBRANCH  18  21
ENDBRANCH   2  18
TORSDOF 6
ENDMDL
MODEL 9
REMARK VINA RESULT:      -9.4      2.044      3.597
REMARK  Name = 6433109
REMARK  6 active torsions:
REMARK  status: ('A' for Active; 'I' for Inactive)
REMARK    1  A    between atoms: N_2  and  C_18
REMARK    2  A    between atoms: C_11  and  C_12
REMARK    3  A    between atoms: C_18  and  C_21
REMARK    4  A    between atoms: N_20  and  C_22
REMARK    5  A    between atoms: N_20  and  C_24
REMARK    6  A    between atoms: C_24  and  C_25
REMARK                            x       y       z     vdW  Elec       q    Type
REMARK                         _______ _______ _______ _____ _____    ______ ____
ROOT
ATOM      1  O   UNL     1      30.806  -5.247 -20.389  0.00  0.00    -0.246 OA
ATOM      2  N   UNL     1      32.325  -5.526 -22.192  0.00  0.00    -0.245 N 
ATOM      3  N   UNL     1      30.967  -3.715 -22.195  0.00  0.00    -0.274 N 
ATOM      4  N   UNL     1      33.496  -5.037 -24.311  0.00  0.00    -0.331 NA
ATOM      5  N   UNL     1      32.733  -2.986 -25.382  0.00  0.00    -0.181 NA
ATOM      6  C   UNL     1      32.603  -4.777 -23.349  0.00  0.00    +0.228 A 
ATOM      7  C   UNL     1      31.768  -3.675 -23.339  0.00  0.00    +0.132 A 
ATOM      8  C   UNL     1      31.298  -4.879 -21.446  0.00  0.00    +0.334 A 
ATOM      9  C   UNL     1      29.972  -2.738 -21.833  0.00  0.00    +0.135 C 
ATOM     10  C   UNL     1      31.854  -2.788 -24.375  0.00  0.00    +0.132 C 
ATOM     11  C   UNL     1      33.504  -4.102 -25.290  0.00  0.00    +0.089 C 
ENDROOT
BRANCH  11  12
ATOM     12  C   UNL     1      34.440  -4.313 -26.363  0.00  0.00    +0.074 C 
ATOM     13  C   UNL     1      34.018  -4.902 -27.559  0.00  0.00    +0.011 C 
ATOM     14  C   UNL     1      35.776  -3.928 -26.218  0.00  0.00    +0.011 C 
ATOM     15  C   UNL     1      34.924  -5.104 -28.600  0.00  0.00    +0.001 C 
ATOM     16  C   UNL     1      36.682  -4.131 -27.260  0.00  0.00    +0.001 C 
ATOM     17  C   UNL     1      36.256  -4.719 -28.451  0.00  0.00    +0.000 C 
ENDBRANCH  11  12
BRANCH   2  18
ATOM     18  C   UNL     1      33.001  -6.752 -21.858  0.00  0.00    +0.198 C 
BRANCH  18  21
ATOM     19  O   UNL     1      32.076  -8.105 -23.607  0.00  0.00    -0.273 OA
ATOM     20  N   UNL     1      31.687  -8.803 -21.428  0.00  0.00    -0.274 N 
ATOM     21  C   UNL     1      32.219  -7.939 -22.393  0.00  0.00    +0.249 C 
BRANCH  20  22
ATOM     22  C   UNL     1      31.870  -8.585 -19.999  0.00  0.00    +0.094 C 
ATOM     23  C   UNL     1      30.699  -9.120 -19.201  0.00  0.00    +0.023 C 
ENDBRANCH  20  22
BRANCH  20  24
ATOM     24  C   UNL     1      30.909  -9.987 -21.784  0.00  0.00    +0.120 C 
BRANCH  24  25
ATOM     25  C   UNL     1      31.756 -11.226 -21.819  0.00  0.00    -0.002 C 
ATOM     26  C   UNL     1      31.645 -12.163 -20.798  0.00  0.00    -0.003 C 
ATOM     27  C   UNL     1      32.643 -11.424 -22.870  0.00  0.00    -0.003 C 
ATOM     28  C   UNL     1      32.432 -13.314 -20.829  0.00  0.00    -0.000 C 
ATOM     29  C   UNL     1      33.430 -12.576 -22.901  0.00  0.00    -0.000 C 
ATOM     30  C   UNL     1      33.325 -13.521 -21.881  0.00  0.00    -0.000 C 
ENDBRANCH  24  25
ENDBRANCH  20  24
ENDBRANCH  18  21
ENDBRANCH   2  18
TORSDOF 6
ENDMDL
