MODEL 1
REMARK VINA RESULT:     -11.8      0.000      0.000
REMARK  Name = 87517
REMARK  6 active torsions:
REMARK  status: ('A' for Active; 'I' for Inactive)
REMARK    1  A    between atoms: C_3  and  C_13
REMARK    2  A    between atoms: C_4  and  O_22
REMARK    3  A    between atoms: N_12  and  C_16
REMARK    4  A    between atoms: O_22  and  P_23
REMARK    5  A    between atoms: P_23  and  O_25
REMARK    6  A    between atoms: P_23  and  O_27
REMARK                            x       y       z     vdW  Elec       q    Type
REMARK                         _______ _______ _______ _____ _____    ______ ____
ROOT
ATOM      1  C   UNL     1      34.312 -19.727 -20.673  0.00  0.00    +0.000 C 
ATOM      2  C   UNL     1      35.689 -19.580 -20.385  0.00  0.00    +0.003 C 
ATOM      3  C   UNL     1      34.151 -21.452 -18.965  0.00  0.00    +0.088 C 
ATOM      4  C   UNL     1      35.506 -21.307 -18.682  0.00  0.00    +0.153 C 
ATOM      5  C   UNL     1      33.557 -20.668 -19.953  0.00  0.00    +0.008 C 
ATOM      6  C   UNL     1      36.271 -20.378 -19.387  0.00  0.00    +0.038 C 
ATOM      7  C   UNL     1      33.730 -18.929 -21.671  0.00  0.00    +0.000 C 
ATOM      8  C   UNL     1      36.445 -18.640 -21.106  0.00  0.00    +0.000 C 
ATOM      9  C   UNL     1      34.495 -17.999 -22.376  0.00  0.00    +0.000 C 
ATOM     10  C   UNL     1      35.850 -17.855 -22.094  0.00  0.00    +0.000 C 
ENDROOT
BRANCH   3  13
ATOM     11  O   UNL     1      33.173 -23.548 -18.721  0.00  0.00    -0.270 OA
ATOM     12  N   UNL     1      32.813 -21.976 -17.017  0.00  0.00    -0.280 N 
ATOM     13  C   UNL     1      33.335 -22.417 -18.240  0.00  0.00    +0.252 C 
ATOM     14  H   UNL     1      33.029 -21.049 -16.767  0.00  0.00    +0.155 HD
BRANCH  12  16
ATOM     15 CL   UNL     1      29.479 -24.962 -13.162  0.00  0.00    -0.082 Cl
ATOM     16  C   UNL     1      32.014 -22.693 -16.093  0.00  0.00    +0.051 C 
ATOM     17  C   UNL     1      32.618 -23.307 -15.009  0.00  0.00    +0.016 C 
ATOM     18  C   UNL     1      30.645 -22.762 -16.294  0.00  0.00    +0.016 C 
ATOM     19  C   UNL     1      31.831 -24.012 -14.099  0.00  0.00    +0.013 C 
ATOM     20  C   UNL     1      29.858 -23.467 -15.383  0.00  0.00    +0.013 C 
ATOM     21  C   UNL     1      30.451 -24.092 -14.286  0.00  0.00    +0.058 C 
ENDBRANCH  12  16
ENDBRANCH   3  13
BRANCH   4  22
ATOM     22  O   UNL     1      36.105 -22.064 -17.720  0.00  0.00    -0.403 OA
BRANCH  22  23
ATOM     23  P   UNL     1      36.551 -21.531 -16.259  0.00  0.00    +0.528 P 
ATOM     24  O   UNL     1      35.489 -21.593 -15.201  0.00  0.00    -0.216 OA
BRANCH  23  25
ATOM     25  O   UNL     1      37.909 -22.349 -15.938  0.00  0.00    -0.293 OA
ATOM     26  H   UNL     1      37.755 -23.298 -16.071  0.00  0.00    +0.223 HD
ENDBRANCH  23  25
BRANCH  23  27
ATOM     27  O   UNL     1      37.094 -20.039 -16.575  0.00  0.00    -0.293 OA
ATOM     28  H   UNL     1      37.826 -20.089 -17.209  0.00  0.00    +0.223 HD
ENDBRANCH  23  27
ENDBRANCH  22  23
ENDBRANCH   4  22
TORSDOF 6
ENDMDL
MODEL 2
REMARK VINA RESULT:     -10.9      4.162      7.549
REMARK  Name = 87517
REMARK  6 active torsions:
REMARK  status: ('A' for Active; 'I' for Inactive)
REMARK    1  A    between atoms: C_3  and  C_13
REMARK    2  A    between atoms: C_4  and  O_22
REMARK    3  A    between atoms: N_12  and  C_16
REMARK    4  A    between atoms: O_22  and  P_23
REMARK    5  A    between atoms: P_23  and  O_25
REMARK    6  A    between atoms: P_23  and  O_27
REMARK                            x       y       z     vdW  Elec       q    Type
REMARK                         _______ _______ _______ _____ _____    ______ ____
ROOT
ATOM      1  C   UNL     1      37.497 -23.563 -15.067  0.00  0.00    +0.000 C 
ATOM      2  C   UNL     1      36.278 -24.088 -14.575  0.00  0.00    +0.003 C 
ATOM      3  C   UNL     1      36.250 -21.983 -16.434  0.00  0.00    +0.088 C 
ATOM      4  C   UNL     1      35.052 -22.499 -15.950  0.00  0.00    +0.153 C 
ATOM      5  C   UNL     1      37.465 -22.510 -15.997  0.00  0.00    +0.008 C 
ATOM      6  C   UNL     1      35.064 -23.545 -15.027  0.00  0.00    +0.038 C 
ATOM      7  C   UNL     1      38.710 -24.106 -14.615  0.00  0.00    +0.000 C 
ATOM      8  C   UNL     1      36.310 -25.141 -13.646  0.00  0.00    +0.000 C 
ATOM      9  C   UNL     1      38.723 -25.151 -13.691  0.00  0.00    +0.000 C 
ATOM     10  C   UNL     1      37.525 -25.668 -13.208  0.00  0.00    +0.000 C 
ENDROOT
BRANCH   3  13
ATOM     11  O   UNL     1      36.964 -19.897 -17.176  0.00  0.00    -0.270 OA
ATOM     12  N   UNL     1      35.462 -21.079 -18.537  0.00  0.00    -0.280 N 
ATOM     13  C   UNL     1      36.258 -20.892 -17.399  0.00  0.00    +0.252 C 
ATOM     14  H   UNL     1      34.956 -21.923 -18.573  0.00  0.00    +0.155 HD
BRANCH  12  16
ATOM     15 CL   UNL     1      34.750 -17.463 -23.152  0.00  0.00    -0.082 Cl
ATOM     16  C   UNL     1      35.291 -20.211 -19.643  0.00  0.00    +0.051 C 
ATOM     17  C   UNL     1      36.364 -19.452 -20.080  0.00  0.00    +0.016 C 
ATOM     18  C   UNL     1      34.055 -20.143 -20.264  0.00  0.00    +0.016 C 
ATOM     19  C   UNL     1      36.195 -18.598 -21.169  0.00  0.00    +0.013 C 
ATOM     20  C   UNL     1      33.888 -19.288 -21.354  0.00  0.00    +0.013 C 
ATOM     21  C   UNL     1      34.958 -18.516 -21.806  0.00  0.00    +0.058 C 
ENDBRANCH  12  16
ENDBRANCH   3  13
BRANCH   4  22
ATOM     22  O   UNL     1      33.855 -21.997 -16.365  0.00  0.00    -0.403 OA
BRANCH  22  23
ATOM     23  P   UNL     1      32.767 -22.798 -17.255  0.00  0.00    +0.528 P 
ATOM     24  O   UNL     1      33.339 -23.728 -18.285  0.00  0.00    -0.216 OA
BRANCH  23  25
ATOM     25  O   UNL     1      31.787 -23.479 -16.164  0.00  0.00    -0.293 OA
ATOM     26  H   UNL     1      31.986 -24.426 -16.096  0.00  0.00    +0.223 HD
ENDBRANCH  23  25
BRANCH  23  27
ATOM     27  O   UNL     1      31.858 -21.605 -17.864  0.00  0.00    -0.293 OA
ATOM     28  H   UNL     1      32.138 -20.758 -17.483  0.00  0.00    +0.223 HD
ENDBRANCH  23  27
ENDBRANCH  22  23
ENDBRANCH   4  22
TORSDOF 6
ENDMDL
MODEL 3
REMARK VINA RESULT:     -10.3      2.970      7.157
REMARK  Name = 87517
REMARK  6 active torsions:
REMARK  status: ('A' for Active; 'I' for Inactive)
REMARK    1  A    between atoms: C_3  and  C_13
REMARK    2  A    between atoms: C_4  and  O_22
REMARK    3  A    between atoms: N_12  and  C_16
REMARK    4  A    between atoms: O_22  and  P_23
REMARK    5  A    between atoms: P_23  and  O_25
REMARK    6  A    between atoms: P_23  and  O_27
REMARK                            x       y       z     vdW  Elec       q    Type
REMARK                         _______ _______ _______ _____ _____    ______ ____
ROOT
ATOM      1  C   UNL     1      31.109 -23.608 -15.416  0.00  0.00    +0.000 C 
ATOM      2  C   UNL     1      32.053 -23.790 -14.377  0.00  0.00    +0.003 C 
ATOM      3  C   UNL     1      32.904 -22.948 -16.918  0.00  0.00    +0.088 C 
ATOM      4  C   UNL     1      33.833 -23.126 -15.897  0.00  0.00    +0.153 C 
ATOM      5  C   UNL     1      31.551 -23.187 -16.680  0.00  0.00    +0.008 C 
ATOM      6  C   UNL     1      33.412 -23.544 -14.635  0.00  0.00    +0.038 C 
ATOM      7  C   UNL     1      29.750 -23.854 -15.158  0.00  0.00    +0.000 C 
ATOM      8  C   UNL     1      31.611 -24.210 -13.113  0.00  0.00    +0.000 C 
ATOM      9  C   UNL     1      29.329 -24.273 -13.896  0.00  0.00    +0.000 C 
ATOM     10  C   UNL     1      30.258 -24.450 -12.875  0.00  0.00    +0.000 C 
ENDROOT
BRANCH   3  13
ATOM     11  O   UNL     1      33.355 -23.339 -19.167  0.00  0.00    -0.270 OA
ATOM     12  N   UNL     1      33.644 -21.154 -18.364  0.00  0.00    -0.280 N 
ATOM     13  C   UNL     1      33.325 -22.512 -18.243  0.00  0.00    +0.252 C 
ATOM     14  H   UNL     1      33.573 -20.621 -17.540  0.00  0.00    +0.155 HD
BRANCH  12  16
ATOM     15 CL   UNL     1      35.363 -18.205 -23.185  0.00  0.00    -0.082 Cl
ATOM     16  C   UNL     1      34.056 -20.447 -19.521  0.00  0.00    +0.051 C 
ATOM     17  C   UNL     1      33.098 -19.955 -20.391  0.00  0.00    +0.016 C 
ATOM     18  C   UNL     1      35.409 -20.262 -19.754  0.00  0.00    +0.016 C 
ATOM     19  C   UNL     1      33.504 -19.259 -21.529  0.00  0.00    +0.013 C 
ATOM     20  C   UNL     1      35.814 -19.566 -20.893  0.00  0.00    +0.013 C 
ATOM     21  C   UNL     1      34.862 -19.065 -21.780  0.00  0.00    +0.058 C 
ENDBRANCH  12  16
ENDBRANCH   3  13
BRANCH   4  22
ATOM     22  O   UNL     1      35.160 -22.898 -16.111  0.00  0.00    -0.403 OA
BRANCH  22  23
ATOM     23  P   UNL     1      36.345 -23.249 -15.067  0.00  0.00    +0.528 P 
ATOM     24  O   UNL     1      36.161 -22.707 -13.680  0.00  0.00    -0.216 OA
BRANCH  23  25
ATOM     25  O   UNL     1      36.506 -24.854 -15.177  0.00  0.00    -0.293 OA
ATOM     26  H   UNL     1      36.668 -25.101 -16.101  0.00  0.00    +0.223 HD
ENDBRANCH  23  25
BRANCH  23  27
ATOM     27  O   UNL     1      37.664 -22.700 -15.829  0.00  0.00    -0.293 OA
ATOM     28  H   UNL     1      38.212 -23.451 -16.108  0.00  0.00    +0.223 HD
ENDBRANCH  23  27
ENDBRANCH  22  23
ENDBRANCH   4  22
TORSDOF 6
ENDMDL
MODEL 4
REMARK VINA RESULT:      -9.8      4.336      7.681
REMARK  Name = 87517
REMARK  6 active torsions:
REMARK  status: ('A' for Active; 'I' for Inactive)
REMARK    1  A    between atoms: C_3  and  C_13
REMARK    2  A    between atoms: C_4  and  O_22
REMARK    3  A    between atoms: N_12  and  C_16
REMARK    4  A    between atoms: O_22  and  P_23
REMARK    5  A    between atoms: P_23  and  O_25
REMARK    6  A    between atoms: P_23  and  O_27
REMARK                            x       y       z     vdW  Elec       q    Type
REMARK                         _______ _______ _______ _____ _____    ______ ____
ROOT
ATOM      1  C   UNL     1      36.290 -24.225 -14.150  0.00  0.00    +0.000 C 
ATOM      2  C   UNL     1      35.471 -24.241 -12.996  0.00  0.00    +0.003 C 
ATOM      3  C   UNL     1      34.456 -23.260 -15.424  0.00  0.00    +0.088 C 
ATOM      4  C   UNL     1      33.651 -23.276 -14.290  0.00  0.00    +0.153 C 
ATOM      5  C   UNL     1      35.768 -23.731 -15.356  0.00  0.00    +0.008 C 
ATOM      6  C   UNL     1      34.153 -23.764 -13.084  0.00  0.00    +0.038 C 
ATOM      7  C   UNL     1      37.608 -24.702 -14.062  0.00  0.00    +0.000 C 
ATOM      8  C   UNL     1      35.993 -24.736 -11.790  0.00  0.00    +0.000 C 
ATOM      9  C   UNL     1      38.111 -25.188 -12.856  0.00  0.00    +0.000 C 
ATOM     10  C   UNL     1      37.305 -25.206 -11.722  0.00  0.00    +0.000 C 
ENDROOT
BRANCH   3  13
ATOM     11  O   UNL     1      32.844 -23.147 -17.097  0.00  0.00    -0.270 OA
ATOM     12  N   UNL     1      34.769 -21.830 -17.352  0.00  0.00    -0.280 N 
ATOM     13  C   UNL     1      33.950 -22.756 -16.694  0.00  0.00    +0.252 C 
ATOM     14  H   UNL     1      35.621 -21.617 -16.906  0.00  0.00    +0.155 HD
BRANCH  12  16
ATOM     15 CL   UNL     1      33.774 -19.029 -22.456  0.00  0.00    -0.082 Cl
ATOM     16  C   UNL     1      34.530 -21.158 -18.576  0.00  0.00    +0.051 C 
ATOM     17  C   UNL     1      33.226 -20.963 -18.998  0.00  0.00    +0.016 C 
ATOM     18  C   UNL     1      35.607 -20.711 -19.323  0.00  0.00    +0.016 C 
ATOM     19  C   UNL     1      32.991 -20.302 -20.203  0.00  0.00    +0.013 C 
ATOM     20  C   UNL     1      35.371 -20.050 -20.529  0.00  0.00    +0.013 C 
ATOM     21  C   UNL     1      34.064 -19.846 -20.969  0.00  0.00    +0.058 C 
ENDBRANCH  12  16
ENDBRANCH   3  13
BRANCH   4  22
ATOM     22  O   UNL     1      32.367 -22.821 -14.337  0.00  0.00    -0.403 OA
BRANCH  22  23
ATOM     23  P   UNL     1      31.069 -23.636 -13.819  0.00  0.00    +0.528 P 
ATOM     24  O   UNL     1      31.172 -25.130 -13.908  0.00  0.00    -0.216 OA
BRANCH  23  25
ATOM     25  O   UNL     1      30.791 -23.039 -12.342  0.00  0.00    -0.293 OA
ATOM     26  H   UNL     1      31.493 -23.329 -11.738  0.00  0.00    +0.223 HD
ENDBRANCH  23  25
BRANCH  23  27
ATOM     27  O   UNL     1      29.872 -22.995 -14.700  0.00  0.00    -0.293 OA
ATOM     28  H   UNL     1      29.088 -22.876 -14.141  0.00  0.00    +0.223 HD
ENDBRANCH  23  27
ENDBRANCH  22  23
ENDBRANCH   4  22
TORSDOF 6
ENDMDL
MODEL 5
REMARK VINA RESULT:      -9.5      4.595      7.179
REMARK  Name = 87517
REMARK  6 active torsions:
REMARK  status: ('A' for Active; 'I' for Inactive)
REMARK    1  A    between atoms: C_3  and  C_13
REMARK    2  A    between atoms: C_4  and  O_22
REMARK    3  A    between atoms: N_12  and  C_16
REMARK    4  A    between atoms: O_22  and  P_23
REMARK    5  A    between atoms: P_23  and  O_25
REMARK    6  A    between atoms: P_23  and  O_27
REMARK                            x       y       z     vdW  Elec       q    Type
REMARK                         _______ _______ _______ _____ _____    ______ ____
ROOT
ATOM      1  C   UNL     1      30.692 -23.598 -14.805  0.00  0.00    +0.000 C 
ATOM      2  C   UNL     1      30.268 -22.981 -16.005  0.00  0.00    +0.003 C 
ATOM      3  C   UNL     1      33.001 -23.079 -15.366  0.00  0.00    +0.088 C 
ATOM      4  C   UNL     1      32.584 -22.472 -16.547  0.00  0.00    +0.153 C 
ATOM      5  C   UNL     1      32.062 -23.638 -14.500  0.00  0.00    +0.008 C 
ATOM      6  C   UNL     1      31.228 -22.423 -16.866  0.00  0.00    +0.038 C 
ATOM      7  C   UNL     1      29.732 -24.156 -13.944  0.00  0.00    +0.000 C 
ATOM      8  C   UNL     1      28.898 -22.942 -16.311  0.00  0.00    +0.000 C 
ATOM      9  C   UNL     1      28.375 -24.106 -14.262  0.00  0.00    +0.000 C 
ATOM     10  C   UNL     1      27.959 -23.501 -15.444  0.00  0.00    +0.000 C 
ENDROOT
BRANCH   3  13
ATOM     11  O   UNL     1      34.994 -22.099 -14.673  0.00  0.00    -0.270 OA
ATOM     12  N   UNL     1      35.002 -24.410 -15.077  0.00  0.00    -0.280 N 
ATOM     13  C   UNL     1      34.414 -23.140 -15.016  0.00  0.00    +0.252 C 
ATOM     14  H   UNL     1      34.412 -25.143 -15.369  0.00  0.00    +0.155 HD
BRANCH  12  16
ATOM     15 CL   UNL     1      40.564 -25.942 -13.810  0.00  0.00    -0.082 Cl
ATOM     16  C   UNL     1      36.336 -24.777 -14.774  0.00  0.00    +0.051 C 
ATOM     17  C   UNL     1      37.346 -23.843 -14.925  0.00  0.00    +0.016 C 
ATOM     18  C   UNL     1      36.599 -26.063 -14.331  0.00  0.00    +0.016 C 
ATOM     19  C   UNL     1      38.659 -24.205 -14.626  0.00  0.00    +0.013 C 
ATOM     20  C   UNL     1      37.913 -26.424 -14.032  0.00  0.00    +0.013 C 
ATOM     21  C   UNL     1      38.943 -25.495 -14.180  0.00  0.00    +0.058 C 
ENDBRANCH  12  16
ENDBRANCH   3  13
BRANCH   4  22
ATOM     22  O   UNL     1      33.487 -21.919 -17.406  0.00  0.00    -0.403 OA
BRANCH  22  23
ATOM     23  P   UNL     1      33.439 -22.050 -19.018  0.00  0.00    +0.528 P 
ATOM     24  O   UNL     1      32.290 -21.352 -19.685  0.00  0.00    -0.216 OA
BRANCH  23  25
ATOM     25  O   UNL     1      34.913 -21.586 -19.496  0.00  0.00    -0.293 OA
ATOM     26  H   UNL     1      35.080 -20.678 -19.196  0.00  0.00    +0.223 HD
ENDBRANCH  23  25
BRANCH  23  27
ATOM     27  O   UNL     1      33.472 -23.652 -19.247  0.00  0.00    -0.293 OA
ATOM     28  H   UNL     1      33.231 -23.852 -20.164  0.00  0.00    +0.223 HD
ENDBRANCH  23  27
ENDBRANCH  22  23
ENDBRANCH   4  22
TORSDOF 6
ENDMDL
MODEL 6
REMARK VINA RESULT:      -9.1      4.002      7.448
REMARK  Name = 87517
REMARK  6 active torsions:
REMARK  status: ('A' for Active; 'I' for Inactive)
REMARK    1  A    between atoms: C_3  and  C_13
REMARK    2  A    between atoms: C_4  and  O_22
REMARK    3  A    between atoms: N_12  and  C_16
REMARK    4  A    between atoms: O_22  and  P_23
REMARK    5  A    between atoms: P_23  and  O_25
REMARK    6  A    between atoms: P_23  and  O_27
REMARK                            x       y       z     vdW  Elec       q    Type
REMARK                         _______ _______ _______ _____ _____    ______ ____
ROOT
ATOM      1  C   UNL     1      35.488 -22.840 -14.826  0.00  0.00    +0.000 C 
ATOM      2  C   UNL     1      34.377 -23.265 -14.059  0.00  0.00    +0.003 C 
ATOM      3  C   UNL     1      34.034 -22.565 -16.757  0.00  0.00    +0.088 C 
ATOM      4  C   UNL     1      32.942 -22.983 -16.003  0.00  0.00    +0.153 C 
ATOM      5  C   UNL     1      35.299 -22.493 -16.174  0.00  0.00    +0.008 C 
ATOM      6  C   UNL     1      33.111 -23.332 -14.663  0.00  0.00    +0.038 C 
ATOM      7  C   UNL     1      36.754 -22.773 -14.222  0.00  0.00    +0.000 C 
ATOM      8  C   UNL     1      34.566 -23.613 -12.712  0.00  0.00    +0.000 C 
ATOM      9  C   UNL     1      36.923 -23.121 -12.882  0.00  0.00    +0.000 C 
ATOM     10  C   UNL     1      35.831 -23.540 -12.128  0.00  0.00    +0.000 C 
ENDROOT
BRANCH   3  13
ATOM     11  O   UNL     1      33.386 -23.021 -18.944  0.00  0.00    -0.270 OA
ATOM     12  N   UNL     1      34.286 -20.901 -18.497  0.00  0.00    -0.280 N 
ATOM     13  C   UNL     1      33.878 -22.197 -18.158  0.00  0.00    +0.252 C 
ATOM     14  H   UNL     1      34.659 -20.362 -17.762  0.00  0.00    +0.155 HD
BRANCH  12  16
ATOM     15 CL   UNL     1      34.063 -18.246 -23.768  0.00  0.00    -0.082 Cl
ATOM     16  C   UNL     1      34.232 -20.264 -19.761  0.00  0.00    +0.051 C 
ATOM     17  C   UNL     1      35.412 -19.873 -20.372  0.00  0.00    +0.016 C 
ATOM     18  C   UNL     1      33.002 -20.048 -20.358  0.00  0.00    +0.016 C 
ATOM     19  C   UNL     1      35.359 -19.247 -21.617  0.00  0.00    +0.013 C 
ATOM     20  C   UNL     1      32.950 -19.420 -21.603  0.00  0.00    +0.013 C 
ATOM     21  C   UNL     1      34.128 -19.020 -22.232  0.00  0.00    +0.058 C 
ENDBRANCH  12  16
ENDBRANCH   3  13
BRANCH   4  22
ATOM     22  O   UNL     1      31.698 -23.059 -16.555  0.00  0.00    -0.403 OA
BRANCH  22  23
ATOM     23  P   UNL     1      30.308 -23.006 -15.730  0.00  0.00    +0.528 P 
ATOM     24  O   UNL     1      29.776 -24.335 -15.281  0.00  0.00    -0.216 OA
BRANCH  23  25
ATOM     25  O   UNL     1      30.586 -21.930 -14.555  0.00  0.00    -0.293 OA
ATOM     26  H   UNL     1      31.136 -21.208 -14.900  0.00  0.00    +0.223 HD
ENDBRANCH  23  25
BRANCH  23  27
ATOM     27  O   UNL     1      29.328 -22.199 -16.735  0.00  0.00    -0.293 OA
ATOM     28  H   UNL     1      28.405 -22.360 -16.485  0.00  0.00    +0.223 HD
ENDBRANCH  23  27
ENDBRANCH  22  23
ENDBRANCH   4  22
TORSDOF 6
ENDMDL
MODEL 7
REMARK VINA RESULT:      -9.1      3.297      4.577
REMARK  Name = 87517
REMARK  6 active torsions:
REMARK  status: ('A' for Active; 'I' for Inactive)
REMARK    1  A    between atoms: C_3  and  C_13
REMARK    2  A    between atoms: C_4  and  O_22
REMARK    3  A    between atoms: N_12  and  C_16
REMARK    4  A    between atoms: O_22  and  P_23
REMARK    5  A    between atoms: P_23  and  O_25
REMARK    6  A    between atoms: P_23  and  O_27
REMARK                            x       y       z     vdW  Elec       q    Type
REMARK                         _______ _______ _______ _____ _____    ______ ____
ROOT
ATOM      1  C   UNL     1      34.985 -20.874 -18.903  0.00  0.00    +0.000 C 
ATOM      2  C   UNL     1      33.693 -20.932 -19.479  0.00  0.00    +0.003 C 
ATOM      3  C   UNL     1      34.256 -22.384 -17.141  0.00  0.00    +0.088 C 
ATOM      4  C   UNL     1      32.985 -22.441 -17.706  0.00  0.00    +0.153 C 
ATOM      5  C   UNL     1      35.250 -21.606 -17.735  0.00  0.00    +0.008 C 
ATOM      6  C   UNL     1      32.704 -21.720 -18.867  0.00  0.00    +0.038 C 
ATOM      7  C   UNL     1      35.973 -20.086 -19.515  0.00  0.00    +0.000 C 
ATOM      8  C   UNL     1      33.428 -20.200 -20.647  0.00  0.00    +0.000 C 
ATOM      9  C   UNL     1      35.693 -19.366 -20.676  0.00  0.00    +0.000 C 
ATOM     10  C   UNL     1      34.422 -19.422 -21.241  0.00  0.00    +0.000 C 
ENDROOT
BRANCH   3  13
ATOM     11  O   UNL     1      34.766 -24.351 -16.009  0.00  0.00    -0.270 OA
ATOM     12  N   UNL     1      34.642 -22.374 -14.752  0.00  0.00    -0.280 N 
ATOM     13  C   UNL     1      34.568 -23.129 -15.929  0.00  0.00    +0.252 C 
ATOM     14  H   UNL     1      34.459 -21.411 -14.847  0.00  0.00    +0.155 HD
BRANCH  12  16
ATOM     15 CL   UNL     1      35.914 -24.214  -9.285  0.00  0.00    -0.082 Cl
ATOM     16  C   UNL     1      34.948 -22.816 -13.441  0.00  0.00    +0.051 C 
ATOM     17  C   UNL     1      36.162 -22.467 -12.875  0.00  0.00    +0.016 C 
ATOM     18  C   UNL     1      34.023 -23.585 -12.754  0.00  0.00    +0.016 C 
ATOM     19  C   UNL     1      36.463 -22.902 -11.585  0.00  0.00    +0.013 C 
ATOM     20  C   UNL     1      34.325 -24.020 -11.463  0.00  0.00    +0.013 C 
ATOM     21  C   UNL     1      35.544 -23.678 -10.879  0.00  0.00    +0.058 C 
ENDBRANCH  12  16
ENDBRANCH   3  13
BRANCH   4  22
ATOM     22  O   UNL     1      32.001 -23.196 -17.141  0.00  0.00    -0.403 OA
BRANCH  22  23
ATOM     23  P   UNL     1      30.950 -22.674 -16.028  0.00  0.00    +0.528 P 
ATOM     24  O   UNL     1      31.559 -21.981 -14.845  0.00  0.00    -0.216 OA
BRANCH  23  25
ATOM     25  O   UNL     1      29.877 -21.807 -16.872  0.00  0.00    -0.293 OA
ATOM     26  H   UNL     1      29.809 -20.917 -16.492  0.00  0.00    +0.223 HD
ENDBRANCH  23  25
BRANCH  23  27
ATOM     27  O   UNL     1      30.123 -24.017 -15.662  0.00  0.00    -0.293 OA
ATOM     28  H   UNL     1      29.777 -23.947 -14.759  0.00  0.00    +0.223 HD
ENDBRANCH  23  27
ENDBRANCH  22  23
ENDBRANCH   4  22
TORSDOF 6
ENDMDL
MODEL 8
REMARK VINA RESULT:      -8.9     11.328     14.054
REMARK  Name = 87517
REMARK  6 active torsions:
REMARK  status: ('A' for Active; 'I' for Inactive)
REMARK    1  A    between atoms: C_3  and  C_13
REMARK    2  A    between atoms: C_4  and  O_22
REMARK    3  A    between atoms: N_12  and  C_16
REMARK    4  A    between atoms: O_22  and  P_23
REMARK    5  A    between atoms: P_23  and  O_25
REMARK    6  A    between atoms: P_23  and  O_27
REMARK                            x       y       z     vdW  Elec       q    Type
REMARK                         _______ _______ _______ _____ _____    ______ ____
ROOT
ATOM      1  C   UNL     1      31.699  -5.987 -23.635  0.00  0.00    +0.000 C 
ATOM      2  C   UNL     1      31.196  -5.783 -22.328  0.00  0.00    +0.003 C 
ATOM      3  C   UNL     1      32.516  -8.178 -22.964  0.00  0.00    +0.088 C 
ATOM      4  C   UNL     1      32.023  -7.977 -21.679  0.00  0.00    +0.153 C 
ATOM      5  C   UNL     1      32.356  -7.191 -23.937  0.00  0.00    +0.008 C 
ATOM      6  C   UNL     1      31.367  -6.787 -21.361  0.00  0.00    +0.038 C 
ATOM      7  C   UNL     1      31.527  -4.983 -24.601  0.00  0.00    +0.000 C 
ATOM      8  C   UNL     1      30.539  -4.579 -22.025  0.00  0.00    +0.000 C 
ATOM      9  C   UNL     1      30.871  -3.793 -24.283  0.00  0.00    +0.000 C 
ATOM     10  C   UNL     1      30.378  -3.592 -22.998  0.00  0.00    +0.000 C 
ENDROOT
BRANCH   3  13
ATOM     11  O   UNL     1      34.381  -9.356 -23.703  0.00  0.00    -0.270 OA
ATOM     12  N   UNL     1      32.463 -10.590 -23.156  0.00  0.00    -0.280 N 
ATOM     13  C   UNL     1      33.205  -9.413 -23.315  0.00  0.00    +0.252 C 
ATOM     14  H   UNL     1      31.537 -10.475 -22.839  0.00  0.00    +0.155 HD
BRANCH  12  16
ATOM     15 CL   UNL     1      34.162 -16.161 -24.139  0.00  0.00    -0.082 Cl
ATOM     16  C   UNL     1      32.870 -11.926 -23.392  0.00  0.00    +0.051 C 
ATOM     17  C   UNL     1      33.520 -12.623 -22.387  0.00  0.00    +0.016 C 
ATOM     18  C   UNL     1      32.610 -12.506 -24.622  0.00  0.00    +0.016 C 
ATOM     19  C   UNL     1      33.921 -13.938 -22.619  0.00  0.00    +0.013 C 
ATOM     20  C   UNL     1      33.012 -13.822 -24.854  0.00  0.00    +0.013 C 
ATOM     21  C   UNL     1      33.667 -14.537 -23.852  0.00  0.00    +0.058 C 
ENDBRANCH  12  16
ENDBRANCH   3  13
BRANCH   4  22
ATOM     22  O   UNL     1      32.169  -8.930 -20.716  0.00  0.00    -0.403 OA
BRANCH  22  23
ATOM     23  P   UNL     1      30.983  -9.873 -20.150  0.00  0.00    +0.528 P 
ATOM     24  O   UNL     1      30.282  -9.358 -18.927  0.00  0.00    -0.216 OA
BRANCH  23  25
ATOM     25  O   UNL     1      30.042 -10.140 -21.437  0.00  0.00    -0.293 OA
ATOM     26  H   UNL     1      30.276  -9.518 -22.145  0.00  0.00    +0.223 HD
ENDBRANCH  23  25
BRANCH  23  27
ATOM     27  O   UNL     1      31.727 -11.296 -19.945  0.00  0.00    -0.293 OA
ATOM     28  H   UNL     1      32.688 -11.167 -19.987  0.00  0.00    +0.223 HD
ENDBRANCH  23  27
ENDBRANCH  22  23
ENDBRANCH   4  22
TORSDOF 6
ENDMDL
MODEL 9
REMARK VINA RESULT:      -8.8     13.099     16.319
REMARK  Name = 87517
REMARK  6 active torsions:
REMARK  status: ('A' for Active; 'I' for Inactive)
REMARK    1  A    between atoms: C_3  and  C_13
REMARK    2  A    between atoms: C_4  and  O_22
REMARK    3  A    between atoms: N_12  and  C_16
REMARK    4  A    between atoms: O_22  and  P_23
REMARK    5  A    between atoms: P_23  and  O_25
REMARK    6  A    between atoms: P_23  and  O_27
REMARK                            x       y       z     vdW  Elec       q    Type
REMARK                         _______ _______ _______ _____ _____    ______ ____
ROOT
ATOM      1  C   UNL     1      32.295 -11.199 -22.578  0.00  0.00    +0.000 C 
ATOM      2  C   UNL     1      31.753 -11.053 -21.279  0.00  0.00    +0.003 C 
ATOM      3  C   UNL     1      31.879  -8.840 -23.004  0.00  0.00    +0.088 C 
ATOM      4  C   UNL     1      31.345  -8.697 -21.727  0.00  0.00    +0.153 C 
ATOM      5  C   UNL     1      32.351 -10.082 -23.428  0.00  0.00    +0.008 C 
ATOM      6  C   UNL     1      31.282  -9.795 -20.869  0.00  0.00    +0.038 C 
ATOM      7  C   UNL     1      32.767 -12.457 -22.988  0.00  0.00    +0.000 C 
ATOM      8  C   UNL     1      31.696 -12.169 -20.429  0.00  0.00    +0.000 C 
ATOM      9  C   UNL     1      32.704 -13.555 -22.130  0.00  0.00    +0.000 C 
ATOM     10  C   UNL     1      32.169 -13.411 -20.853  0.00  0.00    +0.000 C 
ENDROOT
BRANCH   3  13
ATOM     11  O   UNL     1      31.005  -7.489 -24.684  0.00  0.00    -0.270 OA
ATOM     12  N   UNL     1      33.112  -6.923 -23.820  0.00  0.00    -0.280 N 
ATOM     13  C   UNL     1      31.953  -7.705 -23.914  0.00  0.00    +0.252 C 
ATOM     14  H   UNL     1      33.779  -7.222 -23.160  0.00  0.00    +0.155 HD
BRANCH  12  16
ATOM     15 CL   UNL     1      34.515  -2.063 -26.869  0.00  0.00    -0.082 Cl
ATOM     16  C   UNL     1      33.448  -5.758 -24.551  0.00  0.00    +0.051 C 
ATOM     17  C   UNL     1      34.413  -5.835 -25.541  0.00  0.00    +0.016 C 
ATOM     18  C   UNL     1      32.804  -4.567 -24.260  0.00  0.00    +0.016 C 
ATOM     19  C   UNL     1      34.745  -4.688 -26.261  0.00  0.00    +0.013 C 
ATOM     20  C   UNL     1      33.136  -3.419 -24.980  0.00  0.00    +0.013 C 
ATOM     21  C   UNL     1      34.106  -3.480 -25.980  0.00  0.00    +0.058 C 
ENDBRANCH  12  16
ENDBRANCH   3  13
BRANCH   4  22
ATOM     22  O   UNL     1      30.879  -7.491 -21.294  0.00  0.00    -0.403 OA
BRANCH  22  23
ATOM     23  P   UNL     1      31.651  -6.507 -20.269  0.00  0.00    +0.528 P 
ATOM     24  O   UNL     1      31.581  -6.903 -18.823  0.00  0.00    -0.216 OA
BRANCH  23  25
ATOM     25  O   UNL     1      33.140  -6.379 -20.889  0.00  0.00    -0.293 OA
ATOM     26  H   UNL     1      33.096  -5.918 -21.742  0.00  0.00    +0.223 HD
ENDBRANCH  23  25
BRANCH  23  27
ATOM     27  O   UNL     1      30.996  -5.064 -20.599  0.00  0.00    -0.293 OA
ATOM     28  H   UNL     1      30.096  -5.028 -20.239  0.00  0.00    +0.223 HD
ENDBRANCH  23  27
ENDBRANCH  22  23
ENDBRANCH   4  22
TORSDOF 6
ENDMDL
