MODEL 1
REMARK VINA RESULT:     -12.5      0.000      0.000
REMARK  Name = 11270783
REMARK  7 active torsions:
REMARK  status: ('A' for Active; 'I' for Inactive)
REMARK    1  A    between atoms: N_3  and  C_30
REMARK    2  A    between atoms: N_4  and  C_32
REMARK    3  A    between atoms: C_11  and  C_16
REMARK    4  A    between atoms: N_14  and  C_19
REMARK    5  A    between atoms: C_19  and  C_20
REMARK    6  A    between atoms: C_23  and  C_29
REMARK    7  A    between atoms: C_32  and  C_33
REMARK                            x       y       z     vdW  Elec       q    Type
REMARK                         _______ _______ _______ _____ _____    ______ ____
ROOT
ATOM      1  O   UNL     1      37.871 -22.062 -15.861  0.00  0.00    -0.265 OA
ATOM      2  O   UNL     1      34.200 -24.361 -14.046  0.00  0.00    -0.246 OA
ATOM      3  N   UNL     1      33.875 -23.136 -15.998  0.00  0.00    -0.269 N 
ATOM      4  N   UNL     1      36.048 -23.224 -14.929  0.00  0.00    -0.248 N 
ATOM      5  N   UNL     1      35.982 -21.172 -17.992  0.00  0.00    -0.309 N 
ATOM      6  N   UNL     1      33.833 -21.766 -18.042  0.00  0.00    -0.301 N 
ATOM      7  C   UNL     1      34.458 -22.317 -16.956  0.00  0.00    +0.132 A 
ATOM      8  C   UNL     1      35.780 -21.968 -16.901  0.00  0.00    +0.133 A 
ATOM      9  C   UNL     1      36.688 -22.390 -15.885  0.00  0.00    +0.280 A 
ATOM     10  C   UNL     1      34.663 -23.629 -14.928  0.00  0.00    +0.335 A 
ATOM     11  C   UNL     1      34.781 -21.080 -18.648  0.00  0.00    +0.172 C 
ATOM     12  H   UNL     1      36.828 -20.746 -18.258  0.00  0.00    +0.149 HD
ATOM     13  H   UNL     1      32.890 -21.860 -18.309  0.00  0.00    +0.150 HD
ENDROOT
BRANCH  11  16
ATOM     14  N   UNL     1      34.917 -19.065 -21.641  0.00  0.00    -0.206 N 
ATOM     15  N   UNL     1      33.598 -19.320 -21.685  0.00  0.00    -0.176 NA
ATOM     16  C   UNL     1      34.581 -20.303 -19.885  0.00  0.00    +0.051 C 
ATOM     17  C   UNL     1      35.553 -19.634 -20.577  0.00  0.00    +0.085 C 
ATOM     18  C   UNL     1      33.399 -20.080 -20.605  0.00  0.00    +0.118 C 
BRANCH  14  19
ATOM     19  C   UNL     1      35.524 -18.254 -22.670  0.00  0.00    +0.143 C 
BRANCH  19  20
ATOM     20  C   UNL     1      34.779 -16.962 -22.862  0.00  0.00    -0.000 C 
ATOM     21  C   UNL     1      34.513 -16.155 -21.763  0.00  0.00    +0.001 C 
ATOM     22  C   UNL     1      34.369 -16.591 -24.135  0.00  0.00    -0.003 C 
ATOM     23  C   UNL     1      33.824 -14.956 -21.941  0.00  0.00    +0.071 C 
ATOM     24  C   UNL     1      33.679 -15.392 -24.313  0.00  0.00    -0.000 C 
ATOM     25  C   UNL     1      33.407 -14.574 -23.217  0.00  0.00    +0.004 C 
BRANCH  23  29
ATOM     26  F   UNL     1      34.392 -13.026 -20.647  0.00  0.00    -0.166 F 
ATOM     27  F   UNL     1      32.287 -13.524 -20.798  0.00  0.00    -0.166 F 
ATOM     28  F   UNL     1      33.607 -14.751 -19.582  0.00  0.00    -0.166 F 
ATOM     29  C   UNL     1      33.533 -14.082 -20.769  0.00  0.00    +0.419 C 
ENDBRANCH  23  29
ENDBRANCH  19  20
ENDBRANCH  14  19
ENDBRANCH  11  16
BRANCH   3  30
ATOM     30  C   UNL     1      32.463 -23.485 -16.091  0.00  0.00    +0.112 C 
ATOM     31  C   UNL     1      31.607 -22.566 -15.245  0.00  0.00    +0.027 C 
ENDBRANCH   3  30
BRANCH   4  32
ATOM     32  C   UNL     1      36.857 -23.735 -13.828  0.00  0.00    +0.114 C 
BRANCH  32  33
ATOM     33  C   UNL     1      37.603 -25.011 -14.200  0.00  0.00    +0.025 C 
ATOM     34  C   UNL     1      39.052 -25.002 -13.732  0.00  0.00    +0.002 C 
ENDBRANCH  32  33
ENDBRANCH   4  32
TORSDOF 7
ENDMDL
MODEL 2
REMARK VINA RESULT:     -11.8      1.394      1.885
REMARK  Name = 11270783
REMARK  7 active torsions:
REMARK  status: ('A' for Active; 'I' for Inactive)
REMARK    1  A    between atoms: N_3  and  C_30
REMARK    2  A    between atoms: N_4  and  C_32
REMARK    3  A    between atoms: C_11  and  C_16
REMARK    4  A    between atoms: N_14  and  C_19
REMARK    5  A    between atoms: C_19  and  C_20
REMARK    6  A    between atoms: C_23  and  C_29
REMARK    7  A    between atoms: C_32  and  C_33
REMARK                            x       y       z     vdW  Elec       q    Type
REMARK                         _______ _______ _______ _____ _____    ______ ____
ROOT
ATOM      1  O   UNL     1      37.939 -21.613 -16.095  0.00  0.00    -0.265 OA
ATOM      2  O   UNL     1      34.453 -24.294 -14.449  0.00  0.00    -0.246 OA
ATOM      3  N   UNL     1      34.057 -23.024 -16.358  0.00  0.00    -0.269 N 
ATOM      4  N   UNL     1      36.209 -22.966 -15.248  0.00  0.00    -0.248 N 
ATOM      5  N   UNL     1      36.018 -20.805 -18.230  0.00  0.00    -0.309 N 
ATOM      6  N   UNL     1      33.930 -21.582 -18.348  0.00  0.00    -0.301 N 
ATOM      7  C   UNL     1      34.582 -22.120 -17.271  0.00  0.00    +0.132 A 
ATOM      8  C   UNL     1      35.867 -21.659 -17.175  0.00  0.00    +0.133 A 
ATOM      9  C   UNL     1      36.790 -22.041 -16.157  0.00  0.00    +0.280 A 
ATOM     10  C   UNL     1      34.866 -23.489 -15.292  0.00  0.00    +0.335 A 
ATOM     11  C   UNL     1      34.825 -20.791 -18.906  0.00  0.00    +0.172 C 
ATOM     12  H   UNL     1      36.828 -20.297 -18.461  0.00  0.00    +0.149 HD
ATOM     13  H   UNL     1      33.004 -21.746 -18.638  0.00  0.00    +0.150 HD
ENDROOT
BRANCH  11  16
ATOM     14  N   UNL     1      34.761 -18.516 -21.710  0.00  0.00    -0.206 N 
ATOM     15  N   UNL     1      33.629 -19.173 -22.017  0.00  0.00    -0.176 NA
ATOM     16  C   UNL     1      34.580 -19.985 -20.117  0.00  0.00    +0.051 C 
ATOM     17  C   UNL     1      35.370 -18.968 -20.576  0.00  0.00    +0.085 C 
ATOM     18  C   UNL     1      33.524 -20.073 -21.035  0.00  0.00    +0.118 C 
BRANCH  14  19
ATOM     19  C   UNL     1      35.219 -17.444 -22.561  0.00  0.00    +0.143 C 
BRANCH  19  20
ATOM     20  C   UNL     1      34.565 -16.138 -22.200  0.00  0.00    -0.000 C 
ATOM     21  C   UNL     1      34.144 -15.282 -23.209  0.00  0.00    +0.001 C 
ATOM     22  C   UNL     1      34.389 -15.807 -20.864  0.00  0.00    -0.003 C 
ATOM     23  C   UNL     1      33.536 -14.072 -22.876  0.00  0.00    +0.071 C 
ATOM     24  C   UNL     1      33.781 -14.597 -20.529  0.00  0.00    -0.000 C 
ATOM     25  C   UNL     1      33.355 -13.730 -21.534  0.00  0.00    +0.004 C 
BRANCH  23  29
ATOM     26  F   UNL     1      33.817 -11.999 -24.034  0.00  0.00    -0.166 F 
ATOM     27  F   UNL     1      33.129 -13.691 -25.201  0.00  0.00    -0.166 F 
ATOM     28  F   UNL     1      31.789 -12.738 -23.779  0.00  0.00    -0.166 F 
ATOM     29  C   UNL     1      33.080 -13.145 -23.950  0.00  0.00    +0.419 C 
ENDBRANCH  23  29
ENDBRANCH  19  20
ENDBRANCH  14  19
ENDBRANCH  11  16
BRANCH   3  30
ATOM     30  C   UNL     1      32.682 -23.490 -16.494  0.00  0.00    +0.112 C 
ATOM     31  C   UNL     1      31.750 -22.750 -15.559  0.00  0.00    +0.027 C 
ENDBRANCH   3  30
BRANCH   4  32
ATOM     32  C   UNL     1      37.041 -23.448 -14.151  0.00  0.00    +0.114 C 
BRANCH  32  33
ATOM     33  C   UNL     1      38.011 -24.537 -14.594  0.00  0.00    +0.025 C 
ATOM     34  C   UNL     1      37.507 -25.937 -14.277  0.00  0.00    +0.002 C 
ENDBRANCH  32  33
ENDBRANCH   4  32
TORSDOF 7
ENDMDL
MODEL 3
REMARK VINA RESULT:     -11.2      6.786     10.720
REMARK  Name = 11270783
REMARK  7 active torsions:
REMARK  status: ('A' for Active; 'I' for Inactive)
REMARK    1  A    between atoms: N_3  and  C_30
REMARK    2  A    between atoms: N_4  and  C_32
REMARK    3  A    between atoms: C_11  and  C_16
REMARK    4  A    between atoms: N_14  and  C_19
REMARK    5  A    between atoms: C_19  and  C_20
REMARK    6  A    between atoms: C_23  and  C_29
REMARK    7  A    between atoms: C_32  and  C_33
REMARK                            x       y       z     vdW  Elec       q    Type
REMARK                         _______ _______ _______ _____ _____    ______ ____
ROOT
ATOM      1  O   UNL     1      34.472 -15.638 -20.554  0.00  0.00    -0.265 OA
ATOM      2  O   UNL     1      34.126 -16.647 -25.127  0.00  0.00    -0.246 OA
ATOM      3  N   UNL     1      33.218 -14.642 -24.371  0.00  0.00    -0.269 N 
ATOM      4  N   UNL     1      34.312 -16.169 -22.841  0.00  0.00    -0.248 N 
ATOM      5  N   UNL     1      33.021 -13.118 -21.222  0.00  0.00    -0.309 N 
ATOM      6  N   UNL     1      32.357 -12.607 -23.288  0.00  0.00    -0.301 N 
ATOM      7  C   UNL     1      32.994 -13.818 -23.275  0.00  0.00    +0.132 A 
ATOM      8  C   UNL     1      33.412 -14.156 -22.018  0.00  0.00    +0.133 A 
ATOM      9  C   UNL     1      34.107 -15.360 -21.692  0.00  0.00    +0.280 A 
ATOM     10  C   UNL     1      33.898 -15.873 -24.190  0.00  0.00    +0.335 A 
ATOM     11  C   UNL     1      32.389 -12.210 -22.032  0.00  0.00    +0.172 C 
ATOM     12  H   UNL     1      33.165 -13.037 -20.252  0.00  0.00    +0.149 HD
ATOM     13  H   UNL     1      31.963 -12.139 -24.060  0.00  0.00    +0.150 HD
ENDROOT
BRANCH  11  16
ATOM     14  N   UNL     1      31.140  -8.878 -21.420  0.00  0.00    -0.206 N 
ATOM     15  N   UNL     1      30.835  -9.383 -20.212  0.00  0.00    -0.176 NA
ATOM     16  C   UNL     1      31.817 -10.941 -21.547  0.00  0.00    +0.051 C 
ATOM     17  C   UNL     1      31.732  -9.776 -22.259  0.00  0.00    +0.085 C 
ATOM     18  C   UNL     1      31.254 -10.648 -20.297  0.00  0.00    +0.118 C 
BRANCH  14  19
ATOM     19  C   UNL     1      30.830  -7.500 -21.719  0.00  0.00    +0.143 C 
BRANCH  19  20
ATOM     20  C   UNL     1      31.884  -6.877 -22.593  0.00  0.00    -0.000 C 
ATOM     21  C   UNL     1      31.602  -6.619 -23.927  0.00  0.00    +0.001 C 
ATOM     22  C   UNL     1      33.125  -6.567 -22.053  0.00  0.00    -0.003 C 
ATOM     23  C   UNL     1      32.578  -6.041 -24.738  0.00  0.00    +0.071 C 
ATOM     24  C   UNL     1      34.102  -5.988 -22.863  0.00  0.00    -0.000 C 
ATOM     25  C   UNL     1      33.829  -5.725 -24.205  0.00  0.00    +0.004 C 
BRANCH  23  29
ATOM     26  F   UNL     1      33.403  -5.699 -26.957  0.00  0.00    -0.166 F 
ATOM     27  F   UNL     1      31.486  -6.695 -26.763  0.00  0.00    -0.166 F 
ATOM     28  F   UNL     1      31.648  -4.566 -26.354  0.00  0.00    -0.166 F 
ATOM     29  C   UNL     1      32.286  -5.759 -26.172  0.00  0.00    +0.419 C 
ENDBRANCH  23  29
ENDBRANCH  19  20
ENDBRANCH  14  19
ENDBRANCH  11  16
BRANCH   3  30
ATOM     30  C   UNL     1      32.756 -14.246 -25.695  0.00  0.00    +0.112 C 
ATOM     31  C   UNL     1      33.172 -12.828 -26.026  0.00  0.00    +0.027 C 
ENDBRANCH   3  30
BRANCH   4  32
ATOM     32  C   UNL     1      35.014 -17.435 -22.659  0.00  0.00    +0.114 C 
BRANCH  32  33
ATOM     33  C   UNL     1      34.058 -18.597 -22.413  0.00  0.00    +0.025 C 
ATOM     34  C   UNL     1      34.247 -19.233 -21.043  0.00  0.00    +0.002 C 
ENDBRANCH  32  33
ENDBRANCH   4  32
TORSDOF 7
ENDMDL
MODEL 4
REMARK VINA RESULT:     -11.2      4.600      9.837
REMARK  Name = 11270783
REMARK  7 active torsions:
REMARK  status: ('A' for Active; 'I' for Inactive)
REMARK    1  A    between atoms: N_3  and  C_30
REMARK    2  A    between atoms: N_4  and  C_32
REMARK    3  A    between atoms: C_11  and  C_16
REMARK    4  A    between atoms: N_14  and  C_19
REMARK    5  A    between atoms: C_19  and  C_20
REMARK    6  A    between atoms: C_23  and  C_29
REMARK    7  A    between atoms: C_32  and  C_33
REMARK                            x       y       z     vdW  Elec       q    Type
REMARK                         _______ _______ _______ _____ _____    ______ ____
ROOT
ATOM      1  O   UNL     1      34.448 -14.720 -20.761  0.00  0.00    -0.265 OA
ATOM      2  O   UNL     1      33.502 -15.441 -25.304  0.00  0.00    -0.246 OA
ATOM      3  N   UNL     1      33.765 -17.298 -23.927  0.00  0.00    -0.269 N 
ATOM      4  N   UNL     1      33.973 -15.052 -23.043  0.00  0.00    -0.248 N 
ATOM      5  N   UNL     1      34.463 -17.693 -20.516  0.00  0.00    -0.309 N 
ATOM      6  N   UNL     1      34.092 -19.059 -22.239  0.00  0.00    -0.301 N 
ATOM      7  C   UNL     1      34.025 -17.752 -22.640  0.00  0.00    +0.132 A 
ATOM      8  C   UNL     1      34.250 -16.892 -21.601  0.00  0.00    +0.133 A 
ATOM      9  C   UNL     1      34.244 -15.469 -21.712  0.00  0.00    +0.280 A 
ATOM     10  C   UNL     1      33.729 -15.904 -24.180  0.00  0.00    +0.335 A 
ATOM     11  C   UNL     1      34.358 -18.990 -20.951  0.00  0.00    +0.172 C 
ATOM     12  H   UNL     1      34.656 -17.397 -19.598  0.00  0.00    +0.149 HD
ATOM     13  H   UNL     1      33.970 -19.868 -22.788  0.00  0.00    +0.150 HD
ENDROOT
BRANCH  11  16
ATOM     14  N   UNL     1      34.170 -22.005 -18.972  0.00  0.00    -0.206 N 
ATOM     15  N   UNL     1      35.426 -21.671 -18.629  0.00  0.00    -0.176 NA
ATOM     16  C   UNL     1      34.525 -20.163 -20.073  0.00  0.00    +0.051 C 
ATOM     17  C   UNL     1      33.585 -21.128 -19.838  0.00  0.00    +0.085 C 
ATOM     18  C   UNL     1      35.637 -20.541 -19.307  0.00  0.00    +0.118 C 
BRANCH  14  19
ATOM     19  C   UNL     1      33.572 -23.200 -18.427  0.00  0.00    +0.143 C 
BRANCH  19  20
ATOM     20  C   UNL     1      33.015 -22.958 -17.051  0.00  0.00    -0.000 C 
ATOM     21  C   UNL     1      31.641 -22.869 -16.874  0.00  0.00    +0.001 C 
ATOM     22  C   UNL     1      33.883 -22.829 -15.975  0.00  0.00    -0.003 C 
ATOM     23  C   UNL     1      31.125 -22.646 -15.598  0.00  0.00    +0.071 C 
ATOM     24  C   UNL     1      33.367 -22.606 -14.698  0.00  0.00    -0.000 C 
ATOM     25  C   UNL     1      31.989 -22.515 -14.509  0.00  0.00    +0.004 C 
BRANCH  23  29
ATOM     26  F   UNL     1      29.295 -21.791 -14.317  0.00  0.00    -0.166 F 
ATOM     27  F   UNL     1      28.988 -21.996 -16.454  0.00  0.00    -0.166 F 
ATOM     28  F   UNL     1      29.067 -23.766 -15.195  0.00  0.00    -0.166 F 
ATOM     29  C   UNL     1      29.651 -22.550 -15.396  0.00  0.00    +0.419 C 
ENDBRANCH  23  29
ENDBRANCH  19  20
ENDBRANCH  14  19
ENDBRANCH  11  16
BRANCH   3  30
ATOM     30  C   UNL     1      33.531 -18.247 -25.008  0.00  0.00    +0.112 C 
ATOM     31  C   UNL     1      32.068 -18.623 -25.110  0.00  0.00    +0.027 C 
ENDBRANCH   3  30
BRANCH   4  32
ATOM     32  C   UNL     1      33.934 -13.618 -23.306  0.00  0.00    +0.114 C 
BRANCH  32  33
ATOM     33  C   UNL     1      32.521 -13.052 -23.228  0.00  0.00    +0.025 C 
ATOM     34  C   UNL     1      32.291 -12.217 -21.977  0.00  0.00    +0.002 C 
ENDBRANCH  32  33
ENDBRANCH   4  32
TORSDOF 7
ENDMDL
MODEL 5
REMARK VINA RESULT:     -11.2      1.919      2.450
REMARK  Name = 11270783
REMARK  7 active torsions:
REMARK  status: ('A' for Active; 'I' for Inactive)
REMARK    1  A    between atoms: N_3  and  C_30
REMARK    2  A    between atoms: N_4  and  C_32
REMARK    3  A    between atoms: C_11  and  C_16
REMARK    4  A    between atoms: N_14  and  C_19
REMARK    5  A    between atoms: C_19  and  C_20
REMARK    6  A    between atoms: C_23  and  C_29
REMARK    7  A    between atoms: C_32  and  C_33
REMARK                            x       y       z     vdW  Elec       q    Type
REMARK                         _______ _______ _______ _____ _____    ______ ____
ROOT
ATOM      1  O   UNL     1      37.684 -22.782 -14.714  0.00  0.00    -0.265 OA
ATOM      2  O   UNL     1      33.937 -24.428 -12.411  0.00  0.00    -0.246 OA
ATOM      3  N   UNL     1      33.601 -23.421 -14.482  0.00  0.00    -0.269 N 
ATOM      4  N   UNL     1      35.823 -23.616 -13.538  0.00  0.00    -0.248 N 
ATOM      5  N   UNL     1      35.749 -21.956 -16.830  0.00  0.00    -0.309 N 
ATOM      6  N   UNL     1      33.553 -22.313 -16.678  0.00  0.00    -0.301 N 
ATOM      7  C   UNL     1      34.194 -22.793 -15.569  0.00  0.00    +0.132 A 
ATOM      8  C   UNL     1      35.545 -22.586 -15.636  0.00  0.00    +0.133 A 
ATOM      9  C   UNL     1      36.475 -22.980 -14.628  0.00  0.00    +0.280 A 
ATOM     10  C   UNL     1      34.409 -23.864 -13.405  0.00  0.00    +0.335 A 
ATOM     11  C   UNL     1      34.520 -21.813 -17.421  0.00  0.00    +0.172 C 
ATOM     12  H   UNL     1      36.613 -21.661 -17.197  0.00  0.00    +0.149 HD
ATOM     13  H   UNL     1      32.588 -22.335 -16.877  0.00  0.00    +0.150 HD
ENDROOT
BRANCH  11  16
ATOM     14  N   UNL     1      34.645 -20.185 -20.642  0.00  0.00    -0.206 N 
ATOM     15  N   UNL     1      33.310 -20.336 -20.595  0.00  0.00    -0.176 NA
ATOM     16  C   UNL     1      34.313 -21.175 -18.734  0.00  0.00    +0.051 C 
ATOM     17  C   UNL     1      35.293 -20.674 -19.546  0.00  0.00    +0.085 C 
ATOM     18  C   UNL     1      33.114 -20.944 -19.423  0.00  0.00    +0.118 C 
BRANCH  14  19
ATOM     19  C   UNL     1      35.255 -19.554 -21.788  0.00  0.00    +0.143 C 
BRANCH  19  20
ATOM     20  C   UNL     1      34.853 -18.109 -21.898  0.00  0.00    -0.000 C 
ATOM     21  C   UNL     1      34.406 -17.613 -23.115  0.00  0.00    +0.001 C 
ATOM     22  C   UNL     1      34.934 -17.289 -20.780  0.00  0.00    -0.003 C 
ATOM     23  C   UNL     1      34.033 -16.273 -23.218  0.00  0.00    +0.071 C 
ATOM     24  C   UNL     1      34.560 -15.949 -20.882  0.00  0.00    -0.000 C 
ATOM     25  C   UNL     1      34.110 -15.441 -22.099  0.00  0.00    +0.004 C 
BRANCH  23  29
ATOM     26  F   UNL     1      32.756 -14.626 -24.392  0.00  0.00    -0.166 F 
ATOM     27  F   UNL     1      34.557 -15.348 -25.359  0.00  0.00    -0.166 F 
ATOM     28  F   UNL     1      32.810 -16.634 -25.224  0.00  0.00    -0.166 F 
ATOM     29  C   UNL     1      33.551 -15.730 -24.520  0.00  0.00    +0.419 C 
ENDBRANCH  23  29
ENDBRANCH  19  20
ENDBRANCH  14  19
ENDBRANCH  11  16
BRANCH   3  30
ATOM     30  C   UNL     1      32.157 -23.622 -14.448  0.00  0.00    +0.112 C 
ATOM     31  C   UNL     1      31.441 -22.409 -13.890  0.00  0.00    +0.027 C 
ENDBRANCH   3  30
BRANCH   4  32
ATOM     32  C   UNL     1      36.653 -24.075 -12.429  0.00  0.00    +0.114 C 
BRANCH  32  33
ATOM     33  C   UNL     1      37.570 -25.225 -12.828  0.00  0.00    +0.025 C 
ATOM     34  C   UNL     1      36.819 -26.372 -13.489  0.00  0.00    +0.002 C 
ENDBRANCH  32  33
ENDBRANCH   4  32
TORSDOF 7
ENDMDL
MODEL 6
REMARK VINA RESULT:     -10.9      4.746     10.007
REMARK  Name = 11270783
REMARK  7 active torsions:
REMARK  status: ('A' for Active; 'I' for Inactive)
REMARK    1  A    between atoms: N_3  and  C_30
REMARK    2  A    between atoms: N_4  and  C_32
REMARK    3  A    between atoms: C_11  and  C_16
REMARK    4  A    between atoms: N_14  and  C_19
REMARK    5  A    between atoms: C_19  and  C_20
REMARK    6  A    between atoms: C_23  and  C_29
REMARK    7  A    between atoms: C_32  and  C_33
REMARK                            x       y       z     vdW  Elec       q    Type
REMARK                         _______ _______ _______ _____ _____    ______ ____
ROOT
ATOM      1  O   UNL     1      34.416 -14.713 -20.738  0.00  0.00    -0.265 OA
ATOM      2  O   UNL     1      33.508 -15.403 -25.294  0.00  0.00    -0.246 OA
ATOM      3  N   UNL     1      33.751 -17.269 -23.926  0.00  0.00    -0.269 N 
ATOM      4  N   UNL     1      33.961 -15.030 -23.026  0.00  0.00    -0.248 N 
ATOM      5  N   UNL     1      34.418 -17.689 -20.512  0.00  0.00    -0.309 N 
ATOM      6  N   UNL     1      34.057 -19.042 -22.247  0.00  0.00    -0.301 N 
ATOM      7  C   UNL     1      33.999 -17.732 -22.640  0.00  0.00    +0.132 A 
ATOM      8  C   UNL     1      34.218 -16.880 -21.594  0.00  0.00    +0.133 A 
ATOM      9  C   UNL     1      34.218 -15.456 -21.696  0.00  0.00    +0.280 A 
ATOM     10  C   UNL     1      33.723 -15.873 -24.171  0.00  0.00    +0.335 A 
ATOM     11  C   UNL     1      34.312 -18.982 -20.956  0.00  0.00    +0.172 C 
ATOM     12  H   UNL     1      34.603 -17.399 -19.590  0.00  0.00    +0.149 HD
ATOM     13  H   UNL     1      33.936 -19.847 -22.802  0.00  0.00    +0.150 HD
ENDROOT
BRANCH  11  16
ATOM     14  N   UNL     1      34.091 -22.004 -18.991  0.00  0.00    -0.206 N 
ATOM     15  N   UNL     1      35.352 -21.687 -18.649  0.00  0.00    -0.176 NA
ATOM     16  C   UNL     1      34.466 -20.161 -20.084  0.00  0.00    +0.051 C 
ATOM     17  C   UNL     1      33.515 -21.117 -19.853  0.00  0.00    +0.085 C 
ATOM     18  C   UNL     1      35.575 -20.556 -19.323  0.00  0.00    +0.118 C 
BRANCH  14  19
ATOM     19  C   UNL     1      33.481 -23.195 -18.451  0.00  0.00    +0.143 C 
BRANCH  19  20
ATOM     20  C   UNL     1      33.051 -22.994 -17.024  0.00  0.00    -0.000 C 
ATOM     21  C   UNL     1      33.946 -23.260 -15.996  0.00  0.00    +0.001 C 
ATOM     22  C   UNL     1      31.767 -22.542 -16.753  0.00  0.00    -0.003 C 
ATOM     23  C   UNL     1      33.549 -23.073 -14.672  0.00  0.00    +0.071 C 
ATOM     24  C   UNL     1      31.369 -22.354 -15.429  0.00  0.00    -0.000 C 
ATOM     25  C   UNL     1      32.259 -22.620 -14.389  0.00  0.00    +0.004 C 
BRANCH  23  29
ATOM     26  F   UNL     1      35.528 -22.459 -13.478  0.00  0.00    -0.166 F 
ATOM     27  F   UNL     1      33.919 -23.344 -12.325  0.00  0.00    -0.166 F 
ATOM     28  F   UNL     1      35.093 -24.580 -13.674  0.00  0.00    -0.166 F 
ATOM     29  C   UNL     1      34.501 -23.356 -13.560  0.00  0.00    +0.419 C 
ENDBRANCH  23  29
ENDBRANCH  19  20
ENDBRANCH  14  19
ENDBRANCH  11  16
BRANCH   3  30
ATOM     30  C   UNL     1      33.524 -18.211 -25.015  0.00  0.00    +0.112 C 
ATOM     31  C   UNL     1      32.064 -18.601 -25.115  0.00  0.00    +0.027 C 
ENDBRANCH   3  30
BRANCH   4  32
ATOM     32  C   UNL     1      33.929 -13.594 -23.281  0.00  0.00    +0.114 C 
BRANCH  32  33
ATOM     33  C   UNL     1      32.514 -13.029 -23.244  0.00  0.00    +0.025 C 
ATOM     34  C   UNL     1      32.210 -12.290 -21.948  0.00  0.00    +0.002 C 
ENDBRANCH  32  33
ENDBRANCH   4  32
TORSDOF 7
ENDMDL
MODEL 7
REMARK VINA RESULT:     -10.6      7.093     10.927
REMARK  Name = 11270783
REMARK  7 active torsions:
REMARK  status: ('A' for Active; 'I' for Inactive)
REMARK    1  A    between atoms: N_3  and  C_30
REMARK    2  A    between atoms: N_4  and  C_32
REMARK    3  A    between atoms: C_11  and  C_16
REMARK    4  A    between atoms: N_14  and  C_19
REMARK    5  A    between atoms: C_19  and  C_20
REMARK    6  A    between atoms: C_23  and  C_29
REMARK    7  A    between atoms: C_32  and  C_33
REMARK                            x       y       z     vdW  Elec       q    Type
REMARK                         _______ _______ _______ _____ _____    ______ ____
ROOT
ATOM      1  O   UNL     1      34.456 -15.572 -20.536  0.00  0.00    -0.265 OA
ATOM      2  O   UNL     1      34.172 -16.660 -25.095  0.00  0.00    -0.246 OA
ATOM      3  N   UNL     1      33.239 -14.650 -24.383  0.00  0.00    -0.269 N 
ATOM      4  N   UNL     1      34.328 -16.142 -22.816  0.00  0.00    -0.248 N 
ATOM      5  N   UNL     1      32.993 -13.075 -21.264  0.00  0.00    -0.309 N 
ATOM      6  N   UNL     1      32.349 -12.604 -23.346  0.00  0.00    -0.301 N 
ATOM      7  C   UNL     1      32.996 -13.809 -23.305  0.00  0.00    +0.132 A 
ATOM      8  C   UNL     1      33.402 -14.123 -22.037  0.00  0.00    +0.133 A 
ATOM      9  C   UNL     1      34.102 -15.315 -21.683  0.00  0.00    +0.280 A 
ATOM     10  C   UNL     1      33.927 -15.872 -24.175  0.00  0.00    +0.335 A 
ATOM     11  C   UNL     1      32.364 -12.186 -22.096  0.00  0.00    +0.172 C 
ATOM     12  H   UNL     1      33.125 -12.976 -20.294  0.00  0.00    +0.149 HD
ATOM     13  H   UNL     1      31.961 -12.152 -24.130  0.00  0.00    +0.150 HD
ENDROOT
BRANCH  11  16
ATOM     14  N   UNL     1      31.007  -8.879 -21.579  0.00  0.00    -0.206 N 
ATOM     15  N   UNL     1      30.848  -9.312 -20.316  0.00  0.00    -0.176 NA
ATOM     16  C   UNL     1      31.776 -10.913 -21.640  0.00  0.00    +0.051 C 
ATOM     17  C   UNL     1      31.561  -9.805 -22.413  0.00  0.00    +0.085 C 
ATOM     18  C   UNL     1      31.322 -10.560 -20.361  0.00  0.00    +0.118 C 
BRANCH  14  19
ATOM     19  C   UNL     1      30.600  -7.541 -21.934  0.00  0.00    +0.143 C 
BRANCH  19  20
ATOM     20  C   UNL     1      31.749  -6.745 -22.490  0.00  0.00    -0.000 C 
ATOM     21  C   UNL     1      31.492  -5.633 -23.280  0.00  0.00    +0.001 C 
ATOM     22  C   UNL     1      33.051  -7.132 -22.204  0.00  0.00    -0.003 C 
ATOM     23  C   UNL     1      32.556  -4.894 -23.795  0.00  0.00    +0.071 C 
ATOM     24  C   UNL     1      34.116  -6.394 -22.719  0.00  0.00    -0.000 C 
ATOM     25  C   UNL     1      33.870  -5.275 -23.514  0.00  0.00    +0.004 C 
BRANCH  23  29
ATOM     26  F   UNL     1      31.967  -2.580 -23.930  0.00  0.00    -0.166 F 
ATOM     27  F   UNL     1      33.358  -3.329 -25.416  0.00  0.00    -0.166 F 
ATOM     28  F   UNL     1      31.260  -3.889 -25.516  0.00  0.00    -0.166 F 
ATOM     29  C   UNL     1      32.293  -3.698 -24.645  0.00  0.00    +0.419 C 
ENDBRANCH  23  29
ENDBRANCH  19  20
ENDBRANCH  14  19
ENDBRANCH  11  16
BRANCH   3  30
ATOM     30  C   UNL     1      32.789 -14.280 -25.720  0.00  0.00    +0.112 C 
ATOM     31  C   UNL     1      33.192 -12.862 -26.067  0.00  0.00    +0.027 C 
ENDBRANCH   3  30
BRANCH   4  32
ATOM     32  C   UNL     1      35.037 -17.399 -22.604  0.00  0.00    +0.114 C 
BRANCH  32  33
ATOM     33  C   UNL     1      34.087 -18.574 -22.403  0.00  0.00    +0.025 C 
ATOM     34  C   UNL     1      34.201 -19.191 -21.017  0.00  0.00    +0.002 C 
ENDBRANCH  32  33
ENDBRANCH   4  32
TORSDOF 7
ENDMDL
MODEL 8
REMARK VINA RESULT:     -10.6      7.971     13.159
REMARK  Name = 11270783
REMARK  7 active torsions:
REMARK  status: ('A' for Active; 'I' for Inactive)
REMARK    1  A    between atoms: N_3  and  C_30
REMARK    2  A    between atoms: N_4  and  C_32
REMARK    3  A    between atoms: C_11  and  C_16
REMARK    4  A    between atoms: N_14  and  C_19
REMARK    5  A    between atoms: C_19  and  C_20
REMARK    6  A    between atoms: C_23  and  C_29
REMARK    7  A    between atoms: C_32  and  C_33
REMARK                            x       y       z     vdW  Elec       q    Type
REMARK                         _______ _______ _______ _____ _____    ______ ____
ROOT
ATOM      1  O   UNL     1      31.161  -7.044 -24.980  0.00  0.00    -0.265 OA
ATOM      2  O   UNL     1      30.825  -5.546 -20.543  0.00  0.00    -0.246 OA
ATOM      3  N   UNL     1      31.447  -7.758 -20.913  0.00  0.00    -0.269 N 
ATOM      4  N   UNL     1      30.985  -6.267 -22.766  0.00  0.00    -0.248 N 
ATOM      5  N   UNL     1      31.935  -9.675 -23.804  0.00  0.00    -0.309 N 
ATOM      6  N   UNL     1      32.081 -10.032 -21.608  0.00  0.00    -0.301 N 
ATOM      7  C   UNL     1      31.707  -8.739 -21.860  0.00  0.00    +0.132 A 
ATOM      8  C   UNL     1      31.609  -8.494 -23.202  0.00  0.00    +0.133 A 
ATOM      9  C   UNL     1      31.240  -7.238 -23.771  0.00  0.00    +0.280 A 
ATOM     10  C   UNL     1      31.069  -6.460 -21.339  0.00  0.00    +0.335 A 
ATOM     11  C   UNL     1      32.210 -10.571 -22.803  0.00  0.00    +0.172 C 
ATOM     12  H   UNL     1      31.966  -9.851 -24.772  0.00  0.00    +0.149 HD
ATOM     13  H   UNL     1      32.220 -10.461 -20.733  0.00  0.00    +0.150 HD
ENDROOT
BRANCH  11  16
ATOM     14  N   UNL     1      33.256 -13.815 -23.997  0.00  0.00    -0.206 N 
ATOM     15  N   UNL     1      33.077 -14.171 -22.713  0.00  0.00    -0.176 NA
ATOM     16  C   UNL     1      32.605 -11.971 -23.044  0.00  0.00    +0.051 C 
ATOM     17  C   UNL     1      32.985 -12.501 -24.246  0.00  0.00    +0.085 C 
ATOM     18  C   UNL     1      32.678 -13.035 -22.135  0.00  0.00    +0.118 C 
BRANCH  14  19
ATOM     19  C   UNL     1      33.699 -14.797 -24.957  0.00  0.00    +0.143 C 
BRANCH  19  20
ATOM     20  C   UNL     1      33.770 -16.170 -24.347  0.00  0.00    -0.000 C 
ATOM     21  C   UNL     1      34.604 -16.394 -23.260  0.00  0.00    +0.001 C 
ATOM     22  C   UNL     1      32.999 -17.195 -24.877  0.00  0.00    -0.003 C 
ATOM     23  C   UNL     1      34.669 -17.666 -22.693  0.00  0.00    +0.071 C 
ATOM     24  C   UNL     1      33.063 -18.468 -24.310  0.00  0.00    -0.000 C 
ATOM     25  C   UNL     1      33.898 -18.704 -23.219  0.00  0.00    +0.004 C 
BRANCH  23  29
ATOM     26  F   UNL     1      35.393 -19.152 -20.964  0.00  0.00    -0.166 F 
ATOM     27  F   UNL     1      36.891 -17.843 -21.826  0.00  0.00    -0.166 F 
ATOM     28  F   UNL     1      35.366 -17.026 -20.512  0.00  0.00    -0.166 F 
ATOM     29  C   UNL     1      35.561 -17.918 -21.525  0.00  0.00    +0.419 C 
ENDBRANCH  23  29
ENDBRANCH  19  20
ENDBRANCH  14  19
ENDBRANCH  11  16
BRANCH   3  30
ATOM     30  C   UNL     1      31.561  -8.060 -19.492  0.00  0.00    +0.112 C 
ATOM     31  C   UNL     1      30.774  -9.300 -19.123  0.00  0.00    +0.027 C 
ENDBRANCH   3  30
BRANCH   4  32
ATOM     32  C   UNL     1      30.597  -4.930 -23.201  0.00  0.00    +0.114 C 
BRANCH  32  33
ATOM     33  C   UNL     1      31.781  -3.971 -23.256  0.00  0.00    +0.025 C 
ATOM     34  C   UNL     1      32.272  -3.726 -24.676  0.00  0.00    +0.002 C 
ENDBRANCH  32  33
ENDBRANCH   4  32
TORSDOF 7
ENDMDL
MODEL 9
REMARK VINA RESULT:     -10.3      6.579     12.133
REMARK  Name = 11270783
REMARK  7 active torsions:
REMARK  status: ('A' for Active; 'I' for Inactive)
REMARK    1  A    between atoms: N_3  and  C_30
REMARK    2  A    between atoms: N_4  and  C_32
REMARK    3  A    between atoms: C_11  and  C_16
REMARK    4  A    between atoms: N_14  and  C_19
REMARK    5  A    between atoms: C_19  and  C_20
REMARK    6  A    between atoms: C_23  and  C_29
REMARK    7  A    between atoms: C_32  and  C_33
REMARK                            x       y       z     vdW  Elec       q    Type
REMARK                         _______ _______ _______ _____ _____    ______ ____
ROOT
ATOM      1  O   UNL     1      30.060 -10.180 -20.996  0.00  0.00    -0.265 OA
ATOM      2  O   UNL     1      32.477  -7.496 -23.997  0.00  0.00    -0.246 OA
ATOM      3  N   UNL     1      33.275  -9.634 -23.546  0.00  0.00    -0.269 N 
ATOM      4  N   UNL     1      31.252  -8.813 -22.497  0.00  0.00    -0.248 N 
ATOM      5  N   UNL     1      32.152 -12.247 -21.500  0.00  0.00    -0.309 N 
ATOM      6  N   UNL     1      33.875 -11.926 -22.879  0.00  0.00    -0.301 N 
ATOM      7  C   UNL     1      33.077 -10.815 -22.841  0.00  0.00    +0.132 A 
ATOM      8  C   UNL     1      32.012 -10.985 -22.000  0.00  0.00    +0.133 A 
ATOM      9  C   UNL     1      31.008 -10.001 -21.756  0.00  0.00    +0.280 A 
ATOM     10  C   UNL     1      32.353  -8.569 -23.397  0.00  0.00    +0.335 A 
ATOM     11  C   UNL     1      33.289 -12.774 -22.058  0.00  0.00    +0.172 C 
ATOM     12  H   UNL     1      31.553 -12.694 -20.860  0.00  0.00    +0.149 HD
ATOM     13  H   UNL     1      34.699 -12.062 -23.401  0.00  0.00    +0.150 HD
ENDROOT
BRANCH  11  16
ATOM     14  N   UNL     1      34.583 -16.145 -21.980  0.00  0.00    -0.206 N 
ATOM     15  N   UNL     1      34.423 -16.008 -20.652  0.00  0.00    -0.176 NA
ATOM     16  C   UNL     1      33.790 -14.130 -21.768  0.00  0.00    +0.051 C 
ATOM     17  C   UNL     1      34.216 -15.042 -22.695  0.00  0.00    +0.085 C 
ATOM     18  C   UNL     1      33.936 -14.771 -20.530  0.00  0.00    +0.118 C 
BRANCH  14  19
ATOM     19  C   UNL     1      35.105 -17.379 -22.515  0.00  0.00    +0.143 C 
BRANCH  19  20
ATOM     20  C   UNL     1      35.090 -18.475 -21.484  0.00  0.00    -0.000 C 
ATOM     21  C   UNL     1      33.892 -19.099 -21.165  0.00  0.00    +0.001 C 
ATOM     22  C   UNL     1      36.276 -18.848 -20.866  0.00  0.00    -0.003 C 
ATOM     23  C   UNL     1      33.878 -20.115 -20.211  0.00  0.00    +0.071 C 
ATOM     24  C   UNL     1      36.263 -19.865 -19.912  0.00  0.00    -0.000 C 
ATOM     25  C   UNL     1      35.065 -20.498 -19.583  0.00  0.00    +0.004 C 
BRANCH  23  29
ATOM     26  F   UNL     1      32.136 -20.481 -18.613  0.00  0.00    -0.166 F 
ATOM     27  F   UNL     1      31.569 -20.489 -20.706  0.00  0.00    -0.166 F 
ATOM     28  F   UNL     1      32.699 -22.153 -19.883  0.00  0.00    -0.166 F 
ATOM     29  C   UNL     1      32.597 -20.793 -19.860  0.00  0.00    +0.419 C 
ENDBRANCH  23  29
ENDBRANCH  19  20
ENDBRANCH  14  19
ENDBRANCH  11  16
BRANCH   3  30
ATOM     30  C   UNL     1      34.424  -9.492 -24.431  0.00  0.00    +0.112 C 
ATOM     31  C   UNL     1      35.273  -8.296 -24.052  0.00  0.00    +0.027 C 
ENDBRANCH   3  30
BRANCH   4  32
ATOM     32  C   UNL     1      30.302  -7.716 -22.346  0.00  0.00    +0.114 C 
BRANCH  32  33
ATOM     33  C   UNL     1      30.853  -6.587 -21.483  0.00  0.00    +0.025 C 
ATOM     34  C   UNL     1      30.269  -5.230 -21.848  0.00  0.00    +0.002 C 
ENDBRANCH  32  33
ENDBRANCH   4  32
TORSDOF 7
ENDMDL
