MODEL 1
REMARK VINA RESULT:     -13.5      0.000      0.000
REMARK  Name = 11974440
REMARK  4 active torsions:
REMARK  status: ('A' for Active; 'I' for Inactive)
REMARK    1  A    between atoms: C_1  and  C_25
REMARK    2  A    between atoms: C_2  and  N_31
REMARK    3  A    between atoms: C_5  and  C_12
REMARK    4  A    between atoms: C_17  and  C_21
REMARK                            x       y       z     vdW  Elec       q    Type
REMARK                         _______ _______ _______ _____ _____    ______ ____
ROOT
ATOM      1  C   UNL     1      33.979 -19.436 -20.175  0.00  0.00    +0.009 C 
ATOM      2  C   UNL     1      35.107 -20.487 -20.017  0.00  0.00    -0.057 C 
ATOM      3  C   UNL     1      34.965 -21.234 -18.675  0.00  0.00    +0.009 C 
ATOM      4  C   UNL     1      32.590 -20.114 -20.101  0.00  0.00    +0.028 C 
ATOM      5  C   UNL     1      33.554 -21.648 -18.387  0.00  0.00    +0.025 C 
ATOM      6  C   UNL     1      32.485 -21.159 -19.029  0.00  0.00    -0.026 C 
ENDROOT
BRANCH   5  12
ATOM      7  O   UNL     1      32.354 -23.421 -17.485  0.00  0.00    -0.270 OA
ATOM      8  N   UNL     1      34.213 -22.719 -16.279  0.00  0.00    -0.267 N 
ATOM      9  N   UNL     1      36.516 -23.734 -15.156  0.00  0.00    -0.292 N 
ATOM     10  N   UNL     1      35.559 -25.361 -14.063  0.00  0.00    -0.132 NA
ATOM     11  N   UNL     1      36.931 -25.479 -13.928  0.00  0.00    -0.125 NA
ATOM     12  C   UNL     1      33.320 -22.668 -17.345  0.00  0.00    +0.245 C 
ATOM     13  C   UNL     1      35.334 -21.788 -16.039  0.00  0.00    +0.119 C 
ATOM     14  C   UNL     1      34.014 -23.732 -15.231  0.00  0.00    +0.160 C 
ATOM     15  C   UNL     1      36.649 -22.563 -15.995  0.00  0.00    +0.130 C 
ATOM     16  C   UNL     1      35.321 -24.303 -14.810  0.00  0.00    +0.164 A 
ATOM     17  C   UNL     1      37.487 -24.491 -14.593  0.00  0.00    +0.238 A 
BRANCH  17  21
ATOM     18  F   UNL     1      39.620 -25.183 -15.428  0.00  0.00    -0.163 F 
ATOM     19  F   UNL     1      39.217 -23.052 -15.404  0.00  0.00    -0.163 F 
ATOM     20  F   UNL     1      39.585 -24.107 -13.539  0.00  0.00    -0.163 F 
ATOM     21  C   UNL     1      38.928 -24.218 -14.739  0.00  0.00    +0.452 C 
ENDBRANCH  17  21
ENDBRANCH   5  12
BRANCH   1  25
ATOM     22  F   UNL     1      34.973 -16.778 -20.200  0.00  0.00    -0.204 F 
ATOM     23  F   UNL     1      33.389 -18.879 -24.994  0.00  0.00    -0.202 F 
ATOM     24  F   UNL     1      34.367 -16.330 -24.871  0.00  0.00    -0.202 F 
ATOM     25  C   UNL     1      34.086 -18.597 -21.440  0.00  0.00    +0.006 C 
ATOM     26  C   UNL     1      34.584 -17.300 -21.371  0.00  0.00    +0.138 C 
ATOM     27  C   UNL     1      33.681 -19.134 -22.658  0.00  0.00    +0.030 C 
ATOM     28  C   UNL     1      33.777 -18.368 -23.818  0.00  0.00    +0.167 C 
ATOM     29  C   UNL     1      34.681 -16.533 -22.532  0.00  0.00    +0.061 C 
ATOM     30  C   UNL     1      34.277 -17.067 -23.756  0.00  0.00    +0.170 C 
ENDBRANCH   1  25
BRANCH   2  31
ATOM     31  N   UNL     1      36.433 -19.866 -20.088  0.00  0.00    +0.382 N 
ATOM     32  H   UNL     1      37.065 -20.475 -20.609  0.00  0.00    -0.089 HD
ATOM     33  H   UNL     1      36.794 -19.728 -19.145  0.00  0.00    -0.089 HD
ATOM     34  H   UNL     1      36.361 -18.966 -20.562  0.00  0.00    -0.089 HD
ENDBRANCH   2  31
TORSDOF 4
ENDMDL
MODEL 2
REMARK VINA RESULT:     -13.4      1.573      2.033
REMARK  Name = 11974440
REMARK  4 active torsions:
REMARK  status: ('A' for Active; 'I' for Inactive)
REMARK    1  A    between atoms: C_1  and  C_25
REMARK    2  A    between atoms: C_2  and  N_31
REMARK    3  A    between atoms: C_5  and  C_12
REMARK    4  A    between atoms: C_17  and  C_21
REMARK                            x       y       z     vdW  Elec       q    Type
REMARK                         _______ _______ _______ _____ _____    ______ ____
ROOT
ATOM      1  C   UNL     1      34.513 -20.897 -19.682  0.00  0.00    +0.009 C 
ATOM      2  C   UNL     1      33.120 -20.878 -18.999  0.00  0.00    -0.057 C 
ATOM      3  C   UNL     1      32.980 -22.065 -18.025  0.00  0.00    +0.009 C 
ATOM      4  C   UNL     1      35.637 -20.837 -18.621  0.00  0.00    +0.028 C 
ATOM      5  C   UNL     1      34.195 -22.263 -17.170  0.00  0.00    +0.025 C 
ATOM      6  C   UNL     1      35.387 -21.707 -17.424  0.00  0.00    -0.026 C 
ENDROOT
BRANCH   5  12
ATOM      7  O   UNL     1      33.022 -23.722 -15.796  0.00  0.00    -0.270 OA
ATOM      8  N   UNL     1      35.168 -23.158 -15.102  0.00  0.00    -0.267 N 
ATOM      9  N   UNL     1      37.526 -24.353 -14.324  0.00  0.00    -0.292 N 
ATOM     10  N   UNL     1      36.647 -25.683 -12.835  0.00  0.00    -0.132 NA
ATOM     11  N   UNL     1      37.993 -25.981 -12.960  0.00  0.00    -0.125 NA
ATOM     12  C   UNL     1      34.076 -23.107 -15.964  0.00  0.00    +0.245 C 
ATOM     13  C   UNL     1      36.415 -22.377 -15.231  0.00  0.00    +0.119 C 
ATOM     14  C   UNL     1      35.085 -23.999 -13.897  0.00  0.00    +0.160 C 
ATOM     15  C   UNL     1      37.609 -23.323 -15.336  0.00  0.00    +0.130 C 
ATOM     16  C   UNL     1      36.377 -24.698 -13.667  0.00  0.00    +0.164 A 
ATOM     17  C   UNL     1      38.502 -25.171 -13.861  0.00  0.00    +0.238 A 
BRANCH  17  21
ATOM     18  F   UNL     1      40.048 -25.334 -15.679  0.00  0.00    -0.163 F 
ATOM     19  F   UNL     1      40.536 -23.935 -14.096  0.00  0.00    -0.163 F 
ATOM     20  F   UNL     1      40.699 -26.074 -13.741  0.00  0.00    -0.163 F 
ATOM     21  C   UNL     1      39.898 -25.128 -14.330  0.00  0.00    +0.452 C 
ENDBRANCH  17  21
ENDBRANCH   5  12
BRANCH   1  25
ATOM     22  F   UNL     1      36.706 -19.097 -19.645  0.00  0.00    -0.204 F 
ATOM     23  F   UNL     1      33.070 -18.497 -23.686  0.00  0.00    -0.202 F 
ATOM     24  F   UNL     1      35.233 -16.832 -23.530  0.00  0.00    -0.202 F 
ATOM     25  C   UNL     1      34.710 -19.801 -20.718  0.00  0.00    +0.006 C 
ATOM     26  C   UNL     1      35.812 -18.957 -20.634  0.00  0.00    +0.138 C 
ATOM     27  C   UNL     1      33.782 -19.651 -21.745  0.00  0.00    +0.030 C 
ATOM     28  C   UNL     1      33.960 -18.647 -22.696  0.00  0.00    +0.167 C 
ATOM     29  C   UNL     1      35.990 -17.953 -21.585  0.00  0.00    +0.061 C 
ATOM     30  C   UNL     1      35.063 -17.798 -22.617  0.00  0.00    +0.170 C 
ENDBRANCH   1  25
BRANCH   2  31
ATOM     31  N   UNL     1      32.038 -20.930 -19.986  0.00  0.00    +0.382 N 
ATOM     32  H   UNL     1      31.775 -21.902 -20.150  0.00  0.00    -0.089 HD
ATOM     33  H   UNL     1      32.355 -20.512 -20.860  0.00  0.00    -0.089 HD
ATOM     34  H   UNL     1      31.231 -20.415 -19.633  0.00  0.00    -0.089 HD
ENDBRANCH   2  31
TORSDOF 4
ENDMDL
MODEL 3
REMARK VINA RESULT:     -12.9      3.699      9.929
REMARK  Name = 11974440
REMARK  4 active torsions:
REMARK  status: ('A' for Active; 'I' for Inactive)
REMARK    1  A    between atoms: C_1  and  C_25
REMARK    2  A    between atoms: C_2  and  N_31
REMARK    3  A    between atoms: C_5  and  C_12
REMARK    4  A    between atoms: C_17  and  C_21
REMARK                            x       y       z     vdW  Elec       q    Type
REMARK                         _______ _______ _______ _____ _____    ______ ____
ROOT
ATOM      1  C   UNL     1      34.498 -20.798 -18.481  0.00  0.00    +0.009 C 
ATOM      2  C   UNL     1      33.283 -21.161 -19.373  0.00  0.00    -0.057 C 
ATOM      3  C   UNL     1      33.087 -20.101 -20.476  0.00  0.00    +0.009 C 
ATOM      4  C   UNL     1      35.784 -20.690 -19.333  0.00  0.00    +0.028 C 
ATOM      5  C   UNL     1      34.372 -19.708 -21.140  0.00  0.00    +0.025 C 
ATOM      6  C   UNL     1      35.585 -19.978 -20.640  0.00  0.00    -0.026 C 
ENDROOT
BRANCH   5  12
ATOM      7  O   UNL     1      34.002 -19.646 -23.432  0.00  0.00    -0.270 OA
ATOM      8  N   UNL     1      34.584 -17.631 -22.430  0.00  0.00    -0.267 N 
ATOM      9  N   UNL     1      33.700 -15.028 -22.238  0.00  0.00    -0.292 N 
ATOM     10  N   UNL     1      33.465 -14.691 -24.380  0.00  0.00    -0.132 NA
ATOM     11  N   UNL     1      32.986 -13.585 -23.699  0.00  0.00    -0.125 NA
ATOM     12  C   UNL     1      34.307 -18.995 -22.431  0.00  0.00    +0.245 C 
ATOM     13  C   UNL     1      35.026 -16.835 -21.267  0.00  0.00    +0.119 C 
ATOM     14  C   UNL     1      34.516 -16.889 -23.699  0.00  0.00    +0.160 C 
ATOM     15  C   UNL     1      34.029 -15.708 -21.004  0.00  0.00    +0.130 C 
ATOM     16  C   UNL     1      33.892 -15.557 -23.485  0.00  0.00    +0.164 A 
ATOM     17  C   UNL     1      33.137 -13.809 -22.413  0.00  0.00    +0.238 A 
BRANCH  17  21
ATOM     18  F   UNL     1      32.382 -11.654 -21.699  0.00  0.00    -0.163 F 
ATOM     19  F   UNL     1      31.704 -13.363 -20.550  0.00  0.00    -0.163 F 
ATOM     20  F   UNL     1      33.772 -12.709 -20.402  0.00  0.00    -0.163 F 
ATOM     21  C   UNL     1      32.759 -12.914 -21.305  0.00  0.00    +0.452 C 
ENDBRANCH  17  21
ENDBRANCH   5  12
BRANCH   1  25
ATOM     22  F   UNL     1      36.984 -21.068 -17.140  0.00  0.00    -0.204 F 
ATOM     23  F   UNL     1      32.857 -24.187 -15.366  0.00  0.00    -0.202 F 
ATOM     24  F   UNL     1      35.308 -24.344 -14.166  0.00  0.00    -0.202 F 
ATOM     25  C   UNL     1      34.719 -21.752 -17.316  0.00  0.00    +0.006 C 
ATOM     26  C   UNL     1      35.968 -21.828 -16.709  0.00  0.00    +0.138 C 
ATOM     27  C   UNL     1      33.666 -22.545 -16.868  0.00  0.00    +0.030 C 
ATOM     28  C   UNL     1      33.866 -23.421 -15.802  0.00  0.00    +0.167 C 
ATOM     29  C   UNL     1      36.167 -22.704 -15.643  0.00  0.00    +0.061 C 
ATOM     30  C   UNL     1      35.116 -23.500 -15.189  0.00  0.00    +0.170 C 
ENDBRANCH   1  25
BRANCH   2  31
ATOM     31  N   UNL     1      32.052 -21.272 -18.585  0.00  0.00    +0.382 N 
ATOM     32  H   UNL     1      31.492 -20.428 -18.708  0.00  0.00    -0.089 HD
ATOM     33  H   UNL     1      32.289 -21.381 -17.599  0.00  0.00    -0.089 HD
ATOM     34  H   UNL     1      31.518 -22.082 -18.900  0.00  0.00    -0.089 HD
ENDBRANCH   2  31
TORSDOF 4
ENDMDL
MODEL 4
REMARK VINA RESULT:     -12.6      3.790      4.713
REMARK  Name = 11974440
REMARK  4 active torsions:
REMARK  status: ('A' for Active; 'I' for Inactive)
REMARK    1  A    between atoms: C_1  and  C_25
REMARK    2  A    between atoms: C_2  and  N_31
REMARK    3  A    between atoms: C_5  and  C_12
REMARK    4  A    between atoms: C_17  and  C_21
REMARK                            x       y       z     vdW  Elec       q    Type
REMARK                         _______ _______ _______ _____ _____    ______ ____
ROOT
ATOM      1  C   UNL     1      34.655 -19.415 -21.353  0.00  0.00    +0.009 C 
ATOM      2  C   UNL     1      33.476 -19.629 -20.368  0.00  0.00    -0.057 C 
ATOM      3  C   UNL     1      33.761 -20.822 -19.434  0.00  0.00    +0.009 C 
ATOM      4  C   UNL     1      35.970 -19.166 -20.577  0.00  0.00    +0.028 C 
ATOM      5  C   UNL     1      35.157 -20.812 -18.889  0.00  0.00    +0.025 C 
ATOM      6  C   UNL     1      36.150 -20.065 -19.389  0.00  0.00    -0.026 C 
ENDROOT
BRANCH   5  12
ATOM      7  O   UNL     1      36.568 -21.539 -17.193  0.00  0.00    -0.270 OA
ATOM      8  N   UNL     1      34.472 -22.539 -17.285  0.00  0.00    -0.267 N 
ATOM      9  N   UNL     1      32.299 -23.058 -15.671  0.00  0.00    -0.292 N 
ATOM     10  N   UNL     1      33.421 -23.957 -14.031  0.00  0.00    -0.132 NA
ATOM     11  N   UNL     1      32.094 -23.843 -13.654  0.00  0.00    -0.125 NA
ATOM     12  C   UNL     1      35.461 -21.662 -17.720  0.00  0.00    +0.245 C 
ATOM     13  C   UNL     1      33.166 -22.769 -17.936  0.00  0.00    +0.119 C 
ATOM     14  C   UNL     1      34.739 -23.391 -16.116  0.00  0.00    +0.160 C 
ATOM     15  C   UNL     1      32.038 -22.449 -16.958  0.00  0.00    +0.130 C 
ATOM     16  C   UNL     1      33.532 -23.476 -15.252  0.00  0.00    +0.164 A 
ATOM     17  C   UNL     1      31.438 -23.299 -14.655  0.00  0.00    +0.238 A 
BRANCH  17  21
ATOM     18  F   UNL     1      29.710 -21.651 -14.496  0.00  0.00    -0.163 F 
ATOM     19  F   UNL     1      29.396 -23.273 -15.900  0.00  0.00    -0.163 F 
ATOM     20  F   UNL     1      29.260 -23.648 -13.763  0.00  0.00    -0.163 F 
ATOM     21  C   UNL     1      30.001 -22.977 -14.704  0.00  0.00    +0.452 C 
ENDBRANCH  17  21
ENDBRANCH   5  12
BRANCH   1  25
ATOM     22  F   UNL     1      33.831 -19.891 -24.026  0.00  0.00    -0.204 F 
ATOM     23  F   UNL     1      34.601 -14.680 -22.557  0.00  0.00    -0.202 F 
ATOM     24  F   UNL     1      33.806 -15.284 -25.102  0.00  0.00    -0.202 F 
ATOM     25  C   UNL     1      34.424 -18.303 -22.365  0.00  0.00    +0.006 C 
ATOM     26  C   UNL     1      34.019 -18.616 -23.658  0.00  0.00    +0.138 C 
ATOM     27  C   UNL     1      34.622 -16.979 -21.988  0.00  0.00    +0.030 C 
ATOM     28  C   UNL     1      34.412 -15.957 -22.914  0.00  0.00    +0.167 C 
ATOM     29  C   UNL     1      33.809 -17.595 -24.584  0.00  0.00    +0.061 C 
ATOM     30  C   UNL     1      34.005 -16.265 -24.212  0.00  0.00    +0.170 C 
ENDBRANCH   1  25
BRANCH   2  31
ATOM     31  N   UNL     1      32.217 -19.863 -21.082  0.00  0.00    +0.382 N 
ATOM     32  H   UNL     1      31.478 -19.299 -20.662  0.00  0.00    -0.089 HD
ATOM     33  H   UNL     1      31.969 -20.849 -21.019  0.00  0.00    -0.089 HD
ATOM     34  H   UNL     1      32.328 -19.601 -22.062  0.00  0.00    -0.089 HD
ENDBRANCH   2  31
TORSDOF 4
ENDMDL
MODEL 5
REMARK VINA RESULT:     -12.5      3.842      9.906
REMARK  Name = 11974440
REMARK  4 active torsions:
REMARK  status: ('A' for Active; 'I' for Inactive)
REMARK    1  A    between atoms: C_1  and  C_25
REMARK    2  A    between atoms: C_2  and  N_31
REMARK    3  A    between atoms: C_5  and  C_12
REMARK    4  A    between atoms: C_17  and  C_21
REMARK                            x       y       z     vdW  Elec       q    Type
REMARK                         _______ _______ _______ _____ _____    ______ ____
ROOT
ATOM      1  C   UNL     1      33.970 -21.467 -19.028  0.00  0.00    +0.009 C 
ATOM      2  C   UNL     1      35.236 -20.580 -19.158  0.00  0.00    -0.057 C 
ATOM      3  C   UNL     1      35.420 -20.110 -20.615  0.00  0.00    +0.009 C 
ATOM      4  C   UNL     1      32.714 -20.688 -19.486  0.00  0.00    +0.028 C 
ATOM      5  C   UNL     1      34.143 -19.631 -21.236  0.00  0.00    +0.025 C 
ATOM      6  C   UNL     1      32.927 -19.877 -20.731  0.00  0.00    -0.026 C 
ENDROOT
BRANCH   5  12
ATOM      7  O   UNL     1      34.013 -19.396 -23.543  0.00  0.00    -0.270 OA
ATOM      8  N   UNL     1      34.514 -17.471 -22.341  0.00  0.00    -0.267 N 
ATOM      9  N   UNL     1      33.650 -14.871 -22.048  0.00  0.00    -0.292 N 
ATOM     10  N   UNL     1      33.642 -14.375 -24.172  0.00  0.00    -0.132 NA
ATOM     11  N   UNL     1      33.109 -13.311 -23.464  0.00  0.00    -0.125 NA
ATOM     12  C   UNL     1      34.221 -18.825 -22.472  0.00  0.00    +0.245 C 
ATOM     13  C   UNL     1      34.843 -16.770 -21.083  0.00  0.00    +0.119 C 
ATOM     14  C   UNL     1      34.588 -16.638 -23.552  0.00  0.00    +0.160 C 
ATOM     15  C   UNL     1      33.840 -15.645 -20.841  0.00  0.00    +0.130 C 
ATOM     16  C   UNL     1      33.962 -15.312 -23.305  0.00  0.00    +0.164 A 
ATOM     17  C   UNL     1      33.123 -13.631 -22.189  0.00  0.00    +0.238 A 
BRANCH  17  21
ATOM     18  F   UNL     1      32.126 -11.593 -21.429  0.00  0.00    -0.163 F 
ATOM     19  F   UNL     1      31.647 -13.395 -20.322  0.00  0.00    -0.163 F 
ATOM     20  F   UNL     1      33.627 -12.512 -20.151  0.00  0.00    -0.163 F 
ATOM     21  C   UNL     1      32.645 -12.811 -21.062  0.00  0.00    +0.452 C 
ENDBRANCH  17  21
ENDBRANCH   5  12
BRANCH   1  25
ATOM     22  F   UNL     1      31.403 -22.035 -17.962  0.00  0.00    -0.204 F 
ATOM     23  F   UNL     1      35.709 -23.084 -14.758  0.00  0.00    -0.202 F 
ATOM     24  F   UNL     1      33.177 -23.585 -13.858  0.00  0.00    -0.202 F 
ATOM     25  C   UNL     1      33.754 -22.039 -17.636  0.00  0.00    +0.006 C 
ATOM     26  C   UNL     1      32.463 -22.292 -17.183  0.00  0.00    +0.138 C 
ATOM     27  C   UNL     1      34.852 -22.304 -16.823  0.00  0.00    +0.030 C 
ATOM     28  C   UNL     1      34.657 -22.828 -15.546  0.00  0.00    +0.167 C 
ATOM     29  C   UNL     1      32.268 -22.816 -15.905  0.00  0.00    +0.061 C 
ATOM     30  C   UNL     1      33.365 -23.084 -15.087  0.00  0.00    +0.170 C 
ENDBRANCH   1  25
BRANCH   2  31
ATOM     31  N   UNL     1      36.439 -21.297 -18.725  0.00  0.00    +0.382 N 
ATOM     32  H   UNL     1      37.151 -21.236 -19.454  0.00  0.00    -0.089 HD
ATOM     33  H   UNL     1      36.209 -22.275 -18.555  0.00  0.00    -0.089 HD
ATOM     34  H   UNL     1      36.796 -20.876 -17.867  0.00  0.00    -0.089 HD
ENDBRANCH   2  31
TORSDOF 4
ENDMDL
MODEL 6
REMARK VINA RESULT:     -12.0      3.778      4.454
REMARK  Name = 11974440
REMARK  4 active torsions:
REMARK  status: ('A' for Active; 'I' for Inactive)
REMARK    1  A    between atoms: C_1  and  C_25
REMARK    2  A    between atoms: C_2  and  N_31
REMARK    3  A    between atoms: C_5  and  C_12
REMARK    4  A    between atoms: C_17  and  C_21
REMARK                            x       y       z     vdW  Elec       q    Type
REMARK                         _______ _______ _______ _____ _____    ______ ____
ROOT
ATOM      1  C   UNL     1      34.545 -18.895 -20.645  0.00  0.00    +0.009 C 
ATOM      2  C   UNL     1      35.948 -19.555 -20.590  0.00  0.00    -0.057 C 
ATOM      3  C   UNL     1      36.201 -20.171 -19.200  0.00  0.00    +0.009 C 
ATOM      4  C   UNL     1      33.444 -19.934 -20.327  0.00  0.00    +0.028 C 
ATOM      5  C   UNL     1      35.025 -20.943 -18.683  0.00  0.00    +0.025 C 
ATOM      6  C   UNL     1      33.788 -20.851 -19.190  0.00  0.00    -0.026 C 
ENDROOT
BRANCH   5  12
ATOM      7  O   UNL     1      36.336 -21.868 -17.004  0.00  0.00    -0.270 OA
ATOM      8  N   UNL     1      34.173 -22.698 -17.193  0.00  0.00    -0.267 N 
ATOM      9  N   UNL     1      31.930 -23.136 -15.653  0.00  0.00    -0.292 N 
ATOM     10  N   UNL     1      32.942 -24.207 -14.045  0.00  0.00    -0.132 NA
ATOM     11  N   UNL     1      31.619 -24.012 -13.687  0.00  0.00    -0.125 NA
ATOM     12  C   UNL     1      35.236 -21.877 -17.558  0.00  0.00    +0.245 C 
ATOM     13  C   UNL     1      32.870 -22.791 -17.880  0.00  0.00    +0.119 C 
ATOM     14  C   UNL     1      34.348 -23.631 -16.068  0.00  0.00    +0.160 C 
ATOM     15  C   UNL     1      31.746 -22.439 -16.908  0.00  0.00    +0.130 C 
ATOM     16  C   UNL     1      33.118 -23.670 -15.234  0.00  0.00    +0.164 A 
ATOM     17  C   UNL     1      31.029 -23.365 -14.668  0.00  0.00    +0.238 A 
BRANCH  17  21
ATOM     18  F   UNL     1      29.390 -21.690 -14.189  0.00  0.00    -0.163 F 
ATOM     19  F   UNL     1      29.108 -22.854 -15.997  0.00  0.00    -0.163 F 
ATOM     20  F   UNL     1      28.767 -23.769 -14.055  0.00  0.00    -0.163 F 
ATOM     21  C   UNL     1      29.622 -22.932 -14.727  0.00  0.00    +0.452 C 
ENDBRANCH  17  21
ENDBRANCH   5  12
BRANCH   1  25
ATOM     22  F   UNL     1      34.946 -16.116 -21.054  0.00  0.00    -0.204 F 
ATOM     23  F   UNL     1      32.972 -18.986 -25.270  0.00  0.00    -0.202 F 
ATOM     24  F   UNL     1      33.408 -16.299 -25.525  0.00  0.00    -0.202 F 
ATOM     25  C   UNL     1      34.241 -18.193 -21.959  0.00  0.00    +0.006 C 
ATOM     26  C   UNL     1      34.465 -16.826 -22.084  0.00  0.00    +0.138 C 
ATOM     27  C   UNL     1      33.738 -18.926 -23.030  0.00  0.00    +0.030 C 
ATOM     28  C   UNL     1      33.457 -18.286 -24.236  0.00  0.00    +0.167 C 
ATOM     29  C   UNL     1      34.184 -16.185 -23.290  0.00  0.00    +0.061 C 
ATOM     30  C   UNL     1      33.680 -16.915 -24.367  0.00  0.00    +0.170 C 
ENDBRANCH   1  25
BRANCH   2  31
ATOM     31  N   UNL     1      37.007 -18.588 -20.892  0.00  0.00    +0.382 N 
ATOM     32  H   UNL     1      36.772 -18.082 -21.746  0.00  0.00    -0.089 HD
ATOM     33  H   UNL     1      37.890 -19.081 -21.021  0.00  0.00    -0.089 HD
ATOM     34  H   UNL     1      37.095 -17.927 -20.119  0.00  0.00    -0.089 HD
ENDBRANCH   2  31
TORSDOF 4
ENDMDL
MODEL 7
REMARK VINA RESULT:     -11.7     10.100     15.785
REMARK  Name = 11974440
REMARK  4 active torsions:
REMARK  status: ('A' for Active; 'I' for Inactive)
REMARK    1  A    between atoms: C_1  and  C_25
REMARK    2  A    between atoms: C_2  and  N_31
REMARK    3  A    between atoms: C_5  and  C_12
REMARK    4  A    between atoms: C_17  and  C_21
REMARK                            x       y       z     vdW  Elec       q    Type
REMARK                         _______ _______ _______ _____ _____    ______ ____
ROOT
ATOM      1  C   UNL     1      32.362 -12.015 -22.916  0.00  0.00    +0.009 C 
ATOM      2  C   UNL     1      33.366 -10.839 -23.031  0.00  0.00    -0.057 C 
ATOM      3  C   UNL     1      32.632  -9.488 -22.906  0.00  0.00    +0.009 C 
ATOM      4  C   UNL     1      31.609 -11.955 -21.566  0.00  0.00    +0.028 C 
ATOM      5  C   UNL     1      31.633  -9.471 -21.789  0.00  0.00    +0.025 C 
ATOM      6  C   UNL     1      31.177 -10.572 -21.176  0.00  0.00    -0.026 C 
ENDROOT
BRANCH   5  12
ATOM      7  O   UNL     1      30.965  -8.016 -20.107  0.00  0.00    -0.270 OA
ATOM      8  N   UNL     1      30.876  -7.188 -22.277  0.00  0.00    -0.267 N 
ATOM      9  N   UNL     1      31.752  -5.037 -23.761  0.00  0.00    -0.292 N 
ATOM     10  N   UNL     1      31.029  -3.491 -22.403  0.00  0.00    -0.132 NA
ATOM     11  N   UNL     1      31.755  -2.890 -23.416  0.00  0.00    -0.125 NA
ATOM     12  C   UNL     1      31.127  -8.166 -21.319  0.00  0.00    +0.245 C 
ATOM     13  C   UNL     1      30.985  -7.356 -23.740  0.00  0.00    +0.119 C 
ATOM     14  C   UNL     1      30.383  -5.872 -21.839  0.00  0.00    +0.160 C 
ATOM     15  C   UNL     1      31.995  -6.357 -24.301  0.00  0.00    +0.130 C 
ATOM     16  C   UNL     1      31.036  -4.790 -22.621  0.00  0.00    +0.164 A 
ATOM     17  C   UNL     1      32.182  -3.838 -24.221  0.00  0.00    +0.238 A 
BRANCH  17  21
ATOM     18  F   UNL     1      33.268  -2.365 -25.762  0.00  0.00    -0.163 F 
ATOM     19  F   UNL     1      34.242  -4.260 -25.360  0.00  0.00    -0.163 F 
ATOM     20  F   UNL     1      32.428  -4.206 -26.558  0.00  0.00    -0.163 F 
ATOM     21  C   UNL     1      33.003  -3.671 -25.433  0.00  0.00    +0.452 C 
ENDBRANCH  17  21
ENDBRANCH   5  12
BRANCH   1  25
ATOM     22  F   UNL     1      32.392 -13.383 -25.402  0.00  0.00    -0.204 F 
ATOM     23  F   UNL     1      34.735 -15.906 -21.152  0.00  0.00    -0.202 F 
ATOM     24  F   UNL     1      34.692 -17.109 -23.607  0.00  0.00    -0.202 F 
ATOM     25  C   UNL     1      32.991 -13.388 -23.105  0.00  0.00    +0.006 C 
ATOM     26  C   UNL     1      32.966 -13.995 -24.357  0.00  0.00    +0.138 C 
ATOM     27  C   UNL     1      33.585 -14.027 -22.021  0.00  0.00    +0.030 C 
ATOM     28  C   UNL     1      34.161 -15.285 -22.192  0.00  0.00    +0.167 C 
ATOM     29  C   UNL     1      33.543 -15.253 -24.527  0.00  0.00    +0.061 C 
ATOM     30  C   UNL     1      34.141 -15.899 -23.444  0.00  0.00    +0.170 C 
ENDBRANCH   1  25
BRANCH   2  31
ATOM     31  N   UNL     1      34.095 -10.879 -24.302  0.00  0.00    +0.382 N 
ATOM     32  H   UNL     1      34.168 -11.845 -24.621  0.00  0.00    -0.089 HD
ATOM     33  H   UNL     1      35.028 -10.492 -24.171  0.00  0.00    -0.089 HD
ATOM     34  H   UNL     1      33.592 -10.329 -24.999  0.00  0.00    -0.089 HD
ENDBRANCH   2  31
TORSDOF 4
ENDMDL
MODEL 8
REMARK VINA RESULT:     -11.5     10.219     15.999
REMARK  Name = 11974440
REMARK  4 active torsions:
REMARK  status: ('A' for Active; 'I' for Inactive)
REMARK    1  A    between atoms: C_1  and  C_25
REMARK    2  A    between atoms: C_2  and  N_31
REMARK    3  A    between atoms: C_5  and  C_12
REMARK    4  A    between atoms: C_17  and  C_21
REMARK                            x       y       z     vdW  Elec       q    Type
REMARK                         _______ _______ _______ _____ _____    ______ ____
ROOT
ATOM      1  C   UNL     1      32.885 -11.706 -22.195  0.00  0.00    +0.009 C 
ATOM      2  C   UNL     1      31.447 -11.640 -21.619  0.00  0.00    -0.057 C 
ATOM      3  C   UNL     1      31.186 -10.265 -20.972  0.00  0.00    +0.009 C 
ATOM      4  C   UNL     1      33.101 -10.588 -23.243  0.00  0.00    +0.028 C 
ATOM      5  C   UNL     1      31.675  -9.125 -21.814  0.00  0.00    +0.025 C 
ATOM      6  C   UNL     1      32.524  -9.263 -22.840  0.00  0.00    -0.026 C 
ENDROOT
BRANCH   5  12
ATOM      7  O   UNL     1      31.161  -7.413 -20.330  0.00  0.00    -0.270 OA
ATOM      8  N   UNL     1      30.782  -6.971 -22.581  0.00  0.00    -0.267 N 
ATOM      9  N   UNL     1      31.394  -5.094 -24.504  0.00  0.00    -0.292 N 
ATOM     10  N   UNL     1      30.783  -3.349 -23.346  0.00  0.00    -0.132 NA
ATOM     11  N   UNL     1      31.360  -2.920 -24.528  0.00  0.00    -0.125 NA
ATOM     12  C   UNL     1      31.181  -7.766 -21.511  0.00  0.00    +0.245 C 
ATOM     13  C   UNL     1      30.721  -7.386 -23.997  0.00  0.00    +0.119 C 
ATOM     14  C   UNL     1      30.297  -5.608 -22.313  0.00  0.00    +0.160 C 
ATOM     15  C   UNL     1      31.619  -6.483 -24.840  0.00  0.00    +0.130 C 
ATOM     16  C   UNL     1      30.812  -4.665 -23.342  0.00  0.00    +0.164 A 
ATOM     17  C   UNL     1      31.721  -3.985 -25.209  0.00  0.00    +0.238 A 
BRANCH  17  21
ATOM     18  F   UNL     1      32.207  -5.186 -27.221  0.00  0.00    -0.163 F 
ATOM     19  F   UNL     1      31.966  -3.037 -27.391  0.00  0.00    -0.163 F 
ATOM     20  F   UNL     1      33.746  -3.857 -26.450  0.00  0.00    -0.163 F 
ATOM     21  C   UNL     1      32.385  -4.016 -26.524  0.00  0.00    +0.452 C 
ENDBRANCH  17  21
ENDBRANCH   5  12
BRANCH   1  25
ATOM     22  F   UNL     1      34.235 -13.728 -20.732  0.00  0.00    -0.204 F 
ATOM     23  F   UNL     1      32.956 -14.860 -25.927  0.00  0.00    -0.202 F 
ATOM     24  F   UNL     1      34.257 -16.717 -24.400  0.00  0.00    -0.202 F 
ATOM     25  C   UNL     1      33.255 -13.058 -22.787  0.00  0.00    +0.006 C 
ATOM     26  C   UNL     1      33.917 -13.999 -22.005  0.00  0.00    +0.138 C 
ATOM     27  C   UNL     1      32.928 -13.342 -24.109  0.00  0.00    +0.030 C 
ATOM     28  C   UNL     1      33.266 -14.580 -24.654  0.00  0.00    +0.167 C 
ATOM     29  C   UNL     1      34.255 -15.237 -22.550  0.00  0.00    +0.061 C 
ATOM     30  C   UNL     1      33.929 -15.528 -23.875  0.00  0.00    +0.170 C 
ENDBRANCH   1  25
BRANCH   2  31
ATOM     31  N   UNL     1      31.218 -12.694 -20.626  0.00  0.00    +0.382 N 
ATOM     32  H   UNL     1      32.113 -12.999 -20.243  0.00  0.00    -0.089 HD
ATOM     33  H   UNL     1      30.751 -13.484 -21.070  0.00  0.00    -0.089 HD
ATOM     34  H   UNL     1      30.633 -12.331 -19.874  0.00  0.00    -0.089 HD
ENDBRANCH   2  31
TORSDOF 4
ENDMDL
MODEL 9
REMARK VINA RESULT:     -11.4      9.694     15.399
REMARK  Name = 11974440
REMARK  4 active torsions:
REMARK  status: ('A' for Active; 'I' for Inactive)
REMARK    1  A    between atoms: C_1  and  C_25
REMARK    2  A    between atoms: C_2  and  N_31
REMARK    3  A    between atoms: C_5  and  C_12
REMARK    4  A    between atoms: C_17  and  C_21
REMARK                            x       y       z     vdW  Elec       q    Type
REMARK                         _______ _______ _______ _____ _____    ______ ____
ROOT
ATOM      1  C   UNL     1      33.018 -12.318 -22.226  0.00  0.00    +0.009 C 
ATOM      2  C   UNL     1      31.682 -12.324 -21.439  0.00  0.00    -0.057 C 
ATOM      3  C   UNL     1      31.441 -10.954 -20.772  0.00  0.00    +0.009 C 
ATOM      4  C   UNL     1      33.006 -11.208 -23.305  0.00  0.00    +0.028 C 
ATOM      5  C   UNL     1      31.728  -9.803 -21.688  0.00  0.00    +0.025 C 
ATOM      6  C   UNL     1      32.419  -9.911 -22.831  0.00  0.00    -0.026 C 
ENDROOT
BRANCH   5  12
ATOM      7  O   UNL     1      30.941  -8.260 -20.141  0.00  0.00    -0.270 OA
ATOM      8  N   UNL     1      31.060  -7.535 -22.347  0.00  0.00    -0.267 N 
ATOM      9  N   UNL     1      32.103  -5.470 -23.844  0.00  0.00    -0.292 N 
ATOM     10  N   UNL     1      31.291  -3.851 -22.629  0.00  0.00    -0.132 NA
ATOM     11  N   UNL     1      32.116  -3.310 -23.600  0.00  0.00    -0.125 NA
ATOM     12  C   UNL     1      31.207  -8.470 -21.326  0.00  0.00    +0.245 C 
ATOM     13  C   UNL     1      31.295  -7.774 -23.785  0.00  0.00    +0.119 C 
ATOM     14  C   UNL     1      30.554  -6.193 -22.016  0.00  0.00    +0.160 C 
ATOM     15  C   UNL     1      32.369  -6.818 -24.299  0.00  0.00    +0.130 C 
ATOM     16  C   UNL     1      31.294  -5.159 -22.786  0.00  0.00    +0.164 A 
ATOM     17  C   UNL     1      32.594  -4.301 -24.319  0.00  0.00    +0.238 A 
BRANCH  17  21
ATOM     18  F   UNL     1      33.798  -2.919 -25.857  0.00  0.00    -0.163 F 
ATOM     19  F   UNL     1      34.757  -4.760 -25.230  0.00  0.00    -0.163 F 
ATOM     20  F   UNL     1      33.063  -4.829 -26.590  0.00  0.00    -0.163 F 
ATOM     21  C   UNL     1      33.523  -4.204 -25.458  0.00  0.00    +0.452 C 
ENDBRANCH  17  21
ENDBRANCH   5  12
BRANCH   1  25
ATOM     22  F   UNL     1      32.303 -13.030 -24.878  0.00  0.00    -0.204 F 
ATOM     23  F   UNL     1      35.091 -16.736 -21.979  0.00  0.00    -0.202 F 
ATOM     24  F   UNL     1      34.338 -17.289 -24.548  0.00  0.00    -0.202 F 
ATOM     25  C   UNL     1      33.374 -13.656 -22.855  0.00  0.00    +0.006 C 
ATOM     26  C   UNL     1      32.988 -13.933 -24.163  0.00  0.00    +0.138 C 
ATOM     27  C   UNL     1      34.082 -14.597 -22.114  0.00  0.00    +0.030 C 
ATOM     28  C   UNL     1      34.409 -15.825 -22.687  0.00  0.00    +0.167 C 
ATOM     29  C   UNL     1      33.315 -15.161 -24.736  0.00  0.00    +0.061 C 
ATOM     30  C   UNL     1      34.026 -16.108 -23.998  0.00  0.00    +0.170 C 
ENDBRANCH   1  25
BRANCH   2  31
ATOM     31  N   UNL     1      31.669 -13.371 -20.413  0.00  0.00    +0.382 N 
ATOM     32  H   UNL     1      32.575 -13.398 -19.944  0.00  0.00    -0.089 HD
ATOM     33  H   UNL     1      31.486 -14.273 -20.851  0.00  0.00    -0.089 HD
ATOM     34  H   UNL     1      30.940 -13.169 -19.730  0.00  0.00    -0.089 HD
ENDBRANCH   2  31
TORSDOF 4
ENDMDL
