MODEL 1
REMARK VINA RESULT:     -11.0      0.000      0.000
REMARK  Name = 1530
REMARK  1 active torsions:
REMARK  status: ('A' for Active; 'I' for Inactive)
REMARK    1  A    between atoms: C_7  and  C_14
REMARK                            x       y       z     vdW  Elec       q    Type
REMARK                         _______ _______ _______ _____ _____    ______ ____
ROOT
ATOM      1  N   UNL     1      33.565 -13.975 -23.523  0.00  0.00    -0.240 N 
ATOM      2  N   UNL     1      33.029 -14.842 -25.504  0.00  0.00    -0.319 NA
ATOM      3  N   UNL     1      33.521 -17.156 -24.955  0.00  0.00    -0.181 NA
ATOM      4  N   UNL     1      32.820 -12.471 -25.170  0.00  0.00    -0.320 N 
ATOM      5  C   UNL     1      33.784 -15.321 -23.407  0.00  0.00    +0.130 C 
ATOM      6  C   UNL     1      33.443 -15.836 -24.652  0.00  0.00    +0.105 C 
ATOM      7  C   UNL     1      34.318 -17.491 -22.668  0.00  0.00    +0.022 C 
ATOM      8  C   UNL     1      34.234 -16.133 -22.372  0.00  0.00    +0.028 C 
ATOM      9  C   UNL     1      33.115 -13.738 -24.794  0.00  0.00    +0.250 C 
ATOM     10  C   UNL     1      33.775 -12.994 -22.481  0.00  0.00    +0.122 C 
ATOM     11  C   UNL     1      33.960 -17.932 -23.937  0.00  0.00    +0.111 C 
ATOM     12  H   UNL     1      32.931 -11.729 -24.532  0.00  0.00    +0.146 HD
ATOM     13  H   UNL     1      32.496 -12.291 -26.082  0.00  0.00    +0.146 HD
ENDROOT
BRANCH   7  14
ATOM     14  C   UNL     1      34.775 -18.429 -21.667  0.00  0.00    +0.002 C 
ATOM     15  C   UNL     1      33.903 -19.397 -21.167  0.00  0.00    +0.000 C 
ATOM     16  C   UNL     1      36.088 -18.367 -21.199  0.00  0.00    +0.000 C 
ATOM     17  C   UNL     1      34.345 -20.302 -20.201  0.00  0.00    +0.000 C 
ATOM     18  C   UNL     1      36.530 -19.271 -20.233  0.00  0.00    +0.000 C 
ATOM     19  C   UNL     1      35.657 -20.239 -19.734  0.00  0.00    +0.000 C 
ENDBRANCH   7  14
TORSDOF 1
ENDMDL
MODEL 2
REMARK VINA RESULT:     -10.6      1.315      2.046
REMARK  Name = 1530
REMARK  1 active torsions:
REMARK  status: ('A' for Active; 'I' for Inactive)
REMARK    1  A    between atoms: C_7  and  C_14
REMARK                            x       y       z     vdW  Elec       q    Type
REMARK                         _______ _______ _______ _____ _____    ______ ____
ROOT
ATOM      1  N   UNL     1      34.030 -14.594 -21.844  0.00  0.00    -0.240 N 
ATOM      2  N   UNL     1      34.112 -15.037 -24.025  0.00  0.00    -0.319 NA
ATOM      3  N   UNL     1      34.366 -17.444 -23.828  0.00  0.00    -0.181 NA
ATOM      4  N   UNL     1      33.857 -12.758 -23.304  0.00  0.00    -0.320 N 
ATOM      5  C   UNL     1      34.177 -15.951 -21.938  0.00  0.00    +0.130 C 
ATOM      6  C   UNL     1      34.225 -16.200 -23.305  0.00  0.00    +0.105 C 
ATOM      7  C   UNL     1      34.415 -18.256 -21.521  0.00  0.00    +0.022 C 
ATOM      8  C   UNL     1      34.271 -16.973 -21.000  0.00  0.00    +0.028 C 
ATOM      9  C   UNL     1      33.997 -14.093 -23.117  0.00  0.00    +0.250 C 
ATOM     10  C   UNL     1      33.930 -13.841 -20.613  0.00  0.00    +0.122 C 
ATOM     11  C   UNL     1      34.455 -18.427 -22.901  0.00  0.00    +0.111 C 
ATOM     12  H   UNL     1      33.781 -12.158 -22.527  0.00  0.00    +0.146 HD
ATOM     13  H   UNL     1      33.832 -12.389 -24.216  0.00  0.00    +0.146 HD
ENDROOT
BRANCH   7  14
ATOM     14  C   UNL     1      34.524 -19.395 -20.637  0.00  0.00    +0.002 C 
ATOM     15  C   UNL     1      35.778 -19.828 -20.206  0.00  0.00    +0.000 C 
ATOM     16  C   UNL     1      33.374 -20.063 -20.215  0.00  0.00    +0.000 C 
ATOM     17  C   UNL     1      35.883 -20.927 -19.354  0.00  0.00    +0.000 C 
ATOM     18  C   UNL     1      33.478 -21.162 -19.362  0.00  0.00    +0.000 C 
ATOM     19  C   UNL     1      34.733 -21.594 -18.931  0.00  0.00    +0.000 C 
ENDBRANCH   7  14
TORSDOF 1
ENDMDL
MODEL 3
REMARK VINA RESULT:     -10.3      5.487      8.396
REMARK  Name = 1530
REMARK  1 active torsions:
REMARK  status: ('A' for Active; 'I' for Inactive)
REMARK    1  A    between atoms: C_7  and  C_14
REMARK                            x       y       z     vdW  Elec       q    Type
REMARK                         _______ _______ _______ _____ _____    ______ ____
ROOT
ATOM      1  N   UNL     1      35.582 -22.399 -16.361  0.00  0.00    -0.240 N 
ATOM      2  N   UNL     1      33.524 -23.249 -16.437  0.00  0.00    -0.319 NA
ATOM      3  N   UNL     1      32.814 -22.119 -18.466  0.00  0.00    -0.181 NA
ATOM      4  N   UNL     1      34.987 -23.884 -14.638  0.00  0.00    -0.320 N 
ATOM      5  C   UNL     1      35.003 -21.860 -17.477  0.00  0.00    +0.130 C 
ATOM      6  C   UNL     1      33.724 -22.405 -17.501  0.00  0.00    +0.105 C 
ATOM      7  C   UNL     1      34.521 -20.671 -19.451  0.00  0.00    +0.022 C 
ATOM      8  C   UNL     1      35.444 -20.973 -18.453  0.00  0.00    +0.028 C 
ATOM      9  C   UNL     1      34.660 -23.222 -15.773  0.00  0.00    +0.250 C 
ATOM     10  C   UNL     1      36.928 -22.136 -15.900  0.00  0.00    +0.122 C 
ATOM     11  C   UNL     1      33.259 -21.256 -19.408  0.00  0.00    +0.111 C 
ATOM     12  H   UNL     1      35.881 -23.772 -14.242  0.00  0.00    +0.146 HD
ATOM     13  H   UNL     1      34.330 -24.479 -14.208  0.00  0.00    +0.146 HD
ENDROOT
BRANCH   7  14
ATOM     14  C   UNL     1      34.871 -19.759 -20.517  0.00  0.00    +0.002 C 
ATOM     15  C   UNL     1      33.955 -19.488 -21.534  0.00  0.00    +0.000 C 
ATOM     16  C   UNL     1      36.126 -19.148 -20.529  0.00  0.00    +0.000 C 
ATOM     17  C   UNL     1      34.294 -18.608 -22.562  0.00  0.00    +0.000 C 
ATOM     18  C   UNL     1      36.464 -18.267 -21.557  0.00  0.00    +0.000 C 
ATOM     19  C   UNL     1      35.547 -17.997 -22.574  0.00  0.00    +0.000 C 
ENDBRANCH   7  14
TORSDOF 1
ENDMDL
MODEL 4
REMARK VINA RESULT:     -10.0      3.486      6.566
REMARK  Name = 1530
REMARK  1 active torsions:
REMARK  status: ('A' for Active; 'I' for Inactive)
REMARK    1  A    between atoms: C_7  and  C_14
REMARK                            x       y       z     vdW  Elec       q    Type
REMARK                         _______ _______ _______ _____ _____    ______ ____
ROOT
ATOM      1  N   UNL     1      33.716 -20.488 -19.767  0.00  0.00    -0.240 N 
ATOM      2  N   UNL     1      35.895 -20.643 -19.329  0.00  0.00    -0.319 NA
ATOM      3  N   UNL     1      36.598 -18.737 -20.659  0.00  0.00    -0.181 NA
ATOM      4  N   UNL     1      34.388 -22.240 -18.349  0.00  0.00    -0.320 N 
ATOM      5  C   UNL     1      34.303 -19.460 -20.453  0.00  0.00    +0.130 C 
ATOM      6  C   UNL     1      35.657 -19.580 -20.164  0.00  0.00    +0.105 C 
ATOM      7  C   UNL     1      34.767 -17.583 -21.796  0.00  0.00    +0.022 C 
ATOM      8  C   UNL     1      33.812 -18.456 -21.281  0.00  0.00    +0.028 C 
ATOM      9  C   UNL     1      34.708 -21.166 -19.110  0.00  0.00    +0.250 C 
ATOM     10  C   UNL     1      32.301 -20.789 -19.747  0.00  0.00    +0.122 C 
ATOM     11  C   UNL     1      36.104 -17.766 -21.462  0.00  0.00    +0.111 C 
ATOM     12  H   UNL     1      33.450 -22.527 -18.271  0.00  0.00    +0.146 HD
ATOM     13  H   UNL     1      35.095 -22.734 -17.873  0.00  0.00    +0.146 HD
ENDROOT
BRANCH   7  14
ATOM     14  C   UNL     1      34.370 -16.501 -22.670  0.00  0.00    +0.002 C 
ATOM     15  C   UNL     1      34.052 -16.761 -24.003  0.00  0.00    +0.000 C 
ATOM     16  C   UNL     1      34.305 -15.196 -22.180  0.00  0.00    +0.000 C 
ATOM     17  C   UNL     1      33.669 -15.717 -24.845  0.00  0.00    +0.000 C 
ATOM     18  C   UNL     1      33.922 -14.152 -23.022  0.00  0.00    +0.000 C 
ATOM     19  C   UNL     1      33.604 -14.413 -24.356  0.00  0.00    +0.000 C 
ENDBRANCH   7  14
TORSDOF 1
ENDMDL
MODEL 5
REMARK VINA RESULT:      -9.7      7.619     10.443
REMARK  Name = 1530
REMARK  1 active torsions:
REMARK  status: ('A' for Active; 'I' for Inactive)
REMARK    1  A    between atoms: C_7  and  C_14
REMARK                            x       y       z     vdW  Elec       q    Type
REMARK                         _______ _______ _______ _____ _____    ______ ____
ROOT
ATOM      1  N   UNL     1      30.127 -23.728 -15.129  0.00  0.00    -0.240 N 
ATOM      2  N   UNL     1      31.719 -24.459 -13.753  0.00  0.00    -0.319 NA
ATOM      3  N   UNL     1      33.611 -23.591 -15.004  0.00  0.00    -0.181 NA
ATOM      4  N   UNL     1      29.418 -24.916 -13.227  0.00  0.00    -0.320 N 
ATOM      5  C   UNL     1      31.309 -23.322 -15.685  0.00  0.00    +0.130 C 
ATOM      6  C   UNL     1      32.282 -23.789 -14.810  0.00  0.00    +0.105 C 
ATOM      7  C   UNL     1      32.993 -22.398 -17.047  0.00  0.00    +0.022 C 
ATOM      8  C   UNL     1      31.633 -22.610 -16.835  0.00  0.00    +0.028 C 
ATOM      9  C   UNL     1      30.424 -24.404 -13.976  0.00  0.00    +0.250 C 
ATOM     10  C   UNL     1      28.810 -23.480 -15.673  0.00  0.00    +0.122 C 
ATOM     11  C   UNL     1      33.909 -22.897 -16.126  0.00  0.00    +0.111 C 
ATOM     12  H   UNL     1      28.483 -24.801 -13.513  0.00  0.00    +0.146 HD
ATOM     13  H   UNL     1      29.622 -25.404 -12.396  0.00  0.00    +0.146 HD
ENDROOT
BRANCH   7  14
ATOM     14  C   UNL     1      33.445 -21.671 -18.212  0.00  0.00    +0.002 C 
ATOM     15  C   UNL     1      32.531 -20.962 -18.992  0.00  0.00    +0.000 C 
ATOM     16  C   UNL     1      34.797 -21.678 -18.558  0.00  0.00    +0.000 C 
ATOM     17  C   UNL     1      32.968 -20.260 -20.115  0.00  0.00    +0.000 C 
ATOM     18  C   UNL     1      35.234 -20.976 -19.681  0.00  0.00    +0.000 C 
ATOM     19  C   UNL     1      34.319 -20.267 -20.460  0.00  0.00    +0.000 C 
ENDBRANCH   7  14
TORSDOF 1
ENDMDL
MODEL 6
REMARK VINA RESULT:      -9.6      2.772      6.947
REMARK  Name = 1530
REMARK  1 active torsions:
REMARK  status: ('A' for Active; 'I' for Inactive)
REMARK    1  A    between atoms: C_7  and  C_14
REMARK                            x       y       z     vdW  Elec       q    Type
REMARK                         _______ _______ _______ _____ _____    ______ ____
ROOT
ATOM      1  N   UNL     1      34.282 -15.994 -23.268  0.00  0.00    -0.240 N 
ATOM      2  N   UNL     1      34.795 -16.493 -21.159  0.00  0.00    -0.319 NA
ATOM      3  N   UNL     1      33.870 -14.488 -20.148  0.00  0.00    -0.181 NA
ATOM      4  N   UNL     1      35.391 -18.035 -22.904  0.00  0.00    -0.320 N 
ATOM      5  C   UNL     1      33.823 -14.944 -22.520  0.00  0.00    +0.130 C 
ATOM      6  C   UNL     1      34.156 -15.280 -21.213  0.00  0.00    +0.105 C 
ATOM      7  C   UNL     1      32.866 -12.936 -21.749  0.00  0.00    +0.022 C 
ATOM      8  C   UNL     1      33.167 -13.758 -22.832  0.00  0.00    +0.028 C 
ATOM      9  C   UNL     1      34.855 -16.894 -22.411  0.00  0.00    +0.250 C 
ATOM     10  C   UNL     1      34.172 -16.115 -24.706  0.00  0.00    +0.122 C 
ATOM     11  C   UNL     1      33.230 -13.339 -20.469  0.00  0.00    +0.111 C 
ATOM     12  H   UNL     1      35.368 -18.212 -23.873  0.00  0.00    +0.146 HD
ATOM     13  H   UNL     1      35.806 -18.688 -22.295  0.00  0.00    +0.146 HD
ENDROOT
BRANCH   7  14
ATOM     14  C   UNL     1      32.185 -11.677 -21.956  0.00  0.00    +0.002 C 
ATOM     15  C   UNL     1      32.550 -10.853 -23.021  0.00  0.00    +0.000 C 
ATOM     16  C   UNL     1      31.163 -11.286 -21.091  0.00  0.00    +0.000 C 
ATOM     17  C   UNL     1      31.892  -9.638 -23.220  0.00  0.00    +0.000 C 
ATOM     18  C   UNL     1      30.505 -10.072 -21.289  0.00  0.00    +0.000 C 
ATOM     19  C   UNL     1      30.870  -9.248 -22.355  0.00  0.00    +0.000 C 
ENDBRANCH   7  14
TORSDOF 1
ENDMDL
MODEL 7
REMARK VINA RESULT:      -9.4      7.820     10.876
REMARK  Name = 1530
REMARK  1 active torsions:
REMARK  status: ('A' for Active; 'I' for Inactive)
REMARK    1  A    between atoms: C_7  and  C_14
REMARK                            x       y       z     vdW  Elec       q    Type
REMARK                         _______ _______ _______ _____ _____    ______ ____
ROOT
ATOM      1  N   UNL     1      34.750 -23.610 -13.281  0.00  0.00    -0.240 N 
ATOM      2  N   UNL     1      36.953 -23.514 -12.959  0.00  0.00    -0.319 NA
ATOM      3  N   UNL     1      37.518 -22.502 -15.093  0.00  0.00    -0.181 NA
ATOM      4  N   UNL     1      35.557 -24.435 -11.232  0.00  0.00    -0.320 N 
ATOM      5  C   UNL     1      35.264 -23.048 -14.418  0.00  0.00    +0.130 C 
ATOM      6  C   UNL     1      36.634 -23.000 -14.191  0.00  0.00    +0.105 C 
ATOM      7  C   UNL     1      35.590 -22.069 -16.534  0.00  0.00    +0.022 C 
ATOM      8  C   UNL     1      34.696 -22.584 -15.599  0.00  0.00    +0.028 C 
ATOM      9  C   UNL     1      35.798 -23.871 -12.439  0.00  0.00    +0.250 C 
ATOM     10  C   UNL     1      33.350 -23.873 -13.029  0.00  0.00    +0.122 C 
ATOM     11  C   UNL     1      36.949 -22.054 -16.236  0.00  0.00    +0.111 C 
ATOM     12  H   UNL     1      34.635 -24.654 -10.966  0.00  0.00    +0.146 HD
ATOM     13  H   UNL     1      36.305 -24.626 -10.620  0.00  0.00    +0.146 HD
ENDROOT
BRANCH   7  14
ATOM     14  C   UNL     1      35.110 -21.559 -17.799  0.00  0.00    +0.002 C 
ATOM     15  C   UNL     1      33.773 -21.730 -18.160  0.00  0.00    +0.000 C 
ATOM     16  C   UNL     1      35.985 -20.895 -18.661  0.00  0.00    +0.000 C 
ATOM     17  C   UNL     1      33.311 -21.238 -19.380  0.00  0.00    +0.000 C 
ATOM     18  C   UNL     1      35.523 -20.403 -19.881  0.00  0.00    +0.000 C 
ATOM     19  C   UNL     1      34.185 -20.574 -20.241  0.00  0.00    +0.000 C 
ENDBRANCH   7  14
TORSDOF 1
ENDMDL
MODEL 8
REMARK VINA RESULT:      -9.3      2.471      6.637
REMARK  Name = 1530
REMARK  1 active torsions:
REMARK  status: ('A' for Active; 'I' for Inactive)
REMARK    1  A    between atoms: C_7  and  C_14
REMARK                            x       y       z     vdW  Elec       q    Type
REMARK                         _______ _______ _______ _____ _____    ______ ____
ROOT
ATOM      1  N   UNL     1      34.241 -16.070 -22.346  0.00  0.00    -0.240 N 
ATOM      2  N   UNL     1      34.093 -16.291 -24.558  0.00  0.00    -0.319 NA
ATOM      3  N   UNL     1      33.063 -14.137 -25.000  0.00  0.00    -0.181 NA
ATOM      4  N   UNL     1      35.051 -18.078 -23.266  0.00  0.00    -0.320 N 
ATOM      5  C   UNL     1      33.665 -14.913 -22.793  0.00  0.00    +0.130 C 
ATOM      6  C   UNL     1      33.584 -15.077 -24.171  0.00  0.00    +0.105 C 
ATOM      7  C   UNL     1      32.675 -12.787 -22.999  0.00  0.00    +0.022 C 
ATOM      8  C   UNL     1      33.211 -13.760 -22.161  0.00  0.00    +0.028 C 
ATOM      9  C   UNL     1      34.479 -16.862 -23.437  0.00  0.00    +0.250 C 
ATOM     10  C   UNL     1      34.540 -16.384 -20.966  0.00  0.00    +0.122 C 
ATOM     11  C   UNL     1      32.628 -13.022 -24.369  0.00  0.00    +0.111 C 
ATOM     12  H   UNL     1      35.293 -18.385 -22.362  0.00  0.00    +0.146 HD
ATOM     13  H   UNL     1      35.226 -18.654 -24.044  0.00  0.00    +0.146 HD
ENDROOT
BRANCH   7  14
ATOM     14  C   UNL     1      32.172 -11.547 -22.449  0.00  0.00    +0.002 C 
ATOM     15  C   UNL     1      32.365 -10.349 -23.137  0.00  0.00    +0.000 C 
ATOM     16  C   UNL     1      31.494 -11.549 -21.230  0.00  0.00    +0.000 C 
ATOM     17  C   UNL     1      31.879  -9.154 -22.606  0.00  0.00    +0.000 C 
ATOM     18  C   UNL     1      31.008 -10.354 -20.699  0.00  0.00    +0.000 C 
ATOM     19  C   UNL     1      31.201  -9.156 -21.388  0.00  0.00    +0.000 C 
ENDBRANCH   7  14
TORSDOF 1
ENDMDL
MODEL 9
REMARK VINA RESULT:      -9.2      6.771      9.785
REMARK  Name = 1530
REMARK  1 active torsions:
REMARK  status: ('A' for Active; 'I' for Inactive)
REMARK    1  A    between atoms: C_7  and  C_14
REMARK                            x       y       z     vdW  Elec       q    Type
REMARK                         _______ _______ _______ _____ _____    ______ ____
ROOT
ATOM      1  N   UNL     1      35.734 -23.308 -14.930  0.00  0.00    -0.240 N 
ATOM      2  N   UNL     1      33.697 -24.136 -14.578  0.00  0.00    -0.319 NA
ATOM      3  N   UNL     1      32.634 -23.141 -16.522  0.00  0.00    -0.181 NA
ATOM      4  N   UNL     1      35.457 -24.664 -13.028  0.00  0.00    -0.320 N 
ATOM      5  C   UNL     1      34.965 -22.841 -15.960  0.00  0.00    +0.130 C 
ATOM      6  C   UNL     1      33.703 -23.371 -15.717  0.00  0.00    +0.105 C 
ATOM      7  C   UNL     1      34.137 -21.785 -17.895  0.00  0.00    +0.022 C 
ATOM      8  C   UNL     1      35.223 -22.029 -17.059  0.00  0.00    +0.028 C 
ATOM      9  C   UNL     1      34.932 -24.078 -14.130  0.00  0.00    +0.250 C 
ATOM     10  C   UNL     1      37.141 -23.031 -14.736  0.00  0.00    +0.122 C 
ATOM     11  C   UNL     1      32.904 -22.350 -17.586  0.00  0.00    +0.111 C 
ATOM     12  H   UNL     1      36.408 -24.536 -12.808  0.00  0.00    +0.146 HD
ATOM     13  H   UNL     1      34.888 -25.219 -12.448  0.00  0.00    +0.146 HD
ENDROOT
BRANCH   7  14
ATOM     14  C   UNL     1      34.290 -20.953 -19.067  0.00  0.00    +0.002 C 
ATOM     15  C   UNL     1      33.164 -20.510 -19.761  0.00  0.00    +0.000 C 
ATOM     16  C   UNL     1      35.565 -20.593 -19.505  0.00  0.00    +0.000 C 
ATOM     17  C   UNL     1      33.313 -19.707 -20.892  0.00  0.00    +0.000 C 
ATOM     18  C   UNL     1      35.714 -19.790 -20.636  0.00  0.00    +0.000 C 
ATOM     19  C   UNL     1      34.587 -19.347 -21.330  0.00  0.00    +0.000 C 
ENDBRANCH   7  14
TORSDOF 1
ENDMDL
