MODEL 1
REMARK VINA RESULT:     -10.1      0.000      0.000
REMARK  Name = 11188898
REMARK  6 active torsions:
REMARK  status: ('A' for Active; 'I' for Inactive)
REMARK    1  A    between atoms: C_4  and  C_28
REMARK    2  A    between atoms: C_17  and  O_19
REMARK    3  A    between atoms: C_18  and  O_21
REMARK    4  A    between atoms: O_21  and  S_22
REMARK    5  A    between atoms: S_22  and  N_25
REMARK    6  A    between atoms: C_28  and  C_30
REMARK                            x       y       z     vdW  Elec       q    Type
REMARK                         _______ _______ _______ _____ _____    ______ ____
ROOT
ATOM      1  C   UNL     1      34.353 -18.697 -21.268  0.00  0.00    +0.001 C 
ATOM      2  C   UNL     1      35.443 -19.675 -20.777  0.00  0.00    +0.000 C 
ATOM      3  C   UNL     1      35.116 -20.273 -19.409  0.00  0.00    +0.004 C 
ATOM      4  C   UNL     1      35.006 -18.249 -22.598  0.00  0.00    +0.015 C 
ATOM      5  C   UNL     1      33.787 -21.080 -19.521  0.00  0.00    +0.022 C 
ATOM      6  C   UNL     1      33.048 -19.489 -21.423  0.00  0.00    +0.000 C 
ATOM      7  C   UNL     1      36.738 -18.888 -20.956  0.00  0.00    +0.000 C 
ATOM      8  C   UNL     1      36.495 -18.048 -22.224  0.00  0.00    +0.001 C 
ATOM      9  C   UNL     1      32.651 -20.208 -20.119  0.00  0.00    +0.004 C 
ATOM     10  C   UNL     1      36.218 -21.202 -18.894  0.00  0.00    +0.005 C 
ATOM     11  C   UNL     1      34.113 -17.487 -20.329  0.00  0.00    +0.000 C 
ATOM     12  C   UNL     1      33.448 -21.772 -18.204  0.00  0.00    -0.023 C 
ATOM     13  C   UNL     1      35.897 -21.649 -17.471  0.00  0.00    +0.026 C 
ATOM     14  C   UNL     1      34.462 -22.071 -17.268  0.00  0.00    -0.023 C 
ATOM     15  C   UNL     1      32.140 -22.208 -17.927  0.00  0.00    +0.036 C 
ATOM     16  C   UNL     1      34.140 -22.740 -16.075  0.00  0.00    +0.038 C 
ATOM     17  C   UNL     1      31.835 -22.881 -16.742  0.00  0.00    +0.175 C 
ATOM     18  C   UNL     1      32.833 -23.143 -15.814  0.00  0.00    +0.206 C 
ENDROOT
BRANCH  17  19
ATOM     19  O   UNL     1      30.552 -23.279 -16.510  0.00  0.00    -0.468 OA
ATOM     20  C   UNL     1      29.594 -22.257 -16.242  0.00  0.00    +0.253 C 
ENDBRANCH  17  19
BRANCH  18  21
ATOM     21  O   UNL     1      32.550 -23.794 -14.652  0.00  0.00    -0.346 OA
BRANCH  21  22
ATOM     22  S   UNL     1      31.889 -23.062 -13.342  0.00  0.00    +0.086 S 
ATOM     23  O   UNL     1      30.908 -23.962 -12.762  0.00  0.00    -0.046 OA
ATOM     24  O   UNL     1      31.523 -21.705 -13.712  0.00  0.00    -0.046 OA
BRANCH  22  25
ATOM     25  N   UNL     1      33.203 -22.957 -12.244  0.00  0.00    -0.194 NA
ATOM     26  H   UNL     1      33.027 -22.208 -11.574  0.00  0.00    +0.145 HD
ATOM     27  H   UNL     1      34.061 -22.760 -12.759  0.00  0.00    +0.145 HD
ENDBRANCH  22  25
ENDBRANCH  21  22
ENDBRANCH  18  21
BRANCH   4  28
ATOM     28  C   UNL     1      34.399 -17.032 -23.281  0.00  0.00    +0.105 C 
BRANCH  28  30
ATOM     29  N   UNL     1      32.578 -17.737 -25.038  0.00  0.00    -0.196 NA
ATOM     30  C   UNL     1      33.383 -17.428 -24.263  0.00  0.00    +0.073 C 
ENDBRANCH  28  30
ENDBRANCH   4  28
TORSDOF 6
ENDMDL
MODEL 2
REMARK VINA RESULT:     -10.0      3.112      4.781
REMARK  Name = 11188898
REMARK  6 active torsions:
REMARK  status: ('A' for Active; 'I' for Inactive)
REMARK    1  A    between atoms: C_4  and  C_28
REMARK    2  A    between atoms: C_17  and  O_19
REMARK    3  A    between atoms: C_18  and  O_21
REMARK    4  A    between atoms: O_21  and  S_22
REMARK    5  A    between atoms: S_22  and  N_25
REMARK    6  A    between atoms: C_28  and  C_30
REMARK                            x       y       z     vdW  Elec       q    Type
REMARK                         _______ _______ _______ _____ _____    ______ ____
ROOT
ATOM      1  C   UNL     1      34.675 -20.603 -19.849  0.00  0.00    +0.001 C 
ATOM      2  C   UNL     1      33.595 -20.882 -18.781  0.00  0.00    +0.000 C 
ATOM      3  C   UNL     1      33.994 -22.011 -17.829  0.00  0.00    +0.004 C 
ATOM      4  C   UNL     1      33.950 -19.493 -20.647  0.00  0.00    +0.015 C 
ATOM      5  C   UNL     1      35.293 -21.593 -17.075  0.00  0.00    +0.022 C 
ATOM      6  C   UNL     1      35.948 -20.150 -19.121  0.00  0.00    +0.000 C 
ATOM      7  C   UNL     1      32.311 -21.013 -19.595  0.00  0.00    +0.000 C 
ATOM      8  C   UNL     1      32.494 -20.007 -20.747  0.00  0.00    +0.001 C 
ATOM      9  C   UNL     1      36.409 -21.178 -18.071  0.00  0.00    +0.004 C 
ATOM     10  C   UNL     1      32.905 -22.327 -16.802  0.00  0.00    +0.005 C 
ATOM     11  C   UNL     1      35.005 -21.816 -20.754  0.00  0.00    +0.000 C 
ATOM     12  C   UNL     1      35.698 -22.646 -16.048  0.00  0.00    -0.023 C 
ATOM     13  C   UNL     1      33.304 -23.549 -15.981  0.00  0.00    +0.026 C 
ATOM     14  C   UNL     1      34.738 -23.532 -15.511  0.00  0.00    -0.023 C 
ATOM     15  C   UNL     1      37.010 -22.704 -15.544  0.00  0.00    +0.036 C 
ATOM     16  C   UNL     1      35.120 -24.473 -14.539  0.00  0.00    +0.038 C 
ATOM     17  C   UNL     1      37.373 -23.638 -14.572  0.00  0.00    +0.175 C 
ATOM     18  C   UNL     1      36.430 -24.526 -14.072  0.00  0.00    +0.206 C 
ENDROOT
BRANCH  17  19
ATOM     19  O   UNL     1      38.658 -23.665 -14.117  0.00  0.00    -0.468 OA
ATOM     20  C   UNL     1      39.565 -24.537 -14.788  0.00  0.00    +0.253 C 
ENDBRANCH  17  19
BRANCH  18  21
ATOM     21  O   UNL     1      36.770 -25.445 -13.127  0.00  0.00    -0.346 OA
BRANCH  21  22
ATOM     22  S   UNL     1      36.627 -25.181 -11.515  0.00  0.00    +0.086 S 
ATOM     23  O   UNL     1      37.465 -24.049 -11.162  0.00  0.00    -0.046 OA
ATOM     24  O   UNL     1      36.771 -26.453 -10.829  0.00  0.00    -0.046 OA
BRANCH  22  25
ATOM     25  N   UNL     1      34.994 -24.685 -11.341  0.00  0.00    -0.194 NA
ATOM     26  H   UNL     1      34.913 -24.060 -10.539  0.00  0.00    +0.145 HD
ATOM     27  H   UNL     1      34.404 -25.504 -11.197  0.00  0.00    +0.145 HD
ENDBRANCH  22  25
ENDBRANCH  21  22
ENDBRANCH  18  21
BRANCH   4  28
ATOM     28  C   UNL     1      34.542 -19.126 -22.000  0.00  0.00    +0.105 C 
BRANCH  28  30
ATOM     29  N   UNL     1      34.673 -16.521 -22.305  0.00  0.00    -0.196 NA
ATOM     30  C   UNL     1      34.617 -17.671 -22.169  0.00  0.00    +0.073 C 
ENDBRANCH  28  30
ENDBRANCH   4  28
TORSDOF 6
ENDMDL
MODEL 3
REMARK VINA RESULT:      -9.5      4.479      8.137
REMARK  Name = 11188898
REMARK  6 active torsions:
REMARK  status: ('A' for Active; 'I' for Inactive)
REMARK    1  A    between atoms: C_4  and  C_28
REMARK    2  A    between atoms: C_17  and  O_19
REMARK    3  A    between atoms: C_18  and  O_21
REMARK    4  A    between atoms: O_21  and  S_22
REMARK    5  A    between atoms: S_22  and  N_25
REMARK    6  A    between atoms: C_28  and  C_30
REMARK                            x       y       z     vdW  Elec       q    Type
REMARK                         _______ _______ _______ _____ _____    ______ ____
ROOT
ATOM      1  C   UNL     1      36.479 -23.809 -13.511  0.00  0.00    +0.001 C 
ATOM      2  C   UNL     1      35.225 -24.538 -12.981  0.00  0.00    +0.000 C 
ATOM      3  C   UNL     1      33.930 -23.818 -13.358  0.00  0.00    +0.004 C 
ATOM      4  C   UNL     1      37.569 -24.737 -12.923  0.00  0.00    +0.015 C 
ATOM      5  C   UNL     1      33.817 -23.772 -14.912  0.00  0.00    +0.022 C 
ATOM      6  C   UNL     1      36.401 -23.793 -15.044  0.00  0.00    +0.000 C 
ATOM      7  C   UNL     1      35.544 -24.777 -11.509  0.00  0.00    +0.000 C 
ATOM      8  C   UNL     1      37.063 -25.034 -11.491  0.00  0.00    +0.001 C 
ATOM      9  C   UNL     1      35.092 -23.156 -15.548  0.00  0.00    +0.004 C 
ATOM     10  C   UNL     1      32.687 -24.507 -12.790  0.00  0.00    +0.005 C 
ATOM     11  C   UNL     1      36.641 -22.359 -12.990  0.00  0.00    +0.000 C 
ATOM     12  C   UNL     1      32.502 -23.135 -15.351  0.00  0.00    -0.023 C 
ATOM     13  C   UNL     1      31.449 -23.665 -13.079  0.00  0.00    +0.026 C 
ATOM     14  C   UNL     1      31.383 -23.132 -14.490  0.00  0.00    -0.023 C 
ATOM     15  C   UNL     1      32.341 -22.618 -16.649  0.00  0.00    +0.036 C 
ATOM     16  C   UNL     1      30.167 -22.574 -14.922  0.00  0.00    +0.038 C 
ATOM     17  C   UNL     1      31.125 -22.075 -17.069  0.00  0.00    +0.175 C 
ATOM     18  C   UNL     1      30.039 -22.048 -16.204  0.00  0.00    +0.206 C 
ENDROOT
BRANCH  17  19
ATOM     19  O   UNL     1      31.015 -21.578 -18.333  0.00  0.00    -0.468 OA
ATOM     20  C   UNL     1      32.216 -21.131 -18.960  0.00  0.00    +0.253 C 
ENDBRANCH  17  19
BRANCH  18  21
ATOM     21  O   UNL     1      28.849 -21.518 -16.598  0.00  0.00    -0.346 OA
BRANCH  21  22
ATOM     22  S   UNL     1      27.415 -22.300 -16.448  0.00  0.00    +0.086 S 
ATOM     23  O   UNL     1      27.075 -22.363 -15.038  0.00  0.00    -0.046 OA
ATOM     24  O   UNL     1      27.466 -23.507 -17.254  0.00  0.00    -0.046 OA
BRANCH  22  25
ATOM     25  N   UNL     1      26.303 -21.230 -17.197  0.00  0.00    -0.194 NA
ATOM     26  H   UNL     1      25.374 -21.651 -17.198  0.00  0.00    +0.145 HD
ATOM     27  H   UNL     1      26.597 -21.052 -18.157  0.00  0.00    +0.145 HD
ENDBRANCH  22  25
ENDBRANCH  21  22
ENDBRANCH  18  21
BRANCH   4  28
ATOM     28  C   UNL     1      38.999 -24.214 -12.948  0.00  0.00    +0.105 C 
BRANCH  28  30
ATOM     29  N   UNL     1      40.437 -25.472 -14.750  0.00  0.00    -0.196 NA
ATOM     30  C   UNL     1      39.801 -24.916 -13.956  0.00  0.00    +0.073 C 
ENDBRANCH  28  30
ENDBRANCH   4  28
TORSDOF 6
ENDMDL
MODEL 4
REMARK VINA RESULT:      -9.2      5.484      7.962
REMARK  Name = 11188898
REMARK  6 active torsions:
REMARK  status: ('A' for Active; 'I' for Inactive)
REMARK    1  A    between atoms: C_4  and  C_28
REMARK    2  A    between atoms: C_17  and  O_19
REMARK    3  A    between atoms: C_18  and  O_21
REMARK    4  A    between atoms: O_21  and  S_22
REMARK    5  A    between atoms: S_22  and  N_25
REMARK    6  A    between atoms: C_28  and  C_30
REMARK                            x       y       z     vdW  Elec       q    Type
REMARK                         _______ _______ _______ _____ _____    ______ ____
ROOT
ATOM      1  C   UNL     1      30.045 -23.443 -15.594  0.00  0.00    +0.001 C 
ATOM      2  C   UNL     1      30.521 -23.435 -14.124  0.00  0.00    +0.000 C 
ATOM      3  C   UNL     1      32.007 -23.773 -13.991  0.00  0.00    +0.004 C 
ATOM      4  C   UNL     1      28.546 -23.134 -15.368  0.00  0.00    +0.015 C 
ATOM      5  C   UNL     1      32.834 -22.692 -14.752  0.00  0.00    +0.022 C 
ATOM      6  C   UNL     1      30.824 -22.355 -16.345  0.00  0.00    +0.000 C 
ATOM      7  C   UNL     1      29.493 -24.305 -13.409  0.00  0.00    +0.000 C 
ATOM      8  C   UNL     1      28.173 -24.008 -14.146  0.00  0.00    +0.001 C 
ATOM      9  C   UNL     1      32.348 -22.544 -16.218  0.00  0.00    +0.004 C 
ATOM     10  C   UNL     1      32.471 -23.817 -12.534  0.00  0.00    +0.005 C 
ATOM     11  C   UNL     1      30.232 -24.801 -16.317  0.00  0.00    +0.000 C 
ATOM     12  C   UNL     1      34.333 -22.928 -14.587  0.00  0.00    -0.023 C 
ATOM     13  C   UNL     1      33.918 -24.297 -12.464  0.00  0.00    +0.026 C 
ATOM     14  C   UNL     1      34.829 -23.650 -13.479  0.00  0.00    -0.023 C 
ATOM     15  C   UNL     1      35.261 -22.360 -15.479  0.00  0.00    +0.036 C 
ATOM     16  C   UNL     1      36.214 -23.829 -13.322  0.00  0.00    +0.038 C 
ATOM     17  C   UNL     1      36.636 -22.538 -15.305  0.00  0.00    +0.175 C 
ATOM     18  C   UNL     1      37.112 -23.275 -14.230  0.00  0.00    +0.206 C 
ENDROOT
BRANCH  17  19
ATOM     19  O   UNL     1      37.500 -21.977 -16.197  0.00  0.00    -0.468 OA
ATOM     20  C   UNL     1      37.155 -20.692 -16.713  0.00  0.00    +0.253 C 
ENDBRANCH  17  19
BRANCH  18  21
ATOM     21  O   UNL     1      38.449 -23.461 -14.051  0.00  0.00    -0.346 OA
BRANCH  21  22
ATOM     22  S   UNL     1      39.164 -24.936 -14.034  0.00  0.00    +0.086 S 
ATOM     23  O   UNL     1      38.825 -25.594 -12.785  0.00  0.00    -0.046 OA
ATOM     24  O   UNL     1      40.551 -24.777 -14.436  0.00  0.00    -0.046 OA
BRANCH  22  25
ATOM     25  N   UNL     1      38.359 -25.778 -15.294  0.00  0.00    -0.194 NA
ATOM     26  H   UNL     1      37.704 -25.148 -15.758  0.00  0.00    +0.145 HD
ATOM     27  H   UNL     1      37.851 -26.570 -14.902  0.00  0.00    +0.145 HD
ENDBRANCH  22  25
ENDBRANCH  21  22
ENDBRANCH  18  21
BRANCH   4  28
ATOM     28  C   UNL     1      27.617 -23.349 -16.554  0.00  0.00    +0.105 C 
BRANCH  28  30
ATOM     29  N   UNL     1      26.302 -21.153 -17.140  0.00  0.00    -0.196 NA
ATOM     30  C   UNL     1      26.885 -22.121 -16.883  0.00  0.00    +0.073 C 
ENDBRANCH  28  30
ENDBRANCH   4  28
TORSDOF 6
ENDMDL
MODEL 5
REMARK VINA RESULT:      -8.8      5.774      7.897
REMARK  Name = 11188898
REMARK  6 active torsions:
REMARK  status: ('A' for Active; 'I' for Inactive)
REMARK    1  A    between atoms: C_4  and  C_28
REMARK    2  A    between atoms: C_17  and  O_19
REMARK    3  A    between atoms: C_18  and  O_21
REMARK    4  A    between atoms: O_21  and  S_22
REMARK    5  A    between atoms: S_22  and  N_25
REMARK    6  A    between atoms: C_28  and  C_30
REMARK                            x       y       z     vdW  Elec       q    Type
REMARK                         _______ _______ _______ _____ _____    ______ ____
ROOT
ATOM      1  C   UNL     1      30.226 -23.049 -14.868  0.00  0.00    +0.001 C 
ATOM      2  C   UNL     1      31.197 -23.044 -16.069  0.00  0.00    +0.000 C 
ATOM      3  C   UNL     1      32.651 -22.845 -15.641  0.00  0.00    +0.004 C 
ATOM      4  C   UNL     1      28.890 -23.205 -15.633  0.00  0.00    +0.015 C 
ATOM      5  C   UNL     1      33.067 -24.029 -14.716  0.00  0.00    +0.022 C 
ATOM      6  C   UNL     1      30.598 -24.237 -13.969  0.00  0.00    +0.000 C 
ATOM      7  C   UNL     1      30.563 -22.051 -17.038  0.00  0.00    +0.000 C 
ATOM      8  C   UNL     1      29.048 -22.250 -16.841  0.00  0.00    +0.001 C 
ATOM      9  C   UNL     1      32.075 -24.190 -13.533  0.00  0.00    +0.004 C 
ATOM     10  C   UNL     1      33.612 -22.785 -16.831  0.00  0.00    +0.005 C 
ATOM     11  C   UNL     1      30.241 -21.746 -14.029  0.00  0.00    +0.000 C 
ATOM     12  C   UNL     1      34.537 -23.931 -14.320  0.00  0.00    -0.023 C 
ATOM     13  C   UNL     1      35.017 -22.444 -16.347  0.00  0.00    +0.026 C 
ATOM     14  C   UNL     1      35.451 -23.215 -15.124  0.00  0.00    -0.023 C 
ATOM     15  C   UNL     1      35.037 -24.621 -13.201  0.00  0.00    +0.036 C 
ATOM     16  C   UNL     1      36.809 -23.163 -14.766  0.00  0.00    +0.038 C 
ATOM     17  C   UNL     1      36.391 -24.569 -12.861  0.00  0.00    +0.175 C 
ATOM     18  C   UNL     1      37.276 -23.837 -13.640  0.00  0.00    +0.206 C 
ENDROOT
BRANCH  17  19
ATOM     19  O   UNL     1      36.831 -25.246 -11.763  0.00  0.00    -0.468 OA
ATOM     20  C   UNL     1      36.471 -24.717 -10.488  0.00  0.00    +0.253 C 
ENDBRANCH  17  19
BRANCH  18  21
ATOM     21  O   UNL     1      38.598 -23.773 -13.319  0.00  0.00    -0.346 OA
BRANCH  21  22
ATOM     22  S   UNL     1      39.734 -24.766 -13.961  0.00  0.00    +0.086 S 
ATOM     23  O   UNL     1      39.825 -25.953 -13.130  0.00  0.00    -0.046 OA
ATOM     24  O   UNL     1      40.916 -23.976 -14.260  0.00  0.00    -0.046 OA
BRANCH  22  25
ATOM     25  N   UNL     1      39.042 -25.239 -15.458  0.00  0.00    -0.194 NA
ATOM     26  H   UNL     1      38.367 -25.988 -15.299  0.00  0.00    +0.145 HD
ATOM     27  H   UNL     1      39.777 -25.570 -16.083  0.00  0.00    +0.145 HD
ENDBRANCH  22  25
ENDBRANCH  21  22
ENDBRANCH  18  21
BRANCH   4  28
ATOM     28  C   UNL     1      27.615 -22.950 -14.842  0.00  0.00    +0.105 C 
BRANCH  28  30
ATOM     29  N   UNL     1      25.937 -21.451 -16.196  0.00  0.00    -0.196 NA
ATOM     30  C   UNL     1      26.679 -22.112 -15.599  0.00  0.00    +0.073 C 
ENDBRANCH  28  30
ENDBRANCH   4  28
TORSDOF 6
ENDMDL
MODEL 6
REMARK VINA RESULT:      -8.8      5.285      7.772
REMARK  Name = 11188898
REMARK  6 active torsions:
REMARK  status: ('A' for Active; 'I' for Inactive)
REMARK    1  A    between atoms: C_4  and  C_28
REMARK    2  A    between atoms: C_17  and  O_19
REMARK    3  A    between atoms: C_18  and  O_21
REMARK    4  A    between atoms: O_21  and  S_22
REMARK    5  A    between atoms: S_22  and  N_25
REMARK    6  A    between atoms: C_28  and  C_30
REMARK                            x       y       z     vdW  Elec       q    Type
REMARK                         _______ _______ _______ _____ _____    ______ ____
ROOT
ATOM      1  C   UNL     1      36.472 -24.294 -13.836  0.00  0.00    +0.001 C 
ATOM      2  C   UNL     1      36.055 -23.169 -14.807  0.00  0.00    +0.000 C 
ATOM      3  C   UNL     1      34.654 -23.384 -15.382  0.00  0.00    +0.004 C 
ATOM      4  C   UNL     1      37.904 -23.812 -13.501  0.00  0.00    +0.015 C 
ATOM      5  C   UNL     1      33.628 -23.386 -14.209  0.00  0.00    +0.022 C 
ATOM      6  C   UNL     1      35.492 -24.281 -12.654  0.00  0.00    +0.000 C 
ATOM      7  C   UNL     1      37.242 -23.058 -15.759  0.00  0.00    +0.000 C 
ATOM      8  C   UNL     1      38.464 -23.356 -14.870  0.00  0.00    +0.001 C 
ATOM      9  C   UNL     1      34.029 -24.413 -13.116  0.00  0.00    +0.004 C 
ATOM     10  C   UNL     1      34.257 -22.299 -16.386  0.00  0.00    +0.005 C 
ATOM     11  C   UNL     1      36.493 -25.708 -14.470  0.00  0.00    +0.000 C 
ATOM     12  C   UNL     1      32.198 -23.516 -14.726  0.00  0.00    -0.023 C 
ATOM     13  C   UNL     1      32.917 -22.648 -17.025  0.00  0.00    +0.026 C 
ATOM     14  C   UNL     1      31.873 -23.122 -16.043  0.00  0.00    -0.023 C 
ATOM     15  C   UNL     1      31.155 -23.942 -13.884  0.00  0.00    +0.036 C 
ATOM     16  C   UNL     1      30.545 -23.214 -16.495  0.00  0.00    +0.038 C 
ATOM     17  C   UNL     1      29.838 -24.019 -14.343  0.00  0.00    +0.175 C 
ATOM     18  C   UNL     1      29.533 -23.660 -15.649  0.00  0.00    +0.206 C 
ENDROOT
BRANCH  17  19
ATOM     19  O   UNL     1      28.859 -24.445 -13.496  0.00  0.00    -0.468 OA
ATOM     20  C   UNL     1      28.211 -25.673 -13.820  0.00  0.00    +0.253 C 
ENDBRANCH  17  19
BRANCH  18  21
ATOM     21  O   UNL     1      28.255 -23.734 -16.111  0.00  0.00    -0.346 OA
BRANCH  21  22
ATOM     22  S   UNL     1      27.404 -22.434 -16.635  0.00  0.00    +0.086 S 
ATOM     23  O   UNL     1      26.689 -22.811 -17.840  0.00  0.00    -0.046 OA
ATOM     24  O   UNL     1      28.284 -21.278 -16.625  0.00  0.00    -0.046 OA
BRANCH  22  25
ATOM     25  N   UNL     1      26.239 -22.202 -15.397  0.00  0.00    -0.194 NA
ATOM     26  H   UNL     1      26.524 -21.424 -14.803  0.00  0.00    +0.145 HD
ATOM     27  H   UNL     1      26.166 -23.050 -14.836  0.00  0.00    +0.145 HD
ENDBRANCH  22  25
ENDBRANCH  21  22
ENDBRANCH  18  21
BRANCH   4  28
ATOM     28  C   UNL     1      38.812 -24.807 -12.792  0.00  0.00    +0.105 C 
BRANCH  28  30
ATOM     29  N   UNL     1      40.375 -26.044 -14.502  0.00  0.00    -0.196 NA
ATOM     30  C   UNL     1      39.687 -25.498 -13.746  0.00  0.00    +0.073 C 
ENDBRANCH  28  30
ENDBRANCH   4  28
TORSDOF 6
ENDMDL
MODEL 7
REMARK VINA RESULT:      -8.1     11.058     13.934
REMARK  Name = 11188898
REMARK  6 active torsions:
REMARK  status: ('A' for Active; 'I' for Inactive)
REMARK    1  A    between atoms: C_4  and  C_28
REMARK    2  A    between atoms: C_17  and  O_19
REMARK    3  A    between atoms: C_18  and  O_21
REMARK    4  A    between atoms: O_21  and  S_22
REMARK    5  A    between atoms: S_22  and  N_25
REMARK    6  A    between atoms: C_28  and  C_30
REMARK                            x       y       z     vdW  Elec       q    Type
REMARK                         _______ _______ _______ _____ _____    ______ ____
ROOT
ATOM      1  C   UNL     1      31.683  -4.846 -23.815  0.00  0.00    +0.001 C 
ATOM      2  C   UNL     1      31.753  -5.200 -22.313  0.00  0.00    +0.000 C 
ATOM      3  C   UNL     1      31.480  -6.681 -22.049  0.00  0.00    +0.004 C 
ATOM      4  C   UNL     1      31.938  -3.323 -23.722  0.00  0.00    +0.015 C 
ATOM      5  C   UNL     1      32.569  -7.527 -22.775  0.00  0.00    +0.022 C 
ATOM      6  C   UNL     1      32.779  -5.643 -24.536  0.00  0.00    +0.000 C 
ATOM      7  C   UNL     1      30.864  -4.149 -21.656  0.00  0.00    +0.000 C 
ATOM      8  C   UNL     1      31.086  -2.884 -22.507  0.00  0.00    +0.001 C 
ATOM      9  C   UNL     1      32.655  -7.157 -24.280  0.00  0.00    +0.004 C 
ATOM     10  C   UNL     1      31.497  -7.025 -20.559  0.00  0.00    +0.005 C 
ATOM     11  C   UNL     1      30.313  -5.143 -24.476  0.00  0.00    +0.000 C 
ATOM     12  C   UNL     1      32.399  -9.015 -22.483  0.00  0.00    -0.023 C 
ATOM     13  C   UNL     1      31.078  -8.478 -20.357  0.00  0.00    +0.026 C 
ATOM     14  C   UNL     1      31.730  -9.444 -21.315  0.00  0.00    -0.023 C 
ATOM     15  C   UNL     1      32.977  -9.991 -23.314  0.00  0.00    +0.036 C 
ATOM     16  C   UNL     1      31.612 -10.818 -21.041  0.00  0.00    +0.038 C 
ATOM     17  C   UNL     1      32.860 -11.352 -23.024  0.00  0.00    +0.175 C 
ATOM     18  C   UNL     1      32.174 -11.766 -21.891  0.00  0.00    +0.206 C 
ENDROOT
BRANCH  17  19
ATOM     19  O   UNL     1      33.429 -12.265 -23.861  0.00  0.00    -0.468 OA
ATOM     20  C   UNL     1      32.660 -12.677 -24.990  0.00  0.00    +0.253 C 
ENDBRANCH  17  19
BRANCH  18  21
ATOM     21  O   UNL     1      32.048 -13.090 -21.598  0.00  0.00    -0.346 OA
BRANCH  21  22
ATOM     22  S   UNL     1      33.232 -13.978 -20.891  0.00  0.00    +0.086 S 
ATOM     23  O   UNL     1      32.619 -14.867 -19.922  0.00  0.00    -0.046 OA
ATOM     24  O   UNL     1      34.304 -13.080 -20.500  0.00  0.00    -0.046 OA
BRANCH  22  25
ATOM     25  N   UNL     1      33.818 -14.947 -22.179  0.00  0.00    -0.194 NA
ATOM     26  H   UNL     1      33.067 -15.113 -22.849  0.00  0.00    +0.145 HD
ATOM     27  H   UNL     1      34.149 -15.839 -21.810  0.00  0.00    +0.145 HD
ENDBRANCH  22  25
ENDBRANCH  21  22
ENDBRANCH  18  21
BRANCH   4  28
ATOM     28  C   UNL     1      31.652  -2.504 -24.972  0.00  0.00    +0.105 C 
BRANCH  28  30
ATOM     29  N   UNL     1      33.853  -2.045 -26.329  0.00  0.00    -0.196 NA
ATOM     30  C   UNL     1      32.881  -2.245 -25.729  0.00  0.00    +0.073 C 
ENDBRANCH  28  30
ENDBRANCH   4  28
TORSDOF 6
ENDMDL
MODEL 8
REMARK VINA RESULT:      -7.8      1.728      2.048
REMARK  Name = 11188898
REMARK  6 active torsions:
REMARK  status: ('A' for Active; 'I' for Inactive)
REMARK    1  A    between atoms: C_4  and  C_28
REMARK    2  A    between atoms: C_17  and  O_19
REMARK    3  A    between atoms: C_18  and  O_21
REMARK    4  A    between atoms: O_21  and  S_22
REMARK    5  A    between atoms: S_22  and  N_25
REMARK    6  A    between atoms: C_28  and  C_30
REMARK                            x       y       z     vdW  Elec       q    Type
REMARK                         _______ _______ _______ _____ _____    ______ ____
ROOT
ATOM      1  C   UNL     1      33.998 -19.535 -20.945  0.00  0.00    +0.001 C 
ATOM      2  C   UNL     1      35.249 -20.285 -20.436  0.00  0.00    +0.000 C 
ATOM      3  C   UNL     1      35.153 -20.638 -18.952  0.00  0.00    +0.004 C 
ATOM      4  C   UNL     1      34.438 -19.289 -22.408  0.00  0.00    +0.015 C 
ATOM      5  C   UNL     1      33.930 -21.581 -18.740  0.00  0.00    +0.022 C 
ATOM      6  C   UNL     1      32.791 -20.469 -20.781  0.00  0.00    +0.000 C 
ATOM      7  C   UNL     1      36.408 -19.422 -20.923  0.00  0.00    +0.000 C 
ATOM      8  C   UNL     1      35.922 -18.872 -22.278  0.00  0.00    +0.001 C 
ATOM      9  C   UNL     1      32.635 -20.959 -19.328  0.00  0.00    +0.004 C 
ATOM     10  C   UNL     1      36.412 -21.335 -18.430  0.00  0.00    +0.005 C 
ATOM     11  C   UNL     1      33.716 -18.198 -20.215  0.00  0.00    +0.000 C 
ATOM     12  C   UNL     1      33.828 -22.036 -17.287  0.00  0.00    -0.023 C 
ATOM     13  C   UNL     1      36.310 -21.529 -16.921  0.00  0.00    +0.026 C 
ATOM     14  C   UNL     1      34.970 -22.045 -16.456  0.00  0.00    -0.023 C 
ATOM     15  C   UNL     1      32.623 -22.540 -16.765  0.00  0.00    +0.036 C 
ATOM     16  C   UNL     1      34.868 -22.501 -15.130  0.00  0.00    +0.038 C 
ATOM     17  C   UNL     1      32.538 -22.999 -15.448  0.00  0.00    +0.175 C 
ATOM     18  C   UNL     1      33.659 -22.975 -14.630  0.00  0.00    +0.206 C 
ENDROOT
BRANCH  17  19
ATOM     19  O   UNL     1      31.349 -23.472 -14.981  0.00  0.00    -0.468 OA
ATOM     20  C   UNL     1      31.374 -24.717 -14.287  0.00  0.00    +0.253 C 
ENDBRANCH  17  19
BRANCH  18  21
ATOM     21  O   UNL     1      33.590 -23.414 -13.343  0.00  0.00    -0.346 OA
BRANCH  21  22
ATOM     22  S   UNL     1      34.894 -23.924 -12.489  0.00  0.00    +0.086 S 
ATOM     23  O   UNL     1      35.772 -24.652 -13.388  0.00  0.00    -0.046 OA
ATOM     24  O   UNL     1      34.426 -24.531 -11.256  0.00  0.00    -0.046 OA
BRANCH  22  25
ATOM     25  N   UNL     1      35.687 -22.461 -12.072  0.00  0.00    -0.194 NA
ATOM     26  H   UNL     1      35.642 -21.814 -12.859  0.00  0.00    +0.145 HD
ATOM     27  H   UNL     1      36.662 -22.655 -11.845  0.00  0.00    +0.145 HD
ENDBRANCH  22  25
ENDBRANCH  21  22
ENDBRANCH  18  21
BRANCH   4  28
ATOM     28  C   UNL     1      33.612 -18.294 -23.212  0.00  0.00    +0.105 C 
BRANCH  28  30
ATOM     29  N   UNL     1      34.745 -15.925 -23.234  0.00  0.00    -0.196 NA
ATOM     30  C   UNL     1      34.245 -16.971 -23.227  0.00  0.00    +0.073 C 
ENDBRANCH  28  30
ENDBRANCH   4  28
TORSDOF 6
ENDMDL
MODEL 9
REMARK VINA RESULT:      -7.7     11.261     14.350
REMARK  Name = 11188898
REMARK  6 active torsions:
REMARK  status: ('A' for Active; 'I' for Inactive)
REMARK    1  A    between atoms: C_4  and  C_28
REMARK    2  A    between atoms: C_17  and  O_19
REMARK    3  A    between atoms: C_18  and  O_21
REMARK    4  A    between atoms: O_21  and  S_22
REMARK    5  A    between atoms: S_22  and  N_25
REMARK    6  A    between atoms: C_28  and  C_30
REMARK                            x       y       z     vdW  Elec       q    Type
REMARK                         _______ _______ _______ _____ _____    ______ ____
ROOT
ATOM      1  C   UNL     1      33.269 -12.779 -21.799  0.00  0.00    +0.001 C 
ATOM      2  C   UNL     1      31.978 -12.211 -21.171  0.00  0.00    +0.000 C 
ATOM      3  C   UNL     1      32.000 -10.685 -21.073  0.00  0.00    +0.004 C 
ATOM      4  C   UNL     1      32.948 -14.289 -21.695  0.00  0.00    +0.015 C 
ATOM      5  C   UNL     1      32.113 -10.094 -22.511  0.00  0.00    +0.022 C 
ATOM      6  C   UNL     1      33.371 -12.238 -23.232  0.00  0.00    +0.000 C 
ATOM      7  C   UNL     1      31.804 -13.036 -19.900  0.00  0.00    +0.000 C 
ATOM      8  C   UNL     1      32.323 -14.434 -20.286  0.00  0.00    +0.001 C 
ATOM      9  C   UNL     1      33.325 -10.698 -23.271  0.00  0.00    +0.004 C 
ATOM     10  C   UNL     1      30.746 -10.120 -20.403  0.00  0.00    +0.005 C 
ATOM     11  C   UNL     1      34.563 -12.429 -21.023  0.00  0.00    +0.000 C 
ATOM     12  C   UNL     1      32.058  -8.569 -22.488  0.00  0.00    -0.023 C 
ATOM     13  C   UNL     1      30.894  -8.614 -20.209  0.00  0.00    +0.026 C 
ATOM     14  C   UNL     1      31.441  -7.890 -21.415  0.00  0.00    -0.023 C 
ATOM     15  C   UNL     1      32.536  -7.807 -23.569  0.00  0.00    +0.036 C 
ATOM     16  C   UNL     1      31.366  -6.486 -21.424  0.00  0.00    +0.038 C 
ATOM     17  C   UNL     1      32.447  -6.413 -23.570  0.00  0.00    +0.175 C 
ATOM     18  C   UNL     1      31.866  -5.752 -22.496  0.00  0.00    +0.206 C 
ENDROOT
BRANCH  17  19
ATOM     19  O   UNL     1      32.930  -5.713 -24.635  0.00  0.00    -0.468 OA
ATOM     20  C   UNL     1      32.188  -5.789 -25.851  0.00  0.00    +0.253 C 
ENDBRANCH  17  19
BRANCH  18  21
ATOM     21  O   UNL     1      31.777  -4.394 -22.481  0.00  0.00    -0.346 OA
BRANCH  21  22
ATOM     22  S   UNL     1      30.380  -3.576 -22.745  0.00  0.00    +0.086 S 
ATOM     23  O   UNL     1      29.356  -4.127 -21.875  0.00  0.00    -0.046 OA
ATOM     24  O   UNL     1      30.166  -3.487 -24.179  0.00  0.00    -0.046 OA
BRANCH  22  25
ATOM     25  N   UNL     1      30.737  -1.996 -22.180  0.00  0.00    -0.194 NA
ATOM     26  H   UNL     1      30.404  -1.895 -21.221  0.00  0.00    +0.145 HD
ATOM     27  H   UNL     1      30.274  -1.309 -22.775  0.00  0.00    +0.145 HD
ENDBRANCH  22  25
ENDBRANCH  21  22
ENDBRANCH  18  21
BRANCH   4  28
ATOM     28  C   UNL     1      34.104 -15.252 -21.930  0.00  0.00    +0.105 C 
BRANCH  28  30
ATOM     29  N   UNL     1      34.217 -15.998 -24.446  0.00  0.00    -0.196 NA
ATOM     30  C   UNL     1      34.169 -15.667 -23.336  0.00  0.00    +0.073 C 
ENDBRANCH  28  30
ENDBRANCH   4  28
TORSDOF 6
ENDMDL
