MODEL 1
REMARK VINA RESULT:     -11.7      0.000      0.000
REMARK  Name = 101616
REMARK  7 active torsions:
REMARK  status: ('A' for Active; 'I' for Inactive)
REMARK    1  A    between atoms: C_2  and  C_9
REMARK    2  A    between atoms: C_3  and  C_19
REMARK    3  A    between atoms: C_9  and  C_10
REMARK    4  A    between atoms: C_10  and  C_11
REMARK    5  A    between atoms: C_10  and  O_17
REMARK    6  A    between atoms: C_19  and  C_21
REMARK    7  A    between atoms: C_21  and  C_22
REMARK                            x       y       z     vdW  Elec       q    Type
REMARK                         _______ _______ _______ _____ _____    ______ ____
ROOT
ATOM      1  N   UNL     1      34.847 -17.592 -21.632  0.00  0.00    +0.388 N 
ATOM      2  C   UNL     1      34.298 -18.968 -21.635  0.00  0.00    -0.055 C 
ATOM      3  C   UNL     1      34.072 -16.739 -22.563  0.00  0.00    -0.050 C 
ATOM      4  C   UNL     1      34.291 -19.605 -23.036  0.00  0.00    -0.021 C 
ATOM      5  C   UNL     1      34.057 -17.287 -24.001  0.00  0.00    -0.020 C 
ATOM      6  C   UNL     1      33.553 -18.726 -24.041  0.00  0.00    -0.004 C 
ATOM      7  C   UNL     1      36.294 -17.534 -21.843  0.00  0.00    -0.100 C 
ATOM      8  H   UNL     1      34.731 -17.213 -20.692  0.00  0.00    -0.080 HD
ENDROOT
BRANCH   2   9
ATOM      9  C   UNL     1      34.976 -19.900 -20.623  0.00  0.00    +0.013 C 
BRANCH   9  10
ATOM     10  C   UNL     1      34.001 -20.889 -19.985  0.00  0.00    +0.131 C 
BRANCH  10  11
ATOM     11  C   UNL     1      34.449 -21.419 -18.643  0.00  0.00    +0.004 C 
ATOM     12  C   UNL     1      35.754 -21.202 -18.231  0.00  0.00    -0.002 C 
ATOM     13  C   UNL     1      33.547 -22.108 -17.850  0.00  0.00    -0.002 C 
ATOM     14  C   UNL     1      36.168 -21.690 -16.991  0.00  0.00    -0.000 C 
ATOM     15  C   UNL     1      33.961 -22.597 -16.611  0.00  0.00    -0.000 C 
ATOM     16  C   UNL     1      35.271 -22.387 -16.182  0.00  0.00    -0.000 C 
ENDBRANCH  10  11
BRANCH  10  17
ATOM     17  O   UNL     1      32.746 -20.232 -19.803  0.00  0.00    -0.380 OA
ATOM     18  H   UNL     1      32.809 -19.318 -20.121  0.00  0.00    +0.211 HD
ENDBRANCH  10  17
ENDBRANCH   9  10
ENDBRANCH   2   9
BRANCH   3  19
ATOM     19  C   UNL     1      34.508 -15.269 -22.551  0.00  0.00    +0.048 C 
BRANCH  19  21
ATOM     20  O   UNL     1      34.074 -14.897 -20.209  0.00  0.00    -0.291 OA
ATOM     21  C   UNL     1      33.926 -14.521 -21.370  0.00  0.00    +0.171 C 
BRANCH  21  22
ATOM     22  C   UNL     1      33.144 -13.280 -21.640  0.00  0.00    +0.035 C 
ATOM     23  C   UNL     1      33.413 -12.568 -22.788  0.00  0.00    +0.003 C 
ATOM     24  C   UNL     1      32.185 -12.893 -20.732  0.00  0.00    +0.003 C 
ATOM     25  C   UNL     1      32.682 -11.407 -23.041  0.00  0.00    +0.000 C 
ATOM     26  C   UNL     1      31.455 -11.733 -20.984  0.00  0.00    +0.000 C 
ATOM     27  C   UNL     1      31.703 -10.989 -22.139  0.00  0.00    +0.000 C 
ENDBRANCH  21  22
ENDBRANCH  19  21
ENDBRANCH   3  19
TORSDOF 7
ENDMDL
MODEL 2
REMARK VINA RESULT:     -10.7      2.268      4.084
REMARK  Name = 101616
REMARK  7 active torsions:
REMARK  status: ('A' for Active; 'I' for Inactive)
REMARK    1  A    between atoms: C_2  and  C_9
REMARK    2  A    between atoms: C_3  and  C_19
REMARK    3  A    between atoms: C_9  and  C_10
REMARK    4  A    between atoms: C_10  and  C_11
REMARK    5  A    between atoms: C_10  and  O_17
REMARK    6  A    between atoms: C_19  and  C_21
REMARK    7  A    between atoms: C_21  and  C_22
REMARK                            x       y       z     vdW  Elec       q    Type
REMARK                         _______ _______ _______ _____ _____    ______ ____
ROOT
ATOM      1  N   UNL     1      35.133 -20.350 -19.619  0.00  0.00    +0.388 N 
ATOM      2  C   UNL     1      34.876 -21.003 -18.314  0.00  0.00    -0.055 C 
ATOM      3  C   UNL     1      33.912 -19.645 -20.077  0.00  0.00    -0.050 C 
ATOM      4  C   UNL     1      33.696 -21.989 -18.362  0.00  0.00    -0.021 C 
ATOM      5  C   UNL     1      32.694 -20.578 -20.196  0.00  0.00    -0.020 C 
ATOM      6  C   UNL     1      32.431 -21.316 -18.887  0.00  0.00    -0.004 C 
ATOM      7  C   UNL     1      35.710 -21.246 -20.623  0.00  0.00    -0.100 C 
ATOM      8  H   UNL     1      35.862 -19.651 -19.480  0.00  0.00    -0.080 HD
ENDROOT
BRANCH   2   9
ATOM      9  C   UNL     1      36.116 -21.676 -17.712  0.00  0.00    +0.013 C 
BRANCH   9  10
ATOM     10  C   UNL     1      36.206 -21.500 -16.196  0.00  0.00    +0.131 C 
BRANCH  10  11
ATOM     11  C   UNL     1      36.403 -22.790 -15.436  0.00  0.00    +0.004 C 
ATOM     12  C   UNL     1      37.684 -23.172 -15.070  0.00  0.00    -0.002 C 
ATOM     13  C   UNL     1      35.300 -23.565 -15.117  0.00  0.00    -0.002 C 
ATOM     14  C   UNL     1      37.866 -24.363 -14.367  0.00  0.00    -0.000 C 
ATOM     15  C   UNL     1      35.482 -24.757 -14.415  0.00  0.00    -0.000 C 
ATOM     16  C   UNL     1      36.765 -25.154 -14.040  0.00  0.00    -0.000 C 
ENDBRANCH  10  11
BRANCH  10  17
ATOM     17  O   UNL     1      37.313 -20.643 -15.907  0.00  0.00    -0.380 OA
ATOM     18  H   UNL     1      37.485 -20.647 -14.952  0.00  0.00    +0.211 HD
ENDBRANCH  10  17
ENDBRANCH   9  10
ENDBRANCH   2   9
BRANCH   3  19
ATOM     19  C   UNL     1      34.114 -18.856 -21.376  0.00  0.00    +0.048 C 
BRANCH  19  21
ATOM     20  O   UNL     1      36.074 -17.710 -20.566  0.00  0.00    -0.291 OA
ATOM     21  C   UNL     1      35.003 -17.648 -21.166  0.00  0.00    +0.171 C 
BRANCH  21  22
ATOM     22  C   UNL     1      34.549 -16.337 -21.714  0.00  0.00    +0.035 C 
ATOM     23  C   UNL     1      34.537 -16.162 -23.079  0.00  0.00    +0.003 C 
ATOM     24  C   UNL     1      34.159 -15.353 -20.834  0.00  0.00    +0.003 C 
ATOM     25  C   UNL     1      34.113 -14.936 -23.592  0.00  0.00    +0.000 C 
ATOM     26  C   UNL     1      33.736 -14.128 -21.346  0.00  0.00    +0.000 C 
ATOM     27  C   UNL     1      33.712 -13.919 -22.726  0.00  0.00    +0.000 C 
ENDBRANCH  21  22
ENDBRANCH  19  21
ENDBRANCH   3  19
TORSDOF 7
ENDMDL
MODEL 3
REMARK VINA RESULT:     -10.4      3.759      9.877
REMARK  Name = 101616
REMARK  7 active torsions:
REMARK  status: ('A' for Active; 'I' for Inactive)
REMARK    1  A    between atoms: C_2  and  C_9
REMARK    2  A    between atoms: C_3  and  C_19
REMARK    3  A    between atoms: C_9  and  C_10
REMARK    4  A    between atoms: C_10  and  C_11
REMARK    5  A    between atoms: C_10  and  O_17
REMARK    6  A    between atoms: C_19  and  C_21
REMARK    7  A    between atoms: C_21  and  C_22
REMARK                            x       y       z     vdW  Elec       q    Type
REMARK                         _______ _______ _______ _____ _____    ______ ____
ROOT
ATOM      1  N   UNL     1      32.435 -12.349 -22.894  0.00  0.00    +0.388 N 
ATOM      2  C   UNL     1      31.438 -12.096 -21.827  0.00  0.00    -0.055 C 
ATOM      3  C   UNL     1      32.958 -13.730 -22.776  0.00  0.00    -0.050 C 
ATOM      4  C   UNL     1      32.008 -12.314 -20.414  0.00  0.00    -0.021 C 
ATOM      5  C   UNL     1      33.589 -14.013 -21.401  0.00  0.00    -0.020 C 
ATOM      6  C   UNL     1      32.613 -13.707 -20.269  0.00  0.00    -0.004 C 
ATOM      7  C   UNL     1      33.479 -11.326 -22.980  0.00  0.00    -0.100 C 
ATOM      8  H   UNL     1      31.956 -12.273 -23.791  0.00  0.00    -0.080 HD
ENDROOT
BRANCH   2   9
ATOM      9  C   UNL     1      30.767 -10.720 -21.930  0.00  0.00    +0.013 C 
BRANCH   9  10
ATOM     10  C   UNL     1      31.240  -9.750 -20.848  0.00  0.00    +0.131 C 
BRANCH  10  11
ATOM     11  C   UNL     1      31.590  -8.374 -21.363  0.00  0.00    +0.004 C 
ATOM     12  C   UNL     1      31.501  -8.116 -22.722  0.00  0.00    -0.002 C 
ATOM     13  C   UNL     1      31.991  -7.396 -20.468  0.00  0.00    -0.002 C 
ATOM     14  C   UNL     1      31.824  -6.845 -23.198  0.00  0.00    -0.000 C 
ATOM     15  C   UNL     1      32.316  -6.125 -20.944  0.00  0.00    -0.000 C 
ATOM     16  C   UNL     1      32.231  -5.851 -22.309  0.00  0.00    -0.000 C 
ENDBRANCH  10  11
BRANCH  10  17
ATOM     17  O   UNL     1      30.195  -9.607 -19.883  0.00  0.00    -0.380 OA
ATOM     18  H   UNL     1      30.509  -9.911 -19.017  0.00  0.00    +0.211 HD
ENDBRANCH  10  17
ENDBRANCH   9  10
ENDBRANCH   2   9
BRANCH   3  19
ATOM     19  C   UNL     1      33.926 -14.115 -23.901  0.00  0.00    +0.048 C 
BRANCH  19  21
ATOM     20  O   UNL     1      32.997 -15.649 -25.512  0.00  0.00    -0.291 OA
ATOM     21  C   UNL     1      33.615 -15.486 -24.462  0.00  0.00    +0.171 C 
BRANCH  21  22
ATOM     22  C   UNL     1      34.084 -16.681 -23.701  0.00  0.00    +0.035 C 
ATOM     23  C   UNL     1      33.593 -17.919 -24.048  0.00  0.00    +0.003 C 
ATOM     24  C   UNL     1      34.989 -16.499 -22.680  0.00  0.00    +0.003 C 
ATOM     25  C   UNL     1      34.031 -19.036 -23.337  0.00  0.00    +0.000 C 
ATOM     26  C   UNL     1      35.427 -17.615 -21.969  0.00  0.00    +0.000 C 
ATOM     27  C   UNL     1      34.948 -18.884 -22.297  0.00  0.00    +0.000 C 
ENDBRANCH  21  22
ENDBRANCH  19  21
ENDBRANCH   3  19
TORSDOF 7
ENDMDL
MODEL 4
REMARK VINA RESULT:     -10.2      4.277     10.383
REMARK  Name = 101616
REMARK  7 active torsions:
REMARK  status: ('A' for Active; 'I' for Inactive)
REMARK    1  A    between atoms: C_2  and  C_9
REMARK    2  A    between atoms: C_3  and  C_19
REMARK    3  A    between atoms: C_9  and  C_10
REMARK    4  A    between atoms: C_10  and  C_11
REMARK    5  A    between atoms: C_10  and  O_17
REMARK    6  A    between atoms: C_19  and  C_21
REMARK    7  A    between atoms: C_21  and  C_22
REMARK                            x       y       z     vdW  Elec       q    Type
REMARK                         _______ _______ _______ _____ _____    ______ ____
ROOT
ATOM      1  N   UNL     1      34.030 -23.224 -16.489  0.00  0.00    +0.388 N 
ATOM      2  C   UNL     1      32.984 -23.026 -17.520  0.00  0.00    -0.055 C 
ATOM      3  C   UNL     1      33.425 -23.791 -15.261  0.00  0.00    -0.050 C 
ATOM      4  C   UNL     1      31.838 -22.118 -17.041  0.00  0.00    -0.021 C 
ATOM      5  C   UNL     1      32.297 -22.912 -14.692  0.00  0.00    -0.020 C 
ATOM      6  C   UNL     1      31.226 -22.635 -15.743  0.00  0.00    -0.004 C 
ATOM      7  C   UNL     1      34.853 -22.037 -16.249  0.00  0.00    -0.100 C 
ATOM      8  H   UNL     1      34.698 -23.905 -16.850  0.00  0.00    -0.080 HD
ENDROOT
BRANCH   2   9
ATOM      9  C   UNL     1      33.535 -22.535 -18.864  0.00  0.00    +0.013 C 
BRANCH   9  10
ATOM     10  C   UNL     1      33.018 -21.147 -19.243  0.00  0.00    +0.131 C 
BRANCH  10  11
ATOM     11  C   UNL     1      34.044 -20.270 -19.921  0.00  0.00    +0.004 C 
ATOM     12  C   UNL     1      35.382 -20.416 -19.595  0.00  0.00    -0.002 C 
ATOM     13  C   UNL     1      33.627 -19.339 -20.858  0.00  0.00    -0.002 C 
ATOM     14  C   UNL     1      36.330 -19.607 -20.222  0.00  0.00    -0.000 C 
ATOM     15  C   UNL     1      34.574 -18.528 -21.484  0.00  0.00    -0.000 C 
ATOM     16  C   UNL     1      35.925 -18.664 -21.166  0.00  0.00    -0.000 C 
ENDBRANCH  10  11
BRANCH  10  17
ATOM     17  O   UNL     1      31.913 -21.305 -20.135  0.00  0.00    -0.380 OA
ATOM     18  H   UNL     1      31.396 -22.084 -19.877  0.00  0.00    +0.211 HD
ENDBRANCH  10  17
ENDBRANCH   9  10
ENDBRANCH   2   9
BRANCH   3  19
ATOM     19  C   UNL     1      34.451 -24.122 -14.171  0.00  0.00    +0.048 C 
BRANCH  19  21
ATOM     20  O   UNL     1      35.253 -25.990 -15.467  0.00  0.00    -0.291 OA
ATOM     21  C   UNL     1      35.504 -25.090 -14.668  0.00  0.00    +0.171 C 
BRANCH  21  22
ATOM     22  C   UNL     1      36.898 -24.934 -14.160  0.00  0.00    +0.035 C 
ATOM     23  C   UNL     1      37.101 -24.224 -12.998  0.00  0.00    +0.003 C 
ATOM     24  C   UNL     1      37.927 -25.506 -14.872  0.00  0.00    +0.003 C 
ATOM     25  C   UNL     1      38.404 -24.078 -12.523  0.00  0.00    +0.000 C 
ATOM     26  C   UNL     1      39.230 -25.360 -14.398  0.00  0.00    +0.000 C 
ATOM     27  C   UNL     1      39.468 -24.646 -13.222  0.00  0.00    +0.000 C 
ENDBRANCH  21  22
ENDBRANCH  19  21
ENDBRANCH   3  19
TORSDOF 7
ENDMDL
MODEL 5
REMARK VINA RESULT:     -10.1      2.524      4.549
REMARK  Name = 101616
REMARK  7 active torsions:
REMARK  status: ('A' for Active; 'I' for Inactive)
REMARK    1  A    between atoms: C_2  and  C_9
REMARK    2  A    between atoms: C_3  and  C_19
REMARK    3  A    between atoms: C_9  and  C_10
REMARK    4  A    between atoms: C_10  and  C_11
REMARK    5  A    between atoms: C_10  and  O_17
REMARK    6  A    between atoms: C_19  and  C_21
REMARK    7  A    between atoms: C_21  and  C_22
REMARK                            x       y       z     vdW  Elec       q    Type
REMARK                         _______ _______ _______ _____ _____    ______ ____
ROOT
ATOM      1  N   UNL     1      33.514 -20.995 -20.057  0.00  0.00    +0.388 N 
ATOM      2  C   UNL     1      34.134 -21.979 -19.139  0.00  0.00    -0.055 C 
ATOM      3  C   UNL     1      34.566 -20.310 -20.844  0.00  0.00    -0.050 C 
ATOM      4  C   UNL     1      35.161 -21.342 -18.186  0.00  0.00    -0.021 C 
ATOM      5  C   UNL     1      35.609 -19.606 -19.958  0.00  0.00    -0.020 C 
ATOM      6  C   UNL     1      36.230 -20.574 -18.956  0.00  0.00    -0.004 C 
ATOM      7  C   UNL     1      32.580 -20.081 -19.398  0.00  0.00    -0.100 C 
ATOM      8  H   UNL     1      32.922 -21.508 -20.709  0.00  0.00    -0.080 HD
ENDROOT
BRANCH   2   9
ATOM      9  C   UNL     1      33.113 -22.810 -18.352  0.00  0.00    +0.013 C 
BRANCH   9  10
ATOM     10  C   UNL     1      33.304 -22.704 -16.839  0.00  0.00    +0.131 C 
BRANCH  10  11
ATOM     11  C   UNL     1      32.014 -22.649 -16.056  0.00  0.00    +0.004 C 
ATOM     12  C   UNL     1      30.818 -22.474 -16.733  0.00  0.00    -0.002 C 
ATOM     13  C   UNL     1      32.051 -22.779 -14.678  0.00  0.00    -0.002 C 
ATOM     14  C   UNL     1      29.625 -22.424 -16.010  0.00  0.00    -0.000 C 
ATOM     15  C   UNL     1      30.859 -22.728 -13.954  0.00  0.00    -0.000 C 
ATOM     16  C   UNL     1      29.647 -22.551 -14.621  0.00  0.00    -0.000 C 
ENDBRANCH  10  11
BRANCH  10  17
ATOM     17  O   UNL     1      34.041 -23.846 -16.397  0.00  0.00    -0.380 OA
ATOM     18  H   UNL     1      34.257 -24.407 -17.158  0.00  0.00    +0.211 HD
ENDBRANCH  10  17
ENDBRANCH   9  10
ENDBRANCH   2   9
BRANCH   3  19
ATOM     19  C   UNL     1      34.010 -19.341 -21.894  0.00  0.00    +0.048 C 
BRANCH  19  21
ATOM     20  O   UNL     1      36.182 -18.558 -22.586  0.00  0.00    -0.291 OA
ATOM     21  C   UNL     1      35.025 -18.284 -22.274  0.00  0.00    +0.171 C 
BRANCH  21  22
ATOM     22  C   UNL     1      34.591 -16.857 -22.267  0.00  0.00    +0.035 C 
ATOM     23  C   UNL     1      34.355 -16.234 -23.472  0.00  0.00    +0.003 C 
ATOM     24  C   UNL     1      34.445 -16.217 -21.057  0.00  0.00    +0.003 C 
ATOM     25  C   UNL     1      33.949 -14.899 -23.466  0.00  0.00    +0.000 C 
ATOM     26  C   UNL     1      34.040 -14.883 -21.051  0.00  0.00    +0.000 C 
ATOM     27  C   UNL     1      33.791 -14.224 -22.256  0.00  0.00    +0.000 C 
ENDBRANCH  21  22
ENDBRANCH  19  21
ENDBRANCH   3  19
TORSDOF 7
ENDMDL
MODEL 6
REMARK VINA RESULT:     -10.1      1.523      8.707
REMARK  Name = 101616
REMARK  7 active torsions:
REMARK  status: ('A' for Active; 'I' for Inactive)
REMARK    1  A    between atoms: C_2  and  C_9
REMARK    2  A    between atoms: C_3  and  C_19
REMARK    3  A    between atoms: C_9  and  C_10
REMARK    4  A    between atoms: C_10  and  C_11
REMARK    5  A    between atoms: C_10  and  O_17
REMARK    6  A    between atoms: C_19  and  C_21
REMARK    7  A    between atoms: C_21  and  C_22
REMARK                            x       y       z     vdW  Elec       q    Type
REMARK                         _______ _______ _______ _____ _____    ______ ____
ROOT
ATOM      1  N   UNL     1      33.764 -18.891 -21.107  0.00  0.00    +0.388 N 
ATOM      2  C   UNL     1      34.808 -17.840 -21.136  0.00  0.00    -0.055 C 
ATOM      3  C   UNL     1      33.978 -19.781 -19.941  0.00  0.00    -0.050 C 
ATOM      4  C   UNL     1      36.233 -18.416 -21.180  0.00  0.00    -0.021 C 
ATOM      5  C   UNL     1      35.371 -20.434 -19.939  0.00  0.00    -0.020 C 
ATOM      6  C   UNL     1      36.476 -19.386 -20.028  0.00  0.00    -0.004 C 
ATOM      7  C   UNL     1      33.611 -19.605 -22.376  0.00  0.00    -0.100 C 
ATOM      8  H   UNL     1      32.861 -18.431 -20.986  0.00  0.00    -0.080 HD
ENDROOT
BRANCH   2   9
ATOM      9  C   UNL     1      34.608 -16.810 -22.255  0.00  0.00    +0.013 C 
BRANCH   9  10
ATOM     10  C   UNL     1      34.620 -15.370 -21.741  0.00  0.00    +0.131 C 
BRANCH  10  11
ATOM     11  C   UNL     1      33.954 -14.380 -22.667  0.00  0.00    +0.004 C 
ATOM     12  C   UNL     1      33.534 -14.799 -23.919  0.00  0.00    -0.002 C 
ATOM     13  C   UNL     1      33.774 -13.072 -22.246  0.00  0.00    -0.002 C 
ATOM     14  C   UNL     1      32.918 -13.884 -24.774  0.00  0.00    -0.000 C 
ATOM     15  C   UNL     1      33.160 -12.157 -23.101  0.00  0.00    -0.000 C 
ATOM     16  C   UNL     1      32.731 -12.564 -24.364  0.00  0.00    -0.000 C 
ENDBRANCH  10  11
BRANCH  10  17
ATOM     17  O   UNL     1      33.934 -15.332 -20.488  0.00  0.00    -0.380 OA
ATOM     18  H   UNL     1      34.544 -15.585 -19.777  0.00  0.00    +0.211 HD
ENDBRANCH  10  17
ENDBRANCH   9  10
ENDBRANCH   2   9
BRANCH   3  19
ATOM     19  C   UNL     1      32.885 -20.843 -19.775  0.00  0.00    +0.048 C 
BRANCH  19  21
ATOM     20  O   UNL     1      34.053 -22.952 -19.768  0.00  0.00    -0.291 OA
ATOM     21  C   UNL     1      33.424 -22.105 -19.136  0.00  0.00    +0.171 C 
BRANCH  21  22
ATOM     22  C   UNL     1      33.177 -22.318 -17.680  0.00  0.00    +0.035 C 
ATOM     23  C   UNL     1      31.876 -22.404 -17.238  0.00  0.00    +0.003 C 
ATOM     24  C   UNL     1      34.258 -22.420 -16.835  0.00  0.00    +0.003 C 
ATOM     25  C   UNL     1      31.643 -22.602 -15.877  0.00  0.00    +0.000 C 
ATOM     26  C   UNL     1      34.026 -22.618 -15.474  0.00  0.00    +0.000 C 
ATOM     27  C   UNL     1      32.718 -22.710 -14.995  0.00  0.00    +0.000 C 
ENDBRANCH  21  22
ENDBRANCH  19  21
ENDBRANCH   3  19
TORSDOF 7
ENDMDL
MODEL 7
REMARK VINA RESULT:     -10.0      5.164      9.237
REMARK  Name = 101616
REMARK  7 active torsions:
REMARK  status: ('A' for Active; 'I' for Inactive)
REMARK    1  A    between atoms: C_2  and  C_9
REMARK    2  A    between atoms: C_3  and  C_19
REMARK    3  A    between atoms: C_9  and  C_10
REMARK    4  A    between atoms: C_10  and  C_11
REMARK    5  A    between atoms: C_10  and  O_17
REMARK    6  A    between atoms: C_19  and  C_21
REMARK    7  A    between atoms: C_21  and  C_22
REMARK                            x       y       z     vdW  Elec       q    Type
REMARK                         _______ _______ _______ _____ _____    ______ ____
ROOT
ATOM      1  N   UNL     1      31.885  -8.769 -22.008  0.00  0.00    +0.388 N 
ATOM      2  C   UNL     1      32.018 -10.129 -21.434  0.00  0.00    -0.055 C 
ATOM      3  C   UNL     1      32.189  -7.755 -20.971  0.00  0.00    -0.050 C 
ATOM      4  C   UNL     1      31.113 -10.352 -20.211  0.00  0.00    -0.021 C 
ATOM      5  C   UNL     1      31.289  -7.883 -19.730  0.00  0.00    -0.020 C 
ATOM      6  C   UNL     1      31.351  -9.290 -19.142  0.00  0.00    -0.004 C 
ATOM      7  C   UNL     1      30.616  -8.544 -22.701  0.00  0.00    -0.100 C 
ATOM      8  H   UNL     1      32.579  -8.675 -22.749  0.00  0.00    -0.080 HD
ENDROOT
BRANCH   2   9
ATOM      9  C   UNL     1      31.819 -11.249 -22.463  0.00  0.00    +0.013 C 
BRANCH   9  10
ATOM     10  C   UNL     1      33.140 -11.793 -23.008  0.00  0.00    +0.131 C 
BRANCH  10  11
ATOM     11  C   UNL     1      33.540 -13.132 -22.434  0.00  0.00    +0.004 C 
ATOM     12  C   UNL     1      33.955 -14.138 -23.289  0.00  0.00    -0.002 C 
ATOM     13  C   UNL     1      33.485 -13.326 -21.063  0.00  0.00    -0.002 C 
ATOM     14  C   UNL     1      34.325 -15.375 -22.759  0.00  0.00    -0.000 C 
ATOM     15  C   UNL     1      33.853 -14.562 -20.533  0.00  0.00    -0.000 C 
ATOM     16  C   UNL     1      34.274 -15.586 -21.382  0.00  0.00    -0.000 C 
ENDBRANCH  10  11
BRANCH  10  17
ATOM     17  O   UNL     1      33.019 -11.938 -24.424  0.00  0.00    -0.380 OA
ATOM     18  H   UNL     1      33.503 -12.728 -24.711  0.00  0.00    +0.211 HD
ENDBRANCH  10  17
ENDBRANCH   9  10
ENDBRANCH   2   9
BRANCH   3  19
ATOM     19  C   UNL     1      32.172  -6.316 -21.501  0.00  0.00    +0.048 C 
BRANCH  19  21
ATOM     20  O   UNL     1      34.343  -6.714 -22.469  0.00  0.00    -0.291 OA
ATOM     21  C   UNL     1      33.298  -6.067 -22.482  0.00  0.00    +0.171 C 
BRANCH  21  22
ATOM     22  C   UNL     1      33.120  -4.990 -23.499  0.00  0.00    +0.035 C 
ATOM     23  C   UNL     1      34.047  -4.879 -24.511  0.00  0.00    +0.003 C 
ATOM     24  C   UNL     1      32.036  -4.150 -23.387  0.00  0.00    +0.003 C 
ATOM     25  C   UNL     1      33.881  -3.873 -25.462  0.00  0.00    +0.000 C 
ATOM     26  C   UNL     1      31.870  -3.143 -24.338  0.00  0.00    +0.000 C 
ATOM     27  C   UNL     1      32.792  -3.005 -25.376  0.00  0.00    +0.000 C 
ENDBRANCH  21  22
ENDBRANCH  19  21
ENDBRANCH   3  19
TORSDOF 7
ENDMDL
MODEL 8
REMARK VINA RESULT:     -10.0      5.020      8.555
REMARK  Name = 101616
REMARK  7 active torsions:
REMARK  status: ('A' for Active; 'I' for Inactive)
REMARK    1  A    between atoms: C_2  and  C_9
REMARK    2  A    between atoms: C_3  and  C_19
REMARK    3  A    between atoms: C_9  and  C_10
REMARK    4  A    between atoms: C_10  and  C_11
REMARK    5  A    between atoms: C_10  and  O_17
REMARK    6  A    between atoms: C_19  and  C_21
REMARK    7  A    between atoms: C_21  and  C_22
REMARK                            x       y       z     vdW  Elec       q    Type
REMARK                         _______ _______ _______ _____ _____    ______ ____
ROOT
ATOM      1  N   UNL     1      34.201 -23.630 -14.904  0.00  0.00    +0.388 N 
ATOM      2  C   UNL     1      34.033 -23.419 -13.446  0.00  0.00    -0.055 C 
ATOM      3  C   UNL     1      33.175 -22.860 -15.645  0.00  0.00    -0.050 C 
ATOM      4  C   UNL     1      32.632 -23.809 -12.945  0.00  0.00    -0.021 C 
ATOM      5  C   UNL     1      31.739 -23.230 -15.231  0.00  0.00    -0.020 C 
ATOM      6  C   UNL     1      31.540 -23.083 -13.726  0.00  0.00    -0.004 C 
ATOM      7  C   UNL     1      34.278 -25.039 -15.290  0.00  0.00    -0.100 C 
ATOM      8  H   UNL     1      35.116 -23.263 -15.168  0.00  0.00    -0.080 HD
ENDROOT
BRANCH   2   9
ATOM      9  C   UNL     1      35.117 -24.099 -12.601  0.00  0.00    +0.013 C 
BRANCH   9  10
ATOM     10  C   UNL     1      36.410 -23.287 -12.534  0.00  0.00    +0.131 C 
BRANCH  10  11
ATOM     11  C   UNL     1      37.550 -23.876 -13.330  0.00  0.00    +0.004 C 
ATOM     12  C   UNL     1      37.756 -23.455 -14.633  0.00  0.00    -0.002 C 
ATOM     13  C   UNL     1      38.369 -24.826 -12.741  0.00  0.00    -0.002 C 
ATOM     14  C   UNL     1      38.810 -23.999 -15.369  0.00  0.00    -0.000 C 
ATOM     15  C   UNL     1      39.422 -25.371 -13.476  0.00  0.00    -0.000 C 
ATOM     16  C   UNL     1      39.642 -24.956 -14.789  0.00  0.00    -0.000 C 
ENDBRANCH  10  11
BRANCH  10  17
ATOM     17  O   UNL     1      36.148 -21.977 -13.043  0.00  0.00    -0.380 OA
ATOM     18  H   UNL     1      35.430 -22.020 -13.694  0.00  0.00    +0.211 HD
ENDBRANCH  10  17
ENDBRANCH   9  10
ENDBRANCH   2   9
BRANCH   3  19
ATOM     19  C   UNL     1      33.333 -22.941 -17.168  0.00  0.00    +0.048 C 
BRANCH  19  21
ATOM     20  O   UNL     1      35.598 -22.117 -17.124  0.00  0.00    -0.291 OA
ATOM     21  C   UNL     1      34.490 -22.095 -17.656  0.00  0.00    +0.171 C 
BRANCH  21  22
ATOM     22  C   UNL     1      34.264 -21.204 -18.831  0.00  0.00    +0.035 C 
ATOM     23  C   UNL     1      35.358 -20.690 -19.489  0.00  0.00    +0.003 C 
ATOM     24  C   UNL     1      32.970 -20.930 -19.212  0.00  0.00    +0.003 C 
ATOM     25  C   UNL     1      35.147 -19.856 -20.587  0.00  0.00    +0.000 C 
ATOM     26  C   UNL     1      32.759 -20.097 -20.309  0.00  0.00    +0.000 C 
ATOM     27  C   UNL     1      33.847 -19.560 -20.998  0.00  0.00    +0.000 C 
ENDBRANCH  21  22
ENDBRANCH  19  21
ENDBRANCH   3  19
TORSDOF 7
ENDMDL
MODEL 9
REMARK VINA RESULT:      -9.9      2.871      9.178
REMARK  Name = 101616
REMARK  7 active torsions:
REMARK  status: ('A' for Active; 'I' for Inactive)
REMARK    1  A    between atoms: C_2  and  C_9
REMARK    2  A    between atoms: C_3  and  C_19
REMARK    3  A    between atoms: C_9  and  C_10
REMARK    4  A    between atoms: C_10  and  C_11
REMARK    5  A    between atoms: C_10  and  O_17
REMARK    6  A    between atoms: C_19  and  C_21
REMARK    7  A    between atoms: C_21  and  C_22
REMARK                            x       y       z     vdW  Elec       q    Type
REMARK                         _______ _______ _______ _____ _____    ______ ____
ROOT
ATOM      1  N   UNL     1      33.643 -21.632 -18.911  0.00  0.00    +0.388 N 
ATOM      2  C   UNL     1      34.426 -20.459 -19.366  0.00  0.00    -0.055 C 
ATOM      3  C   UNL     1      33.968 -21.934 -17.497  0.00  0.00    -0.050 C 
ATOM      4  C   UNL     1      35.943 -20.658 -19.215  0.00  0.00    -0.021 C 
ATOM      5  C   UNL     1      35.468 -22.194 -17.273  0.00  0.00    -0.020 C 
ATOM      6  C   UNL     1      36.315 -21.032 -17.783  0.00  0.00    -0.004 C 
ATOM      7  C   UNL     1      33.744 -22.789 -19.801  0.00  0.00    -0.100 C 
ATOM      8  H   UNL     1      32.655 -21.384 -18.958  0.00  0.00    -0.080 HD
ENDROOT
BRANCH   2   9
ATOM      9  C   UNL     1      34.081 -20.009 -20.792  0.00  0.00    +0.013 C 
BRANCH   9  10
ATOM     10  C   UNL     1      35.108 -19.036 -21.369  0.00  0.00    +0.131 C 
BRANCH  10  11
ATOM     11  C   UNL     1      34.573 -18.158 -22.475  0.00  0.00    +0.004 C 
ATOM     12  C   UNL     1      33.888 -18.739 -23.530  0.00  0.00    -0.002 C 
ATOM     13  C   UNL     1      34.775 -16.789 -22.413  0.00  0.00    -0.002 C 
ATOM     14  C   UNL     1      33.392 -17.928 -24.552  0.00  0.00    -0.000 C 
ATOM     15  C   UNL     1      34.280 -15.978 -23.435  0.00  0.00    -0.000 C 
ATOM     16  C   UNL     1      33.589 -16.548 -24.503  0.00  0.00    -0.000 C 
ENDBRANCH  10  11
BRANCH  10  17
ATOM     17  O   UNL     1      35.568 -18.187 -20.316  0.00  0.00    -0.380 OA
ATOM     18  H   UNL     1      34.807 -17.809 -19.848  0.00  0.00    +0.211 HD
ENDBRANCH  10  17
ENDBRANCH   9  10
ENDBRANCH   2   9
BRANCH   3  19
ATOM     19  C   UNL     1      33.130 -23.076 -16.909  0.00  0.00    +0.048 C 
BRANCH  19  21
ATOM     20  O   UNL     1      31.069 -21.936 -17.419  0.00  0.00    -0.291 OA
ATOM     21  C   UNL     1      31.704 -22.645 -16.642  0.00  0.00    +0.171 C 
BRANCH  21  22
ATOM     22  C   UNL     1      31.055 -23.105 -15.379  0.00  0.00    +0.035 C 
ATOM     23  C   UNL     1      30.038 -24.030 -15.460  0.00  0.00    +0.003 C 
ATOM     24  C   UNL     1      31.497 -22.588 -14.183  0.00  0.00    +0.003 C 
ATOM     25  C   UNL     1      29.431 -24.461 -14.281  0.00  0.00    +0.000 C 
ATOM     26  C   UNL     1      30.890 -23.019 -13.004  0.00  0.00    +0.000 C 
ATOM     27  C   UNL     1      29.857 -23.955 -13.053  0.00  0.00    +0.000 C 
ENDBRANCH  21  22
ENDBRANCH  19  21
ENDBRANCH   3  19
TORSDOF 7
ENDMDL
