MODEL 1
REMARK VINA RESULT:     -14.1      0.000      0.000
REMARK  Name = 3151
REMARK  5 active torsions:
REMARK  status: ('A' for Active; 'I' for Inactive)
REMARK    1  A    between atoms: N_1  and  C_20
REMARK    2  A    between atoms: C_2  and  N_10
REMARK    3  A    between atoms: C_20  and  C_21
REMARK    4  A    between atoms: C_21  and  C_22
REMARK    5  A    between atoms: C_22  and  N_24
REMARK                            x       y       z     vdW  Elec       q    Type
REMARK                         _______ _______ _______ _____ _____    ______ ____
ROOT
ATOM      1  N   UNL     1      35.228 -18.464 -20.998  0.00  0.00    +0.387 N 
ATOM      2  C   UNL     1      34.710 -20.949 -19.545  0.00  0.00    +0.086 C 
ATOM      3  C   UNL     1      33.582 -20.069 -20.082  0.00  0.00    -0.000 C 
ATOM      4  C   UNL     1      35.967 -20.112 -19.309  0.00  0.00    -0.000 C 
ATOM      5  C   UNL     1      34.037 -19.270 -21.305  0.00  0.00    -0.075 C 
ATOM      6  C   UNL     1      36.343 -19.312 -20.558  0.00  0.00    -0.075 C 
ATOM      7  H   UNL     1      34.992 -17.832 -20.234  0.00  0.00    -0.080 HD
ENDROOT
BRANCH   2  10
ATOM      8 CL   UNL     1      37.074 -23.198 -13.427  0.00  0.00    -0.082 Cl
ATOM      9  O   UNL     1      31.997 -22.051 -18.733  0.00  0.00    -0.247 OA
ATOM     10  N   UNL     1      34.302 -21.625 -18.338  0.00  0.00    -0.282 N 
ATOM     11  N   UNL     1      33.099 -22.694 -16.742  0.00  0.00    -0.305 N 
ATOM     12  C   UNL     1      35.157 -21.903 -17.263  0.00  0.00    +0.079 A 
ATOM     13  C   UNL     1      33.001 -22.111 -18.037  0.00  0.00    +0.328 A 
ATOM     14  C   UNL     1      34.411 -22.561 -16.286  0.00  0.00    +0.077 A 
ATOM     15  C   UNL     1      36.498 -21.631 -17.084  0.00  0.00    +0.020 C 
ATOM     16  C   UNL     1      34.959 -22.976 -15.093  0.00  0.00    +0.030 C 
ATOM     17  C   UNL     1      37.078 -22.044 -15.881  0.00  0.00    +0.013 C 
ATOM     18  C   UNL     1      36.317 -22.708 -14.896  0.00  0.00    +0.059 C 
ATOM     19  H   UNL     1      32.362 -23.121 -16.249  0.00  0.00    +0.170 HD
ENDBRANCH   2  10
BRANCH   1  20
ATOM     20  C   UNL     1      35.620 -17.668 -22.162  0.00  0.00    -0.075 C 
BRANCH  20  21
ATOM     21  C   UNL     1      34.406 -17.077 -22.885  0.00  0.00    +0.002 C 
BRANCH  21  22
ATOM     22  C   UNL     1      34.734 -15.921 -23.828  0.00  0.00    +0.108 C 
BRANCH  22  24
ATOM     23  O   UNL     1      33.136 -14.606 -26.026  0.00  0.00    -0.247 OA
ATOM     24  N   UNL     1      33.774 -14.854 -23.747  0.00  0.00    -0.280 N 
ATOM     25  N   UNL     1      32.234 -13.275 -24.293  0.00  0.00    -0.305 N 
ATOM     26  C   UNL     1      33.383 -14.192 -22.571  0.00  0.00    +0.079 A 
ATOM     27  C   UNL     1      33.062 -14.291 -24.846  0.00  0.00    +0.328 A 
ATOM     28  C   UNL     1      32.440 -13.226 -22.913  0.00  0.00    +0.076 A 
ATOM     29  C   UNL     1      33.786 -14.375 -21.264  0.00  0.00    +0.019 C 
ATOM     30  C   UNL     1      31.855 -12.401 -21.979  0.00  0.00    +0.019 C 
ATOM     31  C   UNL     1      33.207 -13.548 -20.297  0.00  0.00    +0.002 C 
ATOM     32  C   UNL     1      32.251 -12.572 -20.650  0.00  0.00    +0.002 C 
ATOM     33  H   UNL     1      31.617 -12.698 -24.800  0.00  0.00    +0.170 HD
ENDBRANCH  22  24
ENDBRANCH  21  22
ENDBRANCH  20  21
ENDBRANCH   1  20
TORSDOF 5
ENDMDL
MODEL 2
REMARK VINA RESULT:     -13.8      6.538     12.597
REMARK  Name = 3151
REMARK  5 active torsions:
REMARK  status: ('A' for Active; 'I' for Inactive)
REMARK    1  A    between atoms: N_1  and  C_20
REMARK    2  A    between atoms: C_2  and  N_10
REMARK    3  A    between atoms: C_20  and  C_21
REMARK    4  A    between atoms: C_21  and  C_22
REMARK    5  A    between atoms: C_22  and  N_24
REMARK                            x       y       z     vdW  Elec       q    Type
REMARK                         _______ _______ _______ _____ _____    ______ ____
ROOT
ATOM      1  N   UNL     1      32.043 -11.454 -22.084  0.00  0.00    +0.387 N 
ATOM      2  C   UNL     1      31.226  -8.645 -22.057  0.00  0.00    +0.086 C 
ATOM      3  C   UNL     1      32.477  -9.124 -22.794  0.00  0.00    -0.000 C 
ATOM      4  C   UNL     1      30.883  -9.606 -20.919  0.00  0.00    -0.000 C 
ATOM      5  C   UNL     1      32.339 -10.583 -23.230  0.00  0.00    -0.075 C 
ATOM      6  C   UNL     1      30.797 -11.050 -21.418  0.00  0.00    -0.075 C 
ATOM      7  H   UNL     1      32.803 -11.360 -21.412  0.00  0.00    -0.080 HD
ENDROOT
BRANCH   2  10
ATOM      8 CL   UNL     1      30.553  -1.987 -23.871  0.00  0.00    -0.082 Cl
ATOM      9  O   UNL     1      32.210  -7.656 -19.357  0.00  0.00    -0.247 OA
ATOM     10  N   UNL     1      31.403  -7.301 -21.566  0.00  0.00    -0.282 N 
ATOM     11  N   UNL     1      31.873  -5.501 -20.271  0.00  0.00    -0.305 N 
ATOM     12  C   UNL     1      31.129  -6.147 -22.311  0.00  0.00    +0.079 A 
ATOM     13  C   UNL     1      31.872  -6.925 -20.278  0.00  0.00    +0.328 A 
ATOM     14  C   UNL     1      31.420  -5.044 -21.509  0.00  0.00    +0.077 A 
ATOM     15  C   UNL     1      30.658  -5.997 -23.599  0.00  0.00    +0.020 C 
ATOM     16  C   UNL     1      31.257  -3.749 -21.948  0.00  0.00    +0.030 C 
ATOM     17  C   UNL     1      30.486  -4.691 -24.067  0.00  0.00    +0.013 C 
ATOM     18  C   UNL     1      30.782  -3.580 -23.251  0.00  0.00    +0.059 C 
ATOM     19  H   UNL     1      32.147  -4.932 -19.516  0.00  0.00    +0.170 HD
ENDBRANCH   2  10
BRANCH   1  20
ATOM     20  C   UNL     1      31.963 -12.852 -22.511  0.00  0.00    -0.075 C 
BRANCH  20  21
ATOM     21  C   UNL     1      33.095 -13.696 -21.917  0.00  0.00    +0.002 C 
BRANCH  21  22
ATOM     22  C   UNL     1      34.177 -14.094 -22.918  0.00  0.00    +0.108 C 
BRANCH  22  24
ATOM     23  O   UNL     1      33.109 -15.075 -25.566  0.00  0.00    -0.247 OA
ATOM     24  N   UNL     1      34.017 -15.440 -23.397  0.00  0.00    -0.280 N 
ATOM     25  N   UNL     1      33.526 -17.236 -24.701  0.00  0.00    -0.305 N 
ATOM     26  C   UNL     1      34.343 -16.607 -22.685  0.00  0.00    +0.079 A 
ATOM     27  C   UNL     1      33.499 -15.813 -24.672  0.00  0.00    +0.328 A 
ATOM     28  C   UNL     1      34.040 -17.703 -23.490  0.00  0.00    +0.076 A 
ATOM     29  C   UNL     1      34.872 -16.766 -21.421  0.00  0.00    +0.019 C 
ATOM     30  C   UNL     1      34.247 -19.001 -23.080  0.00  0.00    +0.019 C 
ATOM     31  C   UNL     1      35.090 -18.076 -20.981  0.00  0.00    +0.002 C 
ATOM     32  C   UNL     1      34.782 -19.181 -21.802  0.00  0.00    +0.002 C 
ATOM     33  H   UNL     1      33.230 -17.800 -25.453  0.00  0.00    +0.170 HD
ENDBRANCH  22  24
ENDBRANCH  21  22
ENDBRANCH  20  21
ENDBRANCH   1  20
TORSDOF 5
ENDMDL
MODEL 3
REMARK VINA RESULT:     -13.6      2.975      9.866
REMARK  Name = 3151
REMARK  5 active torsions:
REMARK  status: ('A' for Active; 'I' for Inactive)
REMARK    1  A    between atoms: N_1  and  C_20
REMARK    2  A    between atoms: C_2  and  N_10
REMARK    3  A    between atoms: C_20  and  C_21
REMARK    4  A    between atoms: C_21  and  C_22
REMARK    5  A    between atoms: C_22  and  N_24
REMARK                            x       y       z     vdW  Elec       q    Type
REMARK                         _______ _______ _______ _____ _____    ______ ____
ROOT
ATOM      1  N   UNL     1      34.402 -18.471 -21.693  0.00  0.00    +0.387 N 
ATOM      2  C   UNL     1      34.248 -15.914 -23.105  0.00  0.00    +0.086 C 
ATOM      3  C   UNL     1      34.452 -15.999 -21.593  0.00  0.00    -0.000 C 
ATOM      4  C   UNL     1      33.546 -17.172 -23.616  0.00  0.00    -0.000 C 
ATOM      5  C   UNL     1      35.146 -17.304 -21.199  0.00  0.00    -0.075 C 
ATOM      6  C   UNL     1      34.272 -18.438 -23.156  0.00  0.00    -0.075 C 
ATOM      7  H   UNL     1      33.465 -18.439 -21.294  0.00  0.00    -0.080 HD
ENDROOT
BRANCH   2  10
ATOM      8 CL   UNL     1      31.029 -10.418 -20.365  0.00  0.00    -0.082 Cl
ATOM      9  O   UNL     1      33.458 -14.830 -25.832  0.00  0.00    -0.247 OA
ATOM     10  N   UNL     1      33.508 -14.727 -23.457  0.00  0.00    -0.282 N 
ATOM     11  N   UNL     1      32.450 -13.080 -24.600  0.00  0.00    -0.305 N 
ATOM     12  C   UNL     1      32.995 -13.813 -22.527  0.00  0.00    +0.079 A 
ATOM     13  C   UNL     1      33.181 -14.291 -24.769  0.00  0.00    +0.328 A 
ATOM     14  C   UNL     1      32.346 -12.804 -23.236  0.00  0.00    +0.077 A 
ATOM     15  C   UNL     1      33.054 -13.802 -21.149  0.00  0.00    +0.020 C 
ATOM     16  C   UNL     1      31.729 -11.743 -22.613  0.00  0.00    +0.030 C 
ATOM     17  C   UNL     1      32.434 -12.734 -20.492  0.00  0.00    +0.013 C 
ATOM     18  C   UNL     1      31.779 -11.716 -21.217  0.00  0.00    +0.059 C 
ATOM     19  H   UNL     1      32.080 -12.529 -25.326  0.00  0.00    +0.170 HD
ENDBRANCH   2  10
BRANCH   1  20
ATOM     20  C   UNL     1      35.052 -19.711 -21.266  0.00  0.00    -0.075 C 
BRANCH  20  21
ATOM     21  C   UNL     1      34.592 -20.146 -19.872  0.00  0.00    +0.002 C 
BRANCH  21  22
ATOM     22  C   UNL     1      35.150 -21.493 -19.415  0.00  0.00    +0.108 C 
BRANCH  22  24
ATOM     23  O   UNL     1      32.312 -22.274 -18.747  0.00  0.00    -0.247 OA
ATOM     24  N   UNL     1      34.592 -21.925 -18.163  0.00  0.00    -0.280 N 
ATOM     25  N   UNL     1      33.142 -22.635 -16.563  0.00  0.00    -0.305 N 
ATOM     26  C   UNL     1      35.299 -22.070 -16.958  0.00  0.00    +0.079 A 
ATOM     27  C   UNL     1      33.229 -22.276 -17.937  0.00  0.00    +0.328 A 
ATOM     28  C   UNL     1      34.405 -22.506 -15.982  0.00  0.00    +0.076 A 
ATOM     29  C   UNL     1      36.631 -21.854 -16.669  0.00  0.00    +0.019 C 
ATOM     30  C   UNL     1      34.788 -22.746 -14.682  0.00  0.00    +0.019 C 
ATOM     31  C   UNL     1      37.045 -22.090 -15.354  0.00  0.00    +0.002 C 
ATOM     32  C   UNL     1      36.134 -22.532 -14.371  0.00  0.00    +0.002 C 
ATOM     33  H   UNL     1      32.325 -22.927 -16.097  0.00  0.00    +0.170 HD
ENDBRANCH  22  24
ENDBRANCH  21  22
ENDBRANCH  20  21
ENDBRANCH   1  20
TORSDOF 5
ENDMDL
MODEL 4
REMARK VINA RESULT:     -13.5      3.522     10.394
REMARK  Name = 3151
REMARK  5 active torsions:
REMARK  status: ('A' for Active; 'I' for Inactive)
REMARK    1  A    between atoms: N_1  and  C_20
REMARK    2  A    between atoms: C_2  and  N_10
REMARK    3  A    between atoms: C_20  and  C_21
REMARK    4  A    between atoms: C_21  and  C_22
REMARK    5  A    between atoms: C_22  and  N_24
REMARK                            x       y       z     vdW  Elec       q    Type
REMARK                         _______ _______ _______ _____ _____    ______ ____
ROOT
ATOM      1  N   UNL     1      34.864 -21.161 -19.451  0.00  0.00    +0.387 N 
ATOM      2  C   UNL     1      34.468 -18.591 -20.792  0.00  0.00    +0.086 C 
ATOM      3  C   UNL     1      33.357 -19.636 -20.687  0.00  0.00    -0.000 C 
ATOM      4  C   UNL     1      35.837 -19.266 -20.706  0.00  0.00    -0.000 C 
ATOM      5  C   UNL     1      33.541 -20.519 -19.451  0.00  0.00    -0.075 C 
ATOM      6  C   UNL     1      35.939 -20.160 -19.470  0.00  0.00    -0.075 C 
ATOM      7  H   UNL     1      34.941 -21.722 -20.297  0.00  0.00    -0.080 HD
ENDROOT
BRANCH   2  10
ATOM      8 CL   UNL     1      33.658 -12.132 -23.178  0.00  0.00    -0.082 Cl
ATOM      9  O   UNL     1      34.472 -19.502 -23.691  0.00  0.00    -0.247 OA
ATOM     10  N   UNL     1      34.340 -17.828 -22.008  0.00  0.00    -0.282 N 
ATOM     11  N   UNL     1      34.196 -17.206 -24.183  0.00  0.00    -0.305 N 
ATOM     12  C   UNL     1      34.181 -16.436 -22.053  0.00  0.00    +0.079 A 
ATOM     13  C   UNL     1      34.353 -18.338 -23.334  0.00  0.00    +0.328 A 
ATOM     14  C   UNL     1      34.094 -16.061 -23.392  0.00  0.00    +0.077 A 
ATOM     15  C   UNL     1      34.112 -15.505 -21.037  0.00  0.00    +0.020 C 
ATOM     16  C   UNL     1      33.933 -14.751 -23.783  0.00  0.00    +0.030 C 
ATOM     17  C   UNL     1      33.947 -14.167 -21.409  0.00  0.00    +0.013 C 
ATOM     18  C   UNL     1      33.859 -13.794 -22.767  0.00  0.00    +0.059 C 
ATOM     19  H   UNL     1      34.166 -17.228 -25.167  0.00  0.00    +0.170 HD
ENDBRANCH   2  10
BRANCH   1  20
ATOM     20  C   UNL     1      35.004 -22.040 -18.289  0.00  0.00    -0.075 C 
BRANCH  20  21
ATOM     21  C   UNL     1      36.168 -21.616 -17.389  0.00  0.00    +0.002 C 
BRANCH  21  22
ATOM     22  C   UNL     1      35.855 -21.648 -15.894  0.00  0.00    +0.108 C 
BRANCH  22  24
ATOM     23  O   UNL     1      33.457 -23.388 -15.318  0.00  0.00    -0.247 OA
ATOM     24  N   UNL     1      35.801 -22.986 -15.371  0.00  0.00    -0.280 N 
ATOM     25  N   UNL     1      35.046 -24.992 -14.616  0.00  0.00    -0.305 N 
ATOM     26  C   UNL     1      36.910 -23.770 -15.013  0.00  0.00    +0.079 A 
ATOM     27  C   UNL     1      34.614 -23.737 -15.129  0.00  0.00    +0.328 A 
ATOM     28  C   UNL     1      36.440 -24.998 -14.551  0.00  0.00    +0.076 A 
ATOM     29  C   UNL     1      38.260 -23.489 -15.064  0.00  0.00    +0.019 C 
ATOM     30  C   UNL     1      37.282 -25.998 -14.121  0.00  0.00    +0.019 C 
ATOM     31  C   UNL     1      39.137 -24.489 -14.631  0.00  0.00    +0.002 C 
ATOM     32  C   UNL     1      38.654 -25.730 -14.166  0.00  0.00    +0.002 C 
ATOM     33  H   UNL     1      34.457 -25.736 -14.350  0.00  0.00    +0.170 HD
ENDBRANCH  22  24
ENDBRANCH  21  22
ENDBRANCH  20  21
ENDBRANCH   1  20
TORSDOF 5
ENDMDL
MODEL 5
REMARK VINA RESULT:     -13.4      2.267      2.895
REMARK  Name = 3151
REMARK  5 active torsions:
REMARK  status: ('A' for Active; 'I' for Inactive)
REMARK    1  A    between atoms: N_1  and  C_20
REMARK    2  A    between atoms: C_2  and  N_10
REMARK    3  A    between atoms: C_20  and  C_21
REMARK    4  A    between atoms: C_21  and  C_22
REMARK    5  A    between atoms: C_22  and  N_24
REMARK                            x       y       z     vdW  Elec       q    Type
REMARK                         _______ _______ _______ _____ _____    ______ ____
ROOT
ATOM      1  N   UNL     1      34.631 -19.841 -20.161  0.00  0.00    +0.387 N 
ATOM      2  C   UNL     1      34.486 -21.962 -18.153  0.00  0.00    +0.086 C 
ATOM      3  C   UNL     1      33.264 -21.136 -18.556  0.00  0.00    -0.000 C 
ATOM      4  C   UNL     1      35.768 -21.173 -18.415  0.00  0.00    -0.000 C 
ATOM      5  C   UNL     1      33.395 -20.617 -19.989  0.00  0.00    -0.075 C 
ATOM      6  C   UNL     1      35.816 -20.653 -19.853  0.00  0.00    -0.075 C 
ATOM      7  H   UNL     1      34.606 -19.060 -19.507  0.00  0.00    -0.080 HD
ENDROOT
BRANCH   2  10
ATOM      8 CL   UNL     1      30.002 -24.104 -13.317  0.00  0.00    -0.082 Cl
ATOM      9  O   UNL     1      36.649 -22.182 -16.031  0.00  0.00    -0.247 OA
ATOM     10  N   UNL     1      34.398 -22.366 -16.771  0.00  0.00    -0.282 N 
ATOM     11  N   UNL     1      34.887 -22.886 -14.620  0.00  0.00    -0.305 N 
ATOM     12  C   UNL     1      33.209 -22.752 -16.137  0.00  0.00    +0.079 A 
ATOM     13  C   UNL     1      35.469 -22.441 -15.841  0.00  0.00    +0.328 A 
ATOM     14  C   UNL     1      33.518 -23.070 -14.815  0.00  0.00    +0.077 A 
ATOM     15  C   UNL     1      31.920 -22.842 -16.618  0.00  0.00    +0.020 C 
ATOM     16  C   UNL     1      32.564 -23.490 -13.915  0.00  0.00    +0.030 C 
ATOM     17  C   UNL     1      30.933 -23.265 -15.722  0.00  0.00    +0.013 C 
ATOM     18  C   UNL     1      31.252 -23.586 -14.386  0.00  0.00    +0.059 C 
ATOM     19  H   UNL     1      35.371 -23.039 -13.777  0.00  0.00    +0.170 HD
ENDBRANCH   2  10
BRANCH   1  20
ATOM     20  C   UNL     1      34.716 -19.310 -21.523  0.00  0.00    -0.075 C 
BRANCH  20  21
ATOM     21  C   UNL     1      34.077 -17.923 -21.636  0.00  0.00    +0.002 C 
BRANCH  21  22
ATOM     22  C   UNL     1      34.961 -16.874 -22.307  0.00  0.00    +0.108 C 
BRANCH  22  24
ATOM     23  O   UNL     1      34.088 -16.614 -25.185  0.00  0.00    -0.247 OA
ATOM     24  N   UNL     1      34.198 -15.833 -22.940  0.00  0.00    -0.280 N 
ATOM     25  N   UNL     1      33.088 -14.589 -24.485  0.00  0.00    -0.305 N 
ATOM     26  C   UNL     1      33.691 -14.687 -22.305  0.00  0.00    +0.079 A 
ATOM     27  C   UNL     1      33.829 -15.792 -24.317  0.00  0.00    +0.328 A 
ATOM     28  C   UNL     1      33.013 -13.929 -23.257  0.00  0.00    +0.076 A 
ATOM     29  C   UNL     1      33.783 -14.277 -20.990  0.00  0.00    +0.019 C 
ATOM     30  C   UNL     1      32.397 -12.737 -22.951  0.00  0.00    +0.019 C 
ATOM     31  C   UNL     1      33.165 -13.068 -20.654  0.00  0.00    +0.002 C 
ATOM     32  C   UNL     1      32.479 -12.307 -21.624  0.00  0.00    +0.002 C 
ATOM     33  H   UNL     1      32.692 -14.272 -25.330  0.00  0.00    +0.170 HD
ENDBRANCH  22  24
ENDBRANCH  21  22
ENDBRANCH  20  21
ENDBRANCH   1  20
TORSDOF 5
ENDMDL
MODEL 6
REMARK VINA RESULT:     -13.2      3.710      9.887
REMARK  Name = 3151
REMARK  5 active torsions:
REMARK  status: ('A' for Active; 'I' for Inactive)
REMARK    1  A    between atoms: N_1  and  C_20
REMARK    2  A    between atoms: C_2  and  N_10
REMARK    3  A    between atoms: C_20  and  C_21
REMARK    4  A    between atoms: C_21  and  C_22
REMARK    5  A    between atoms: C_22  and  N_24
REMARK                            x       y       z     vdW  Elec       q    Type
REMARK                         _______ _______ _______ _____ _____    ______ ____
ROOT
ATOM      1  N   UNL     1      35.081 -20.489 -20.201  0.00  0.00    +0.387 N 
ATOM      2  C   UNL     1      34.426 -17.877 -21.344  0.00  0.00    +0.086 C 
ATOM      3  C   UNL     1      33.417 -19.025 -21.301  0.00  0.00    -0.000 C 
ATOM      4  C   UNL     1      35.853 -18.427 -21.326  0.00  0.00    -0.000 C 
ATOM      5  C   UNL     1      33.706 -19.974 -20.137  0.00  0.00    -0.075 C 
ATOM      6  C   UNL     1      36.060 -19.395 -20.160  0.00  0.00    -0.075 C 
ATOM      7  H   UNL     1      35.192 -20.979 -21.088  0.00  0.00    -0.080 HD
ENDROOT
BRANCH   2  10
ATOM      8 CL   UNL     1      33.371 -11.298 -23.261  0.00  0.00    -0.082 Cl
ATOM      9  O   UNL     1      34.243 -18.608 -24.287  0.00  0.00    -0.247 OA
ATOM     10  N   UNL     1      34.206 -17.043 -22.498  0.00  0.00    -0.282 N 
ATOM     11  N   UNL     1      33.905 -16.291 -24.615  0.00  0.00    -0.305 N 
ATOM     12  C   UNL     1      34.026 -15.654 -22.445  0.00  0.00    +0.079 A 
ATOM     13  C   UNL     1      34.134 -17.470 -23.851  0.00  0.00    +0.328 A 
ATOM     14  C   UNL     1      33.842 -15.199 -23.749  0.00  0.00    +0.077 A 
ATOM     15  C   UNL     1      34.014 -14.788 -21.371  0.00  0.00    +0.020 C 
ATOM     16  C   UNL     1      33.638 -13.870 -24.045  0.00  0.00    +0.030 C 
ATOM     17  C   UNL     1      33.807 -13.433 -21.646  0.00  0.00    +0.013 C 
ATOM     18  C   UNL     1      33.622 -12.979 -22.969  0.00  0.00    +0.059 C 
ATOM     19  H   UNL     1      33.807 -16.252 -25.594  0.00  0.00    +0.170 HD
ENDBRANCH   2  10
BRANCH   1  20
ATOM     20  C   UNL     1      35.324 -21.434 -19.110  0.00  0.00    -0.075 C 
BRANCH  20  21
ATOM     21  C   UNL     1      34.133 -21.518 -18.151  0.00  0.00    +0.002 C 
BRANCH  21  22
ATOM     22  C   UNL     1      33.705 -22.941 -17.798  0.00  0.00    +0.108 C 
BRANCH  22  24
ATOM     23  O   UNL     1      35.584 -23.683 -15.555  0.00  0.00    -0.247 OA
ATOM     24  N   UNL     1      33.435 -23.104 -16.396  0.00  0.00    -0.280 N 
ATOM     25  N   UNL     1      33.675 -23.502 -14.171  0.00  0.00    -0.305 N 
ATOM     26  C   UNL     1      32.183 -22.940 -15.779  0.00  0.00    +0.079 A 
ATOM     27  C   UNL     1      34.391 -23.459 -15.400  0.00  0.00    +0.328 A 
ATOM     28  C   UNL     1      32.338 -23.186 -14.416  0.00  0.00    +0.076 A 
ATOM     29  C   UNL     1      30.958 -22.601 -16.315  0.00  0.00    +0.019 C 
ATOM     30  C   UNL     1      31.290 -23.106 -13.527  0.00  0.00    +0.019 C 
ATOM     31  C   UNL     1      29.877 -22.514 -15.432  0.00  0.00    +0.002 C 
ATOM     32  C   UNL     1      30.041 -22.763 -14.053  0.00  0.00    +0.002 C 
ATOM     33  H   UNL     1      34.060 -23.721 -13.291  0.00  0.00    +0.170 HD
ENDBRANCH  22  24
ENDBRANCH  21  22
ENDBRANCH  20  21
ENDBRANCH   1  20
TORSDOF 5
ENDMDL
MODEL 7
REMARK VINA RESULT:     -13.2      1.853      2.566
REMARK  Name = 3151
REMARK  5 active torsions:
REMARK  status: ('A' for Active; 'I' for Inactive)
REMARK    1  A    between atoms: N_1  and  C_20
REMARK    2  A    between atoms: C_2  and  N_10
REMARK    3  A    between atoms: C_20  and  C_21
REMARK    4  A    between atoms: C_21  and  C_22
REMARK    5  A    between atoms: C_22  and  N_24
REMARK                            x       y       z     vdW  Elec       q    Type
REMARK                         _______ _______ _______ _____ _____    ______ ____
ROOT
ATOM      1  N   UNL     1      34.716 -19.810 -20.126  0.00  0.00    +0.387 N 
ATOM      2  C   UNL     1      33.713 -21.949 -18.401  0.00  0.00    +0.086 C 
ATOM      3  C   UNL     1      32.789 -20.903 -19.024  0.00  0.00    -0.000 C 
ATOM      4  C   UNL     1      35.130 -21.392 -18.270  0.00  0.00    -0.000 C 
ATOM      5  C   UNL     1      33.368 -20.359 -20.331  0.00  0.00    -0.075 C 
ATOM      6  C   UNL     1      35.632 -20.833 -19.603  0.00  0.00    -0.075 C 
ATOM      7  H   UNL     1      34.650 -19.064 -19.435  0.00  0.00    -0.080 HD
ENDROOT
BRANCH   2  10
ATOM      8 CL   UNL     1      35.724 -24.033 -12.101  0.00  0.00    -0.082 Cl
ATOM      9  O   UNL     1      30.852 -22.311 -17.444  0.00  0.00    -0.247 OA
ATOM     10  N   UNL     1      33.206 -22.385 -17.123  0.00  0.00    -0.282 N 
ATOM     11  N   UNL     1      31.850 -22.979 -15.407  0.00  0.00    -0.305 N 
ATOM     12  C   UNL     1      34.014 -22.739 -16.034  0.00  0.00    +0.079 A 
ATOM     13  C   UNL     1      31.841 -22.526 -16.757  0.00  0.00    +0.328 A 
ATOM     14  C   UNL     1      33.174 -23.103 -14.983  0.00  0.00    +0.077 A 
ATOM     15  C   UNL     1      35.387 -22.763 -15.901  0.00  0.00    +0.020 C 
ATOM     16  C   UNL     1      33.656 -23.506 -13.758  0.00  0.00    +0.030 C 
ATOM     17  C   UNL     1      35.901 -23.170 -14.666  0.00  0.00    +0.013 C 
ATOM     18  C   UNL     1      35.045 -23.538 -13.607  0.00  0.00    +0.059 C 
ATOM     19  H   UNL     1      31.054 -23.172 -14.862  0.00  0.00    +0.170 HD
ENDBRANCH   2  10
BRANCH   1  20
ATOM     20  C   UNL     1      35.235 -19.250 -21.375  0.00  0.00    -0.075 C 
BRANCH  20  21
ATOM     21  C   UNL     1      34.166 -18.461 -22.135  0.00  0.00    +0.002 C 
BRANCH  21  22
ATOM     22  C   UNL     1      34.717 -17.359 -23.038  0.00  0.00    +0.108 C 
BRANCH  22  24
ATOM     23  O   UNL     1      34.597 -16.073 -20.310  0.00  0.00    -0.247 OA
ATOM     24  N   UNL     1      34.247 -16.053 -22.664  0.00  0.00    -0.280 N 
ATOM     25  N   UNL     1      33.685 -14.214 -21.453  0.00  0.00    -0.305 N 
ATOM     26  C   UNL     1      33.732 -15.085 -23.542  0.00  0.00    +0.079 A 
ATOM     27  C   UNL     1      34.227 -15.525 -21.340  0.00  0.00    +0.328 A 
ATOM     28  C   UNL     1      33.389 -13.961 -22.793  0.00  0.00    +0.076 A 
ATOM     29  C   UNL     1      33.549 -15.124 -24.909  0.00  0.00    +0.019 C 
ATOM     30  C   UNL     1      32.853 -12.829 -23.363  0.00  0.00    +0.019 C 
ATOM     31  C   UNL     1      33.005 -13.985 -25.511  0.00  0.00    +0.002 C 
ATOM     32  C   UNL     1      32.661 -12.849 -24.747  0.00  0.00    +0.002 C 
ATOM     33  H   UNL     1      33.541 -13.587 -20.706  0.00  0.00    +0.170 HD
ENDBRANCH  22  24
ENDBRANCH  21  22
ENDBRANCH  20  21
ENDBRANCH   1  20
TORSDOF 5
ENDMDL
MODEL 8
REMARK VINA RESULT:     -13.2      3.277      9.847
REMARK  Name = 3151
REMARK  5 active torsions:
REMARK  status: ('A' for Active; 'I' for Inactive)
REMARK    1  A    between atoms: N_1  and  C_20
REMARK    2  A    between atoms: C_2  and  N_10
REMARK    3  A    between atoms: C_20  and  C_21
REMARK    4  A    between atoms: C_21  and  C_22
REMARK    5  A    between atoms: C_22  and  N_24
REMARK                            x       y       z     vdW  Elec       q    Type
REMARK                         _______ _______ _______ _____ _____    ______ ____
ROOT
ATOM      1  N   UNL     1      34.478 -18.720 -21.356  0.00  0.00    +0.387 N 
ATOM      2  C   UNL     1      34.390 -16.205 -22.847  0.00  0.00    +0.086 C 
ATOM      3  C   UNL     1      34.465 -16.246 -21.321  0.00  0.00    -0.000 C 
ATOM      4  C   UNL     1      33.762 -17.493 -23.380  0.00  0.00    -0.000 C 
ATOM      5  C   UNL     1      35.153 -17.523 -20.834  0.00  0.00    -0.075 C 
ATOM      6  C   UNL     1      34.473 -18.728 -22.825  0.00  0.00    -0.075 C 
ATOM      7  H   UNL     1      33.510 -18.700 -21.038  0.00  0.00    -0.080 HD
ENDROOT
BRANCH   2  10
ATOM      8 CL   UNL     1      31.151 -10.519 -20.555  0.00  0.00    -0.082 Cl
ATOM      9  O   UNL     1      33.634 -15.323 -25.655  0.00  0.00    -0.247 OA
ATOM     10  N   UNL     1      33.657 -15.047 -23.294  0.00  0.00    -0.282 N 
ATOM     11  N   UNL     1      32.616 -13.486 -24.567  0.00  0.00    -0.305 N 
ATOM     12  C   UNL     1      33.135 -14.066 -22.439  0.00  0.00    +0.079 A 
ATOM     13  C   UNL     1      33.346 -14.707 -24.638  0.00  0.00    +0.328 A 
ATOM     14  C   UNL     1      32.497 -13.111 -23.228  0.00  0.00    +0.077 A 
ATOM     15  C   UNL     1      33.178 -13.954 -21.065  0.00  0.00    +0.020 C 
ATOM     16  C   UNL     1      31.875 -12.006 -22.692  0.00  0.00    +0.030 C 
ATOM     17  C   UNL     1      32.552 -12.840 -20.496  0.00  0.00    +0.013 C 
ATOM     18  C   UNL     1      31.909 -11.877 -21.301  0.00  0.00    +0.059 C 
ATOM     19  H   UNL     1      32.256 -12.989 -25.336  0.00  0.00    +0.170 HD
ENDBRANCH   2  10
BRANCH   1  20
ATOM     20  C   UNL     1      35.117 -19.932 -20.841  0.00  0.00    -0.075 C 
BRANCH  20  21
ATOM     21  C   UNL     1      34.477 -20.403 -19.531  0.00  0.00    +0.002 C 
BRANCH  21  22
ATOM     22  C   UNL     1      34.864 -21.820 -19.113  0.00  0.00    +0.108 C 
BRANCH  22  24
ATOM     23  O   UNL     1      37.034 -21.612 -17.024  0.00  0.00    -0.247 OA
ATOM     24  N   UNL     1      34.786 -22.015 -17.691  0.00  0.00    -0.280 N 
ATOM     25  N   UNL     1      35.326 -22.175 -15.489  0.00  0.00    -0.305 N 
ATOM     26  C   UNL     1      33.627 -22.357 -16.974  0.00  0.00    +0.079 A 
ATOM     27  C   UNL     1      35.871 -21.896 -16.774  0.00  0.00    +0.328 A 
ATOM     28  C   UNL     1      33.965 -22.453 -15.626  0.00  0.00    +0.076 A 
ATOM     29  C   UNL     1      32.337 -22.581 -17.411  0.00  0.00    +0.019 C 
ATOM     30  C   UNL     1      33.045 -22.775 -14.654  0.00  0.00    +0.019 C 
ATOM     31  C   UNL     1      31.384 -22.910 -16.442  0.00  0.00    +0.002 C 
ATOM     32  C   UNL     1      31.733 -23.005 -15.078  0.00  0.00    +0.002 C 
ATOM     33  H   UNL     1      35.828 -22.174 -14.641  0.00  0.00    +0.170 HD
ENDBRANCH  22  24
ENDBRANCH  21  22
ENDBRANCH  20  21
ENDBRANCH   1  20
TORSDOF 5
ENDMDL
MODEL 9
REMARK VINA RESULT:     -13.1      2.555      3.535
REMARK  Name = 3151
REMARK  5 active torsions:
REMARK  status: ('A' for Active; 'I' for Inactive)
REMARK    1  A    between atoms: N_1  and  C_20
REMARK    2  A    between atoms: C_2  and  N_10
REMARK    3  A    between atoms: C_20  and  C_21
REMARK    4  A    between atoms: C_21  and  C_22
REMARK    5  A    between atoms: C_22  and  N_24
REMARK                            x       y       z     vdW  Elec       q    Type
REMARK                         _______ _______ _______ _____ _____    ______ ____
ROOT
ATOM      1  N   UNL     1      34.060 -19.899 -20.190  0.00  0.00    +0.387 N 
ATOM      2  C   UNL     1      34.090 -22.040 -18.197  0.00  0.00    +0.086 C 
ATOM      3  C   UNL     1      32.831 -21.230 -18.505  0.00  0.00    -0.000 C 
ATOM      4  C   UNL     1      35.338 -21.228 -18.543  0.00  0.00    -0.000 C 
ATOM      5  C   UNL     1      32.851 -20.696 -19.938  0.00  0.00    -0.075 C 
ATOM      6  C   UNL     1      35.275 -20.695 -19.975  0.00  0.00    -0.075 C 
ATOM      7  H   UNL     1      34.070 -19.124 -19.528  0.00  0.00    -0.080 HD
ENDROOT
BRANCH   2  10
ATOM      8 CL   UNL     1      29.968 -24.092 -13.014  0.00  0.00    -0.082 Cl
ATOM      9  O   UNL     1      36.419 -22.355 -16.271  0.00  0.00    -0.247 OA
ATOM     10  N   UNL     1      34.107 -22.457 -16.817  0.00  0.00    -0.282 N 
ATOM     11  N   UNL     1      34.761 -23.018 -14.721  0.00  0.00    -0.305 N 
ATOM     12  C   UNL     1      32.966 -22.811 -16.086  0.00  0.00    +0.079 A 
ATOM     13  C   UNL     1      35.252 -22.578 -15.983  0.00  0.00    +0.328 A 
ATOM     14  C   UNL     1      33.375 -23.155 -14.799  0.00  0.00    +0.077 A 
ATOM     15  C   UNL     1      31.637 -22.854 -16.455  0.00  0.00    +0.020 C 
ATOM     16  C   UNL     1      32.488 -23.554 -13.824  0.00  0.00    +0.030 C 
ATOM     17  C   UNL     1      30.717 -23.255 -15.482  0.00  0.00    +0.013 C 
ATOM     18  C   UNL     1      31.138 -23.602 -14.181  0.00  0.00    +0.059 C 
ATOM     19  H   UNL     1      35.311 -23.197 -13.924  0.00  0.00    +0.170 HD
ENDBRANCH   2  10
BRANCH   1  20
ATOM     20  C   UNL     1      34.039 -19.355 -21.549  0.00  0.00    -0.075 C 
BRANCH  20  21
ATOM     21  C   UNL     1      34.861 -18.068 -21.662  0.00  0.00    +0.002 C 
BRANCH  21  22
ATOM     22  C   UNL     1      34.573 -17.243 -22.915  0.00  0.00    +0.108 C 
BRANCH  22  24
ATOM     23  O   UNL     1      34.480 -15.825 -20.251  0.00  0.00    -0.247 OA
ATOM     24  N   UNL     1      34.153 -15.903 -22.607  0.00  0.00    -0.280 N 
ATOM     25  N   UNL     1      33.654 -13.988 -21.489  0.00  0.00    -0.305 N 
ATOM     26  C   UNL     1      33.684 -14.958 -23.535  0.00  0.00    +0.079 A 
ATOM     27  C   UNL     1      34.142 -15.312 -21.309  0.00  0.00    +0.328 A 
ATOM     28  C   UNL     1      33.380 -13.787 -22.843  0.00  0.00    +0.076 A 
ATOM     29  C   UNL     1      33.513 -15.053 -24.901  0.00  0.00    +0.019 C 
ATOM     30  C   UNL     1      32.895 -12.662 -23.471  0.00  0.00    +0.019 C 
ATOM     31  C   UNL     1      33.020 -13.923 -25.562  0.00  0.00    +0.002 C 
ATOM     32  C   UNL     1      32.716 -12.740 -24.855  0.00  0.00    +0.002 C 
ATOM     33  H   UNL     1      33.528 -13.321 -20.775  0.00  0.00    +0.170 HD
ENDBRANCH  22  24
ENDBRANCH  21  22
ENDBRANCH  20  21
ENDBRANCH   1  20
TORSDOF 5
ENDMDL
