MODEL 1
REMARK VINA RESULT:     -11.9      0.000      0.000
REMARK  Name = 25134248
REMARK  7 active torsions:
REMARK  status: ('A' for Active; 'I' for Inactive)
REMARK    1  A    between atoms: N_2  and  C_20
REMARK    2  A    between atoms: C_3  and  C_7
REMARK    3  A    between atoms: C_11  and  C_12
REMARK    4  A    between atoms: C_12  and  C_13
REMARK    5  A    between atoms: C_13  and  C_14
REMARK    6  A    between atoms: C_20  and  C_21
REMARK    7  A    between atoms: C_26  and  C_29
REMARK                            x       y       z     vdW  Elec       q    Type
REMARK                         _______ _______ _______ _____ _____    ______ ____
ROOT
ATOM      1  O   UNL     1      35.216 -23.198 -13.039  0.00  0.00    -0.273 OA
ATOM      2  N   UNL     1      33.529 -24.493 -13.985  0.00  0.00    -0.299 N 
ATOM      3  C   UNL     1      34.826 -24.027 -13.857  0.00  0.00    +0.241 C 
ATOM      4  H   UNL     1      33.338 -25.161 -14.683  0.00  0.00    +0.150 HD
ENDROOT
BRANCH   3   7
ATOM      5  O   UNL     1      38.292 -22.155 -15.710  0.00  0.00    -0.275 OA
ATOM      6  N   UNL     1      36.982 -23.873 -14.889  0.00  0.00    -0.273 N 
ATOM      7  C   UNL     1      35.760 -24.671 -14.837  0.00  0.00    +0.152 C 
ATOM      8  C   UNL     1      36.217 -26.035 -14.329  0.00  0.00    +0.031 C 
ATOM      9  C   UNL     1      38.076 -24.542 -14.198  0.00  0.00    +0.094 C 
ATOM     10  C   UNL     1      37.427 -25.703 -13.460  0.00  0.00    +0.024 C 
ATOM     11  C   UNL     1      37.194 -22.705 -15.605  0.00  0.00    +0.226 C 
BRANCH  11  12
ATOM     12  C   UNL     1      35.983 -22.109 -16.276  0.00  0.00    +0.085 C 
BRANCH  12  13
ATOM     13  C   UNL     1      36.376 -21.438 -17.582  0.00  0.00    +0.010 C 
BRANCH  13  14
ATOM     14  C   UNL     1      35.270 -21.495 -18.634  0.00  0.00    +0.000 C 
ATOM     15  C   UNL     1      33.898 -21.663 -17.970  0.00  0.00    +0.000 C 
ATOM     16  C   UNL     1      35.299 -20.241 -19.519  0.00  0.00    +0.000 C 
ATOM     17  C   UNL     1      32.770 -21.669 -18.999  0.00  0.00    +0.000 C 
ATOM     18  C   UNL     1      34.170 -20.250 -20.546  0.00  0.00    +0.000 C 
ATOM     19  C   UNL     1      32.807 -20.427 -19.882  0.00  0.00    +0.000 C 
ENDBRANCH  13  14
ENDBRANCH  12  13
ENDBRANCH  11  12
ENDBRANCH   3   7
BRANCH   2  20
ATOM     20  C   UNL     1      32.442 -24.048 -13.143  0.00  0.00    +0.116 C 
BRANCH  20  21
ATOM     21  C   UNL     1      31.188 -23.798 -13.930  0.00  0.00    -0.003 C 
ATOM     22  C   UNL     1      31.119 -22.714 -14.805  0.00  0.00    -0.003 C 
ATOM     23  C   UNL     1      30.093 -24.649 -13.788  0.00  0.00    -0.003 C 
ATOM     24  C   UNL     1      29.955 -22.481 -15.538  0.00  0.00    +0.002 C 
ATOM     25  C   UNL     1      28.929 -24.417 -14.520  0.00  0.00    +0.002 C 
ATOM     26  C   UNL     1      28.860 -23.333 -15.395  0.00  0.00    +0.031 C 
BRANCH  26  29
ATOM     27  N   UNL     1      26.799 -22.026 -15.856  0.00  0.00    -0.343 N 
ATOM     28  N   UNL     1      27.329 -23.890 -17.162  0.00  0.00    -0.285 NA
ATOM     29  C   UNL     1      27.647 -23.091 -16.160  0.00  0.00    +0.117 C 
ATOM     30  H   UNL     1      25.983 -21.881 -16.387  0.00  0.00    +0.144 HD
ATOM     31  H   UNL     1      27.016 -21.422 -15.111  0.00  0.00    +0.144 HD
ATOM     32  H   UNL     1      26.509 -23.728 -17.681  0.00  0.00    +0.188 HD
ENDBRANCH  26  29
ENDBRANCH  20  21
ENDBRANCH   2  20
TORSDOF 7
ENDMDL
MODEL 2
REMARK VINA RESULT:     -11.7      2.882      6.191
REMARK  Name = 25134248
REMARK  7 active torsions:
REMARK  status: ('A' for Active; 'I' for Inactive)
REMARK    1  A    between atoms: N_2  and  C_20
REMARK    2  A    between atoms: C_3  and  C_7
REMARK    3  A    between atoms: C_11  and  C_12
REMARK    4  A    between atoms: C_12  and  C_13
REMARK    5  A    between atoms: C_13  and  C_14
REMARK    6  A    between atoms: C_20  and  C_21
REMARK    7  A    between atoms: C_26  and  C_29
REMARK                            x       y       z     vdW  Elec       q    Type
REMARK                         _______ _______ _______ _____ _____    ______ ____
ROOT
ATOM      1  O   UNL     1      34.946 -24.544 -15.653  0.00  0.00    -0.273 OA
ATOM      2  N   UNL     1      34.242 -22.416 -16.279  0.00  0.00    -0.299 N 
ATOM      3  C   UNL     1      34.848 -23.338 -15.444  0.00  0.00    +0.241 C 
ATOM      4  H   UNL     1      34.225 -21.471 -16.001  0.00  0.00    +0.150 HD
ENDROOT
BRANCH   3   7
ATOM      5  O   UNL     1      34.260 -24.676 -11.343  0.00  0.00    -0.275 OA
ATOM      6  N   UNL     1      35.334 -23.663 -13.121  0.00  0.00    -0.273 N 
ATOM      7  C   UNL     1      35.421 -22.699 -14.214  0.00  0.00    +0.152 C 
ATOM      8  C   UNL     1      36.917 -22.450 -14.385  0.00  0.00    +0.031 C 
ATOM      9  C   UNL     1      36.642 -24.222 -12.809  0.00  0.00    +0.094 C 
ATOM     10  C   UNL     1      37.549 -23.767 -13.942  0.00  0.00    +0.024 C 
ATOM     11  C   UNL     1      34.227 -23.948 -12.337  0.00  0.00    +0.226 C 
BRANCH  11  12
ATOM     12  C   UNL     1      32.930 -23.307 -12.762  0.00  0.00    +0.085 C 
BRANCH  12  13
ATOM     13  C   UNL     1      31.873 -24.368 -13.019  0.00  0.00    +0.010 C 
BRANCH  13  14
ATOM     14  C   UNL     1      31.084 -24.121 -14.303  0.00  0.00    +0.000 C 
ATOM     15  C   UNL     1      29.629 -24.581 -14.143  0.00  0.00    +0.000 C 
ATOM     16  C   UNL     1      31.147 -22.640 -14.702  0.00  0.00    +0.000 C 
ATOM     17  C   UNL     1      28.806 -24.295 -15.396  0.00  0.00    +0.000 C 
ATOM     18  C   UNL     1      30.322 -22.358 -15.954  0.00  0.00    +0.000 C 
ATOM     19  C   UNL     1      28.879 -22.825 -15.794  0.00  0.00    +0.000 C 
ENDBRANCH  13  14
ENDBRANCH  12  13
ENDBRANCH  11  12
ENDBRANCH   3   7
BRANCH   2  20
ATOM     20  C   UNL     1      33.632 -22.773 -17.540  0.00  0.00    +0.116 C 
BRANCH  20  21
ATOM     21  C   UNL     1      33.846 -21.717 -18.586  0.00  0.00    -0.003 C 
ATOM     22  C   UNL     1      35.142 -21.356 -18.957  0.00  0.00    -0.003 C 
ATOM     23  C   UNL     1      32.751 -21.100 -19.190  0.00  0.00    -0.003 C 
ATOM     24  C   UNL     1      35.342 -20.377 -19.929  0.00  0.00    +0.002 C 
ATOM     25  C   UNL     1      32.951 -20.121 -20.163  0.00  0.00    +0.002 C 
ATOM     26  C   UNL     1      34.246 -19.759 -20.533  0.00  0.00    +0.031 C 
BRANCH  26  29
ATOM     27  N   UNL     1      34.957 -17.481 -21.219  0.00  0.00    -0.343 N 
ATOM     28  N   UNL     1      34.163 -18.996 -22.810  0.00  0.00    -0.285 NA
ATOM     29  C   UNL     1      34.455 -18.739 -21.548  0.00  0.00    +0.117 C 
ATOM     30  H   UNL     1      35.091 -16.805 -21.922  0.00  0.00    +0.144 HD
ATOM     31  H   UNL     1      35.177 -17.269 -20.283  0.00  0.00    +0.144 HD
ATOM     32  H   UNL     1      34.304 -18.307 -23.499  0.00  0.00    +0.188 HD
ENDBRANCH  26  29
ENDBRANCH  20  21
ENDBRANCH   2  20
TORSDOF 7
ENDMDL
MODEL 3
REMARK VINA RESULT:     -11.5      0.329      1.008
REMARK  Name = 25134248
REMARK  7 active torsions:
REMARK  status: ('A' for Active; 'I' for Inactive)
REMARK    1  A    between atoms: N_2  and  C_20
REMARK    2  A    between atoms: C_3  and  C_7
REMARK    3  A    between atoms: C_11  and  C_12
REMARK    4  A    between atoms: C_12  and  C_13
REMARK    5  A    between atoms: C_13  and  C_14
REMARK    6  A    between atoms: C_20  and  C_21
REMARK    7  A    between atoms: C_26  and  C_29
REMARK                            x       y       z     vdW  Elec       q    Type
REMARK                         _______ _______ _______ _____ _____    ______ ____
ROOT
ATOM      1  O   UNL     1      35.515 -23.695 -12.734  0.00  0.00    -0.273 OA
ATOM      2  N   UNL     1      33.731 -24.411 -14.045  0.00  0.00    -0.299 N 
ATOM      3  C   UNL     1      35.070 -24.230 -13.745  0.00  0.00    +0.241 C 
ATOM      4  H   UNL     1      33.496 -24.856 -14.892  0.00  0.00    +0.150 HD
ENDROOT
BRANCH   3   7
ATOM      5  O   UNL     1      38.334 -22.132 -15.719  0.00  0.00    -0.275 OA
ATOM      6  N   UNL     1      37.150 -23.938 -14.895  0.00  0.00    -0.273 N 
ATOM      7  C   UNL     1      35.969 -24.792 -14.805  0.00  0.00    +0.152 C 
ATOM      8  C   UNL     1      36.515 -26.153 -14.382  0.00  0.00    +0.031 C 
ATOM      9  C   UNL     1      38.312 -24.584 -14.298  0.00  0.00    +0.094 C 
ATOM     10  C   UNL     1      37.760 -25.800 -13.572  0.00  0.00    +0.024 C 
ATOM     11  C   UNL     1      37.268 -22.735 -15.573  0.00  0.00    +0.226 C 
BRANCH  11  12
ATOM     12  C   UNL     1      35.994 -22.168 -16.146  0.00  0.00    +0.085 C 
BRANCH  12  13
ATOM     13  C   UNL     1      36.200 -21.761 -17.596  0.00  0.00    +0.010 C 
BRANCH  13  14
ATOM     14  C   UNL     1      34.983 -21.057 -18.192  0.00  0.00    +0.000 C 
ATOM     15  C   UNL     1      35.250 -20.652 -19.648  0.00  0.00    +0.000 C 
ATOM     16  C   UNL     1      33.738 -21.949 -18.094  0.00  0.00    +0.000 C 
ATOM     17  C   UNL     1      34.028 -19.994 -20.284  0.00  0.00    +0.000 C 
ATOM     18  C   UNL     1      32.519 -21.288 -18.732  0.00  0.00    +0.000 C 
ATOM     19  C   UNL     1      32.792 -20.879 -20.176  0.00  0.00    +0.000 C 
ENDBRANCH  13  14
ENDBRANCH  12  13
ENDBRANCH  11  12
ENDBRANCH   3   7
BRANCH   2  20
ATOM     20  C   UNL     1      32.661 -23.979 -13.175  0.00  0.00    +0.116 C 
BRANCH  20  21
ATOM     21  C   UNL     1      31.376 -23.772 -13.924  0.00  0.00    -0.003 C 
ATOM     22  C   UNL     1      31.223 -22.658 -14.751  0.00  0.00    -0.003 C 
ATOM     23  C   UNL     1      30.336 -24.692 -13.796  0.00  0.00    -0.003 C 
ATOM     24  C   UNL     1      30.031 -22.465 -15.448  0.00  0.00    +0.002 C 
ATOM     25  C   UNL     1      29.144 -24.500 -14.493  0.00  0.00    +0.002 C 
ATOM     26  C   UNL     1      28.991 -23.387 -15.320  0.00  0.00    +0.031 C 
BRANCH  26  29
ATOM     27  N   UNL     1      26.886 -22.136 -15.735  0.00  0.00    -0.343 N 
ATOM     28  N   UNL     1      27.417 -24.010 -17.026  0.00  0.00    -0.285 NA
ATOM     29  C   UNL     1      27.748 -23.186 -16.048  0.00  0.00    +0.117 C 
ATOM     30  H   UNL     1      26.051 -22.019 -16.241  0.00  0.00    +0.144 HD
ATOM     31  H   UNL     1      27.114 -21.513 -15.007  0.00  0.00    +0.144 HD
ATOM     32  H   UNL     1      26.577 -23.876 -17.520  0.00  0.00    +0.188 HD
ENDBRANCH  26  29
ENDBRANCH  20  21
ENDBRANCH   2  20
TORSDOF 7
ENDMDL
MODEL 4
REMARK VINA RESULT:     -11.4      8.627     12.108
REMARK  Name = 25134248
REMARK  7 active torsions:
REMARK  status: ('A' for Active; 'I' for Inactive)
REMARK    1  A    between atoms: N_2  and  C_20
REMARK    2  A    between atoms: C_3  and  C_7
REMARK    3  A    between atoms: C_11  and  C_12
REMARK    4  A    between atoms: C_12  and  C_13
REMARK    5  A    between atoms: C_13  and  C_14
REMARK    6  A    between atoms: C_20  and  C_21
REMARK    7  A    between atoms: C_26  and  C_29
REMARK                            x       y       z     vdW  Elec       q    Type
REMARK                         _______ _______ _______ _____ _____    ______ ____
ROOT
ATOM      1  O   UNL     1      34.158 -15.268 -20.574  0.00  0.00    -0.273 OA
ATOM      2  N   UNL     1      32.951 -13.846 -21.967  0.00  0.00    -0.299 N 
ATOM      3  C   UNL     1      33.912 -14.801 -21.683  0.00  0.00    +0.241 C 
ATOM      4  H   UNL     1      32.848 -13.548 -22.900  0.00  0.00    +0.150 HD
ENDROOT
BRANCH   3   7
ATOM      5  O   UNL     1      33.865 -18.813 -23.373  0.00  0.00    -0.275 OA
ATOM      6  N   UNL     1      34.051 -16.509 -23.356  0.00  0.00    -0.273 N 
ATOM      7  C   UNL     1      34.645 -15.252 -22.911  0.00  0.00    +0.152 C 
ATOM      8  C   UNL     1      34.403 -14.285 -24.068  0.00  0.00    +0.031 C 
ATOM      9  C   UNL     1      33.234 -16.312 -24.547  0.00  0.00    +0.094 C 
ATOM     10  C   UNL     1      33.113 -14.804 -24.699  0.00  0.00    +0.024 C 
ATOM     11  C   UNL     1      34.300 -17.779 -22.861  0.00  0.00    +0.226 C 
BRANCH  11  12
ATOM     12  C   UNL     1      35.160 -17.852 -21.624  0.00  0.00    +0.085 C 
BRANCH  12  13
ATOM     13  C   UNL     1      35.508 -19.296 -21.305  0.00  0.00    +0.010 C 
BRANCH  13  14
ATOM     14  C   UNL     1      34.762 -19.830 -20.083  0.00  0.00    +0.000 C 
ATOM     15  C   UNL     1      33.303 -20.149 -20.436  0.00  0.00    +0.000 C 
ATOM     16  C   UNL     1      35.469 -21.067 -19.514  0.00  0.00    +0.000 C 
ATOM     17  C   UNL     1      32.550 -20.735 -19.245  0.00  0.00    +0.000 C 
ATOM     18  C   UNL     1      34.713 -21.651 -18.324  0.00  0.00    +0.000 C 
ATOM     19  C   UNL     1      33.261 -21.958 -18.676  0.00  0.00    +0.000 C 
ENDBRANCH  13  14
ENDBRANCH  12  13
ENDBRANCH  11  12
ENDBRANCH   3   7
BRANCH   2  20
ATOM     20  C   UNL     1      32.092 -13.266 -20.960  0.00  0.00    +0.116 C 
BRANCH  20  21
ATOM     21  C   UNL     1      31.827 -11.811 -21.219  0.00  0.00    -0.003 C 
ATOM     22  C   UNL     1      32.064 -11.273 -22.484  0.00  0.00    -0.003 C 
ATOM     23  C   UNL     1      31.342 -10.996 -20.196  0.00  0.00    -0.003 C 
ATOM     24  C   UNL     1      31.817  -9.922 -22.726  0.00  0.00    +0.002 C 
ATOM     25  C   UNL     1      31.096  -9.645 -20.436  0.00  0.00    +0.002 C 
ATOM     26  C   UNL     1      31.333  -9.108 -21.702  0.00  0.00    +0.031 C 
BRANCH  26  29
ATOM     27  N   UNL     1      30.373  -7.281 -23.084  0.00  0.00    -0.343 N 
ATOM     28  N   UNL     1      31.511  -6.787 -21.103  0.00  0.00    -0.285 NA
ATOM     29  C   UNL     1      31.074  -7.699 -21.954  0.00  0.00    +0.117 C 
ATOM     30  H   UNL     1      30.210  -6.323 -23.235  0.00  0.00    +0.144 HD
ATOM     31  H   UNL     1      30.043  -7.945 -23.731  0.00  0.00    +0.144 HD
ATOM     32  H   UNL     1      31.337  -5.833 -21.272  0.00  0.00    +0.188 HD
ENDBRANCH  26  29
ENDBRANCH  20  21
ENDBRANCH   2  20
TORSDOF 7
ENDMDL
MODEL 5
REMARK VINA RESULT:     -11.3      3.672      7.472
REMARK  Name = 25134248
REMARK  7 active torsions:
REMARK  status: ('A' for Active; 'I' for Inactive)
REMARK    1  A    between atoms: N_2  and  C_20
REMARK    2  A    between atoms: C_3  and  C_7
REMARK    3  A    between atoms: C_11  and  C_12
REMARK    4  A    between atoms: C_12  and  C_13
REMARK    5  A    between atoms: C_13  and  C_14
REMARK    6  A    between atoms: C_20  and  C_21
REMARK    7  A    between atoms: C_26  and  C_29
REMARK                            x       y       z     vdW  Elec       q    Type
REMARK                         _______ _______ _______ _____ _____    ______ ____
ROOT
ATOM      1  O   UNL     1      34.173 -22.780 -17.687  0.00  0.00    -0.273 OA
ATOM      2  N   UNL     1      35.797 -21.225 -18.288  0.00  0.00    -0.299 N 
ATOM      3  C   UNL     1      35.045 -21.968 -17.394  0.00  0.00    +0.241 C 
ATOM      4  H   UNL     1      36.470 -20.602 -17.930  0.00  0.00    +0.150 HD
ENDROOT
BRANCH   3   7
ATOM      5  O   UNL     1      34.226 -24.541 -13.980  0.00  0.00    -0.275 OA
ATOM      6  N   UNL     1      35.342 -22.951 -15.230  0.00  0.00    -0.273 N 
ATOM      7  C   UNL     1      35.425 -21.694 -15.969  0.00  0.00    +0.152 C 
ATOM      8  C   UNL     1      36.893 -21.289 -15.871  0.00  0.00    +0.031 C 
ATOM      9  C   UNL     1      36.670 -23.476 -14.939  0.00  0.00    +0.094 C 
ATOM     10  C   UNL     1      37.623 -22.626 -15.764  0.00  0.00    +0.024 C 
ATOM     11  C   UNL     1      34.205 -23.548 -14.709  0.00  0.00    +0.226 C 
BRANCH  11  12
ATOM     12  C   UNL     1      32.891 -22.910 -15.083  0.00  0.00    +0.085 C 
BRANCH  12  13
ATOM     13  C   UNL     1      32.059 -22.643 -13.840  0.00  0.00    +0.010 C 
BRANCH  13  14
ATOM     14  C   UNL     1      30.591 -23.028 -14.015  0.00  0.00    +0.000 C 
ATOM     15  C   UNL     1      30.012 -22.394 -15.287  0.00  0.00    +0.000 C 
ATOM     16  C   UNL     1      30.430 -24.553 -14.043  0.00  0.00    +0.000 C 
ATOM     17  C   UNL     1      28.560 -22.807 -15.512  0.00  0.00    +0.000 C 
ATOM     18  C   UNL     1      28.977 -24.963 -14.270  0.00  0.00    +0.000 C 
ATOM     19  C   UNL     1      28.403 -24.324 -15.531  0.00  0.00    +0.000 C 
ENDBRANCH  13  14
ENDBRANCH  12  13
ENDBRANCH  11  12
ENDBRANCH   3   7
BRANCH   2  20
ATOM     20  C   UNL     1      35.642 -21.322 -19.722  0.00  0.00    +0.116 C 
BRANCH  20  21
ATOM     21  C   UNL     1      35.378 -19.984 -20.350  0.00  0.00    -0.003 C 
ATOM     22  C   UNL     1      36.444 -19.139 -20.663  0.00  0.00    -0.003 C 
ATOM     23  C   UNL     1      34.070 -19.586 -20.622  0.00  0.00    -0.003 C 
ATOM     24  C   UNL     1      36.200 -17.896 -21.248  0.00  0.00    +0.002 C 
ATOM     25  C   UNL     1      33.825 -18.343 -21.206  0.00  0.00    +0.002 C 
ATOM     26  C   UNL     1      34.891 -17.498 -21.519  0.00  0.00    +0.031 C 
BRANCH  26  29
ATOM     27  N   UNL     1      34.766 -16.011 -23.504  0.00  0.00    -0.343 N 
ATOM     28  N   UNL     1      34.279 -15.179 -21.375  0.00  0.00    -0.285 NA
ATOM     29  C   UNL     1      34.637 -16.203 -22.130  0.00  0.00    +0.117 C 
ATOM     30  H   UNL     1      34.589 -15.126 -23.896  0.00  0.00    +0.144 HD
ATOM     31  H   UNL     1      35.034 -16.761 -24.082  0.00  0.00    +0.144 HD
ATOM     32  H   UNL     1      34.106 -14.301 -21.786  0.00  0.00    +0.188 HD
ENDBRANCH  26  29
ENDBRANCH  20  21
ENDBRANCH   2  20
TORSDOF 7
ENDMDL
MODEL 6
REMARK VINA RESULT:     -11.1      3.131      7.179
REMARK  Name = 25134248
REMARK  7 active torsions:
REMARK  status: ('A' for Active; 'I' for Inactive)
REMARK    1  A    between atoms: N_2  and  C_20
REMARK    2  A    between atoms: C_3  and  C_7
REMARK    3  A    between atoms: C_11  and  C_12
REMARK    4  A    between atoms: C_12  and  C_13
REMARK    5  A    between atoms: C_13  and  C_14
REMARK    6  A    between atoms: C_20  and  C_21
REMARK    7  A    between atoms: C_26  and  C_29
REMARK                            x       y       z     vdW  Elec       q    Type
REMARK                         _______ _______ _______ _____ _____    ______ ____
ROOT
ATOM      1  O   UNL     1      33.897 -24.091 -16.651  0.00  0.00    -0.273 OA
ATOM      2  N   UNL     1      33.646 -21.830 -17.143  0.00  0.00    -0.299 N 
ATOM      3  C   UNL     1      33.915 -22.909 -16.319  0.00  0.00    +0.241 C 
ATOM      4  H   UNL     1      33.693 -20.924 -16.760  0.00  0.00    +0.150 HD
ENDROOT
BRANCH   3   7
ATOM      5  O   UNL     1      32.313 -24.585 -12.635  0.00  0.00    -0.275 OA
ATOM      6  N   UNL     1      33.847 -23.538 -14.009  0.00  0.00    -0.273 N 
ATOM      7  C   UNL     1      34.271 -22.484 -14.926  0.00  0.00    +0.152 C 
ATOM      8  C   UNL     1      35.786 -22.415 -14.754  0.00  0.00    +0.031 C 
ATOM      9  C   UNL     1      34.991 -24.294 -13.514  0.00  0.00    +0.094 C 
ATOM     10  C   UNL     1      36.164 -23.843 -14.369  0.00  0.00    +0.024 C 
ATOM     11  C   UNL     1      32.573 -23.758 -13.511  0.00  0.00    +0.226 C 
BRANCH  11  12
ATOM     12  C   UNL     1      31.474 -22.912 -14.103  0.00  0.00    +0.085 C 
BRANCH  12  13
ATOM     13  C   UNL     1      30.175 -23.121 -13.343  0.00  0.00    +0.010 C 
BRANCH  13  14
ATOM     14  C   UNL     1      28.962 -23.236 -14.263  0.00  0.00    +0.000 C 
ATOM     15  C   UNL     1      28.564 -21.859 -14.810  0.00  0.00    +0.000 C 
ATOM     16  C   UNL     1      29.240 -24.219 -15.407  0.00  0.00    +0.000 C 
ATOM     17  C   UNL     1      27.384 -21.955 -15.775  0.00  0.00    +0.000 C 
ATOM     18  C   UNL     1      28.060 -24.312 -16.371  0.00  0.00    +0.000 C 
ATOM     19  C   UNL     1      27.661 -22.940 -16.906  0.00  0.00    +0.000 C 
ENDBRANCH  13  14
ENDBRANCH  12  13
ENDBRANCH  11  12
ENDBRANCH   3   7
BRANCH   2  20
ATOM     20  C   UNL     1      33.300 -21.969 -18.539  0.00  0.00    +0.116 C 
BRANCH  20  21
ATOM     21  C   UNL     1      34.009 -20.961 -19.397  0.00  0.00    -0.003 C 
ATOM     22  C   UNL     1      35.400 -20.860 -19.349  0.00  0.00    -0.003 C 
ATOM     23  C   UNL     1      33.279 -20.127 -20.244  0.00  0.00    -0.003 C 
ATOM     24  C   UNL     1      36.060 -19.925 -20.146  0.00  0.00    +0.002 C 
ATOM     25  C   UNL     1      33.938 -19.191 -21.041  0.00  0.00    +0.002 C 
ATOM     26  C   UNL     1      35.329 -19.091 -20.992  0.00  0.00    +0.031 C 
BRANCH  26  29
ATOM     27  N   UNL     1      35.314 -17.242 -22.650  0.00  0.00    -0.343 N 
ATOM     28  N   UNL     1      37.337 -18.052 -21.808  0.00  0.00    -0.285 NA
ATOM     29  C   UNL     1      36.017 -18.117 -21.824  0.00  0.00    +0.117 C 
ATOM     30  H   UNL     1      35.800 -16.590 -23.204  0.00  0.00    +0.144 HD
ATOM     31  H   UNL     1      34.330 -17.276 -22.678  0.00  0.00    +0.144 HD
ATOM     32  H   UNL     1      37.805 -17.393 -22.370  0.00  0.00    +0.188 HD
ENDBRANCH  26  29
ENDBRANCH  20  21
ENDBRANCH   2  20
TORSDOF 7
ENDMDL
MODEL 7
REMARK VINA RESULT:     -10.4      3.342      7.498
REMARK  Name = 25134248
REMARK  7 active torsions:
REMARK  status: ('A' for Active; 'I' for Inactive)
REMARK    1  A    between atoms: N_2  and  C_20
REMARK    2  A    between atoms: C_3  and  C_7
REMARK    3  A    between atoms: C_11  and  C_12
REMARK    4  A    between atoms: C_12  and  C_13
REMARK    5  A    between atoms: C_13  and  C_14
REMARK    6  A    between atoms: C_20  and  C_21
REMARK    7  A    between atoms: C_26  and  C_29
REMARK                            x       y       z     vdW  Elec       q    Type
REMARK                         _______ _______ _______ _____ _____    ______ ____
ROOT
ATOM      1  O   UNL     1      35.023 -21.649 -15.475  0.00  0.00    -0.273 OA
ATOM      2  N   UNL     1      35.059 -22.075 -17.763  0.00  0.00    -0.299 N 
ATOM      3  C   UNL     1      34.639 -22.275 -16.460  0.00  0.00    +0.241 C 
ATOM      4  H   UNL     1      34.678 -22.643 -18.471  0.00  0.00    +0.150 HD
ENDROOT
BRANCH   3   7
ATOM      5  O   UNL     1      33.088 -23.997 -12.775  0.00  0.00    -0.275 OA
ATOM      6  N   UNL     1      33.081 -23.353 -14.994  0.00  0.00    -0.273 N 
ATOM      7  C   UNL     1      33.609 -23.359 -16.356  0.00  0.00    +0.152 C 
ATOM      8  C   UNL     1      32.402 -23.041 -17.234  0.00  0.00    +0.031 C 
ATOM      9  C   UNL     1      31.739 -22.788 -14.954  0.00  0.00    +0.094 C 
ATOM     10  C   UNL     1      31.524 -22.179 -16.330  0.00  0.00    +0.024 C 
ATOM     11  C   UNL     1      33.653 -23.924 -13.868  0.00  0.00    +0.226 C 
BRANCH  11  12
ATOM     12  C   UNL     1      35.046 -24.474 -14.037  0.00  0.00    +0.085 C 
BRANCH  12  13
ATOM     13  C   UNL     1      35.957 -23.963 -12.933  0.00  0.00    +0.010 C 
BRANCH  13  14
ATOM     14  C   UNL     1      37.434 -24.004 -13.316  0.00  0.00    +0.000 C 
ATOM     15  C   UNL     1      38.034 -25.384 -13.017  0.00  0.00    +0.000 C 
ATOM     16  C   UNL     1      37.622 -23.636 -14.794  0.00  0.00    +0.000 C 
ATOM     17  C   UNL     1      39.499 -25.467 -13.441  0.00  0.00    +0.000 C 
ATOM     18  C   UNL     1      39.086 -23.721 -15.215  0.00  0.00    +0.000 C 
ATOM     19  C   UNL     1      39.682 -25.092 -14.908  0.00  0.00    +0.000 C 
ENDBRANCH  13  14
ENDBRANCH  12  13
ENDBRANCH  11  12
ENDBRANCH   3   7
BRANCH   2  20
ATOM     20  C   UNL     1      36.031 -21.072 -18.135  0.00  0.00    +0.116 C 
BRANCH  20  21
ATOM     21  C   UNL     1      35.600 -20.293 -19.345  0.00  0.00    -0.003 C 
ATOM     22  C   UNL     1      34.310 -20.452 -19.852  0.00  0.00    -0.003 C 
ATOM     23  C   UNL     1      36.487 -19.410 -19.960  0.00  0.00    -0.003 C 
ATOM     24  C   UNL     1      33.908 -19.728 -20.975  0.00  0.00    +0.002 C 
ATOM     25  C   UNL     1      36.086 -18.687 -21.083  0.00  0.00    +0.002 C 
ATOM     26  C   UNL     1      34.796 -18.845 -21.590  0.00  0.00    +0.031 C 
BRANCH  26  29
ATOM     27  N   UNL     1      33.471 -18.620 -23.678  0.00  0.00    -0.343 N 
ATOM     28  N   UNL     1      34.858 -16.878 -22.969  0.00  0.00    -0.285 NA
ATOM     29  C   UNL     1      34.376 -18.090 -22.760  0.00  0.00    +0.117 C 
ATOM     30  H   UNL     1      33.201 -18.091 -24.463  0.00  0.00    +0.144 HD
ATOM     31  H   UNL     1      33.104 -19.523 -23.542  0.00  0.00    +0.144 HD
ATOM     32  H   UNL     1      34.575 -16.365 -23.760  0.00  0.00    +0.188 HD
ENDBRANCH  26  29
ENDBRANCH  20  21
ENDBRANCH   2  20
TORSDOF 7
ENDMDL
MODEL 8
REMARK VINA RESULT:     -10.2      2.377      6.703
REMARK  Name = 25134248
REMARK  7 active torsions:
REMARK  status: ('A' for Active; 'I' for Inactive)
REMARK    1  A    between atoms: N_2  and  C_20
REMARK    2  A    between atoms: C_3  and  C_7
REMARK    3  A    between atoms: C_11  and  C_12
REMARK    4  A    between atoms: C_12  and  C_13
REMARK    5  A    between atoms: C_13  and  C_14
REMARK    6  A    between atoms: C_20  and  C_21
REMARK    7  A    between atoms: C_26  and  C_29
REMARK                            x       y       z     vdW  Elec       q    Type
REMARK                         _______ _______ _______ _____ _____    ______ ____
ROOT
ATOM      1  O   UNL     1      32.453 -24.762 -13.868  0.00  0.00    -0.273 OA
ATOM      2  N   UNL     1      33.693 -23.238 -12.620  0.00  0.00    -0.299 N 
ATOM      3  C   UNL     1      32.712 -23.613 -13.521  0.00  0.00    +0.241 C 
ATOM      4  H   UNL     1      33.806 -22.280 -12.422  0.00  0.00    +0.150 HD
ENDROOT
BRANCH   3   7
ATOM      5  O   UNL     1      31.439 -23.002 -17.639  0.00  0.00    -0.275 OA
ATOM      6  N   UNL     1      31.375 -22.806 -15.338  0.00  0.00    -0.273 N 
ATOM      7  C   UNL     1      31.942 -22.437 -14.043  0.00  0.00    +0.152 C 
ATOM      8  C   UNL     1      30.728 -22.153 -13.162  0.00  0.00    +0.031 C 
ATOM      9  C   UNL     1      29.940 -23.040 -15.234  0.00  0.00    +0.094 C 
ATOM     10  C   UNL     1      29.649 -23.063 -13.742  0.00  0.00    +0.024 C 
ATOM     11  C   UNL     1      32.014 -22.808 -16.567  0.00  0.00    +0.226 C 
BRANCH  11  12
ATOM     12  C   UNL     1      33.500 -22.553 -16.542  0.00  0.00    +0.085 C 
BRANCH  12  13
ATOM     13  C   UNL     1      34.081 -22.657 -17.942  0.00  0.00    +0.010 C 
BRANCH  13  14
ATOM     14  C   UNL     1      34.262 -21.296 -18.612  0.00  0.00    +0.000 C 
ATOM     15  C   UNL     1      35.668 -21.171 -19.212  0.00  0.00    +0.000 C 
ATOM     16  C   UNL     1      33.188 -21.073 -19.686  0.00  0.00    +0.000 C 
ATOM     17  C   UNL     1      35.856 -19.839 -19.935  0.00  0.00    +0.000 C 
ATOM     18  C   UNL     1      33.380 -19.741 -20.407  0.00  0.00    +0.000 C 
ATOM     19  C   UNL     1      34.782 -19.617 -20.994  0.00  0.00    +0.000 C 
ENDBRANCH  13  14
ENDBRANCH  12  13
ENDBRANCH  11  12
ENDBRANCH   3   7
BRANCH   2  20
ATOM     20  C   UNL     1      34.559 -24.185 -11.955  0.00  0.00    +0.116 C 
BRANCH  20  21
ATOM     21  C   UNL     1      35.884 -24.317 -12.649  0.00  0.00    -0.003 C 
ATOM     22  C   UNL     1      36.796 -25.287 -12.231  0.00  0.00    -0.003 C 
ATOM     23  C   UNL     1      36.204 -23.474 -13.712  0.00  0.00    -0.003 C 
ATOM     24  C   UNL     1      38.026 -25.412 -12.875  0.00  0.00    +0.002 C 
ATOM     25  C   UNL     1      37.434 -23.598 -14.357  0.00  0.00    +0.002 C 
ATOM     26  C   UNL     1      38.345 -24.568 -13.939  0.00  0.00    +0.031 C 
BRANCH  26  29
ATOM     27  N   UNL     1      39.809 -25.600 -15.658  0.00  0.00    -0.343 N 
ATOM     28  N   UNL     1      40.651 -23.955 -14.228  0.00  0.00    -0.285 NA
ATOM     29  C   UNL     1      39.628 -24.699 -14.611  0.00  0.00    +0.117 C 
ATOM     30  H   UNL     1      40.686 -25.672 -16.099  0.00  0.00    +0.144 HD
ATOM     31  H   UNL     1      39.060 -26.166 -15.956  0.00  0.00    +0.144 HD
ATOM     32  H   UNL     1      41.520 -24.042 -14.683  0.00  0.00    +0.188 HD
ENDBRANCH  26  29
ENDBRANCH  20  21
ENDBRANCH   2  20
TORSDOF 7
ENDMDL
MODEL 9
REMARK VINA RESULT:     -10.1     13.752     17.091
REMARK  Name = 25134248
REMARK  7 active torsions:
REMARK  status: ('A' for Active; 'I' for Inactive)
REMARK    1  A    between atoms: N_2  and  C_20
REMARK    2  A    between atoms: C_3  and  C_7
REMARK    3  A    between atoms: C_11  and  C_12
REMARK    4  A    between atoms: C_12  and  C_13
REMARK    5  A    between atoms: C_13  and  C_14
REMARK    6  A    between atoms: C_20  and  C_21
REMARK    7  A    between atoms: C_26  and  C_29
REMARK                            x       y       z     vdW  Elec       q    Type
REMARK                         _______ _______ _______ _____ _____    ______ ____
ROOT
ATOM      1  O   UNL     1      30.483  -8.163 -22.880  0.00  0.00    -0.273 OA
ATOM      2  N   UNL     1      31.655  -9.464 -21.346  0.00  0.00    -0.299 N 
ATOM      3  C   UNL     1      31.380  -8.306 -22.053  0.00  0.00    +0.241 C 
ATOM      4  H   UNL     1      32.404  -9.457 -20.707  0.00  0.00    +0.150 HD
ENDROOT
BRANCH   3   7
ATOM      5  O   UNL     1      31.389  -4.315 -23.791  0.00  0.00    -0.275 OA
ATOM      6  N   UNL     1      31.722  -5.939 -22.181  0.00  0.00    -0.273 N 
ATOM      7  C   UNL     1      32.302  -7.184 -21.684  0.00  0.00    +0.152 C 
ATOM      8  C   UNL     1      32.353  -7.003 -20.170  0.00  0.00    +0.031 C 
ATOM      9  C   UNL     1      31.165  -5.149 -21.091  0.00  0.00    +0.094 C 
ATOM     10  C   UNL     1      31.177  -6.073 -19.884  0.00  0.00    +0.024 C 
ATOM     11  C   UNL     1      31.786  -5.437 -23.471  0.00  0.00    +0.226 C 
BRANCH  11  12
ATOM     12  C   UNL     1      32.385  -6.352 -24.510  0.00  0.00    +0.085 C 
BRANCH  12  13
ATOM     13  C   UNL     1      31.990  -5.899 -25.906  0.00  0.00    +0.010 C 
BRANCH  13  14
ATOM     14  C   UNL     1      33.107  -5.143 -26.622  0.00  0.00    +0.000 C 
ATOM     15  C   UNL     1      34.458  -5.399 -25.942  0.00  0.00    +0.000 C 
ATOM     16  C   UNL     1      33.160  -5.531 -28.106  0.00  0.00    +0.000 C 
ATOM     17  C   UNL     1      35.600  -4.695 -26.672  0.00  0.00    +0.000 C 
ATOM     18  C   UNL     1      34.303  -4.826 -28.832  0.00  0.00    +0.000 C 
ATOM     19  C   UNL     1      35.643  -5.076 -28.148  0.00  0.00    +0.000 C 
ENDBRANCH  13  14
ENDBRANCH  12  13
ENDBRANCH  11  12
ENDBRANCH   3   7
BRANCH   2  20
ATOM     20  C   UNL     1      30.895 -10.684 -21.500  0.00  0.00    +0.116 C 
BRANCH  20  21
ATOM     21  C   UNL     1      31.782 -11.892 -21.587  0.00  0.00    -0.003 C 
ATOM     22  C   UNL     1      32.505 -12.143 -22.753  0.00  0.00    -0.003 C 
ATOM     23  C   UNL     1      31.886 -12.761 -20.502  0.00  0.00    -0.003 C 
ATOM     24  C   UNL     1      33.331 -13.265 -22.834  0.00  0.00    +0.002 C 
ATOM     25  C   UNL     1      32.711 -13.883 -20.582  0.00  0.00    +0.002 C 
ATOM     26  C   UNL     1      33.434 -14.134 -21.748  0.00  0.00    +0.031 C 
BRANCH  26  29
ATOM     27  N   UNL     1      34.926 -15.655 -23.025  0.00  0.00    -0.343 N 
ATOM     28  N   UNL     1      34.491 -16.055 -20.764  0.00  0.00    -0.285 NA
ATOM     29  C   UNL     1      34.296 -15.303 -21.833  0.00  0.00    +0.117 C 
ATOM     30  H   UNL     1      35.505 -16.450 -23.060  0.00  0.00    +0.144 HD
ATOM     31  H   UNL     1      34.790 -15.109 -23.833  0.00  0.00    +0.144 HD
ATOM     32  H   UNL     1      35.075 -16.847 -20.819  0.00  0.00    +0.188 HD
ENDBRANCH  26  29
ENDBRANCH  20  21
ENDBRANCH   2  20
TORSDOF 7
ENDMDL
