MODEL 1
REMARK VINA RESULT:      -9.7      0.000      0.000
REMARK  Name = 56949517
REMARK  6 active torsions:
REMARK  status: ('A' for Active; 'I' for Inactive)
REMARK    1  A    between atoms: N_1  and  C_21
REMARK    2  A    between atoms: C_4  and  N_12
REMARK    3  A    between atoms: C_8  and  C_18
REMARK    4  A    between atoms: C_18  and  O_19
REMARK    5  A    between atoms: C_21  and  C_22
REMARK    6  A    between atoms: C_25  and  C_32
REMARK                            x       y       z     vdW  Elec       q    Type
REMARK                         _______ _______ _______ _____ _____    ______ ____
ROOT
ATOM      1  N   UNL     1      35.126 -22.501 -15.578  0.00  0.00    -0.260 N 
ATOM      2  N   UNL     1      35.235 -21.504 -17.562  0.00  0.00    -0.393 NA
ATOM      3  C   UNL     1      33.846 -22.518 -16.067  0.00  0.00    +0.081 C 
ATOM      4  C   UNL     1      31.505 -22.854 -16.338  0.00  0.00    +0.046 C 
ATOM      5  C   UNL     1      33.940 -21.890 -17.306  0.00  0.00    +0.138 C 
ATOM      6  C   UNL     1      32.649 -23.013 -15.547  0.00  0.00    +0.031 C 
ATOM      7  C   UNL     1      35.919 -21.885 -16.507  0.00  0.00    +0.164 C 
ATOM      8  C   UNL     1      32.781 -21.739 -18.086  0.00  0.00    +0.175 C 
ATOM      9  C   UNL     1      31.568 -22.228 -17.585  0.00  0.00    +0.006 C 
ATOM     10  C   UNL     1      37.369 -21.696 -16.301  0.00  0.00    +0.084 C 
ENDROOT
BRANCH   4  12
ATOM     11  O   UNL     1      27.796 -24.058 -14.767  0.00  0.00    -0.350 OA
ATOM     12  N   UNL     1      30.277 -23.331 -15.868  0.00  0.00    -0.303 N 
ATOM     13  C   UNL     1      30.217 -24.077 -14.607  0.00  0.00    +0.123 C 
ATOM     14  C   UNL     1      29.065 -22.574 -16.206  0.00  0.00    +0.123 C 
ATOM     15  C   UNL     1      28.932 -24.896 -14.553  0.00  0.00    +0.164 C 
ATOM     16  C   UNL     1      27.841 -23.473 -16.069  0.00  0.00    +0.164 C 
ENDBRANCH   4  12
BRANCH   8  18
ATOM     17  O   UNL     1      31.874 -20.594 -19.981  0.00  0.00    -0.249 OA
ATOM     18  C   UNL     1      32.836 -21.091 -19.385  0.00  0.00    +0.324 C 
BRANCH  18  19
ATOM     19  O   UNL     1      34.093 -21.078 -19.910  0.00  0.00    -0.480 OA
ATOM     20  H   UNL     1      34.485 -20.267 -20.170  0.00  0.00    +0.295 HD
ENDBRANCH  18  19
ENDBRANCH   8  18
BRANCH   1  21
ATOM     21  C   UNL     1      35.558 -23.039 -14.308  0.00  0.00    +0.124 C 
BRANCH  21  22
ATOM     22  C   UNL     1      36.340 -24.322 -14.437  0.00  0.00    -0.006 C 
ATOM     23  C   UNL     1      37.683 -24.386 -14.066  0.00  0.00    -0.020 C 
ATOM     24  C   UNL     1      35.700 -25.456 -14.937  0.00  0.00    -0.003 C 
ATOM     25  C   UNL     1      38.386 -25.584 -14.195  0.00  0.00    +0.067 C 
ATOM     26  C   UNL     1      38.369 -23.169 -13.529  0.00  0.00    +0.031 C 
ATOM     27  C   UNL     1      36.404 -26.654 -15.067  0.00  0.00    -0.000 C 
ATOM     28  C   UNL     1      37.746 -26.718 -14.695  0.00  0.00    +0.004 C 
BRANCH  25  32
ATOM     29  F   UNL     1      39.990 -26.110 -12.521  0.00  0.00    -0.166 F 
ATOM     30  F   UNL     1      40.545 -26.541 -14.578  0.00  0.00    -0.166 F 
ATOM     31  F   UNL     1      40.490 -24.488 -13.879  0.00  0.00    -0.166 F 
ATOM     32  C   UNL     1      39.826 -25.678 -13.804  0.00  0.00    +0.418 C 
ENDBRANCH  25  32
ENDBRANCH  21  22
ENDBRANCH   1  21
TORSDOF 6
ENDMDL
MODEL 2
REMARK VINA RESULT:      -9.3      4.721      8.083
REMARK  Name = 56949517
REMARK  6 active torsions:
REMARK  status: ('A' for Active; 'I' for Inactive)
REMARK    1  A    between atoms: N_1  and  C_21
REMARK    2  A    between atoms: C_4  and  N_12
REMARK    3  A    between atoms: C_8  and  C_18
REMARK    4  A    between atoms: C_18  and  O_19
REMARK    5  A    between atoms: C_21  and  C_22
REMARK    6  A    between atoms: C_25  and  C_32
REMARK                            x       y       z     vdW  Elec       q    Type
REMARK                         _______ _______ _______ _____ _____    ______ ____
ROOT
ATOM      1  N   UNL     1      33.669 -23.421 -14.237  0.00  0.00    -0.260 N 
ATOM      2  N   UNL     1      33.286 -23.391 -12.048  0.00  0.00    -0.393 NA
ATOM      3  C   UNL     1      34.842 -23.827 -13.654  0.00  0.00    +0.081 C 
ATOM      4  C   UNL     1      37.072 -24.567 -13.277  0.00  0.00    +0.046 C 
ATOM      5  C   UNL     1      34.577 -23.801 -12.288  0.00  0.00    +0.138 C 
ATOM      6  C   UNL     1      36.074 -24.204 -14.189  0.00  0.00    +0.031 C 
ATOM      7  C   UNL     1      32.770 -23.174 -13.236  0.00  0.00    +0.164 C 
ATOM      8  C   UNL     1      35.591 -24.168 -11.387  0.00  0.00    +0.175 C 
ATOM      9  C   UNL     1      36.837 -24.550 -11.901  0.00  0.00    +0.006 C 
ATOM     10  C   UNL     1      31.394 -22.716 -13.512  0.00  0.00    +0.084 C 
ENDROOT
BRANCH   4  12
ATOM     11  O   UNL     1      40.730 -25.771 -14.964  0.00  0.00    -0.350 OA
ATOM     12  N   UNL     1      38.329 -24.953 -13.756  0.00  0.00    -0.303 N 
ATOM     13  C   UNL     1      38.694 -26.373 -13.790  0.00  0.00    +0.123 C 
ATOM     14  C   UNL     1      38.965 -24.118 -14.784  0.00  0.00    +0.123 C 
ATOM     15  C   UNL     1      40.211 -26.513 -13.861  0.00  0.00    +0.164 C 
ATOM     16  C   UNL     1      40.467 -24.378 -14.801  0.00  0.00    +0.164 C 
ENDBRANCH   4  12
BRANCH   8  18
ATOM     17  O   UNL     1      34.568 -24.890  -9.349  0.00  0.00    -0.249 OA
ATOM     18  C   UNL     1      35.355 -24.155  -9.954  0.00  0.00    +0.324 C 
BRANCH  18  19
ATOM     19  O   UNL     1      36.110 -23.222  -9.309  0.00  0.00    -0.480 OA
ATOM     20  H   UNL     1      36.557 -22.559  -9.799  0.00  0.00    +0.295 HD
ENDBRANCH  18  19
ENDBRANCH   8  18
BRANCH   1  21
ATOM     21  C   UNL     1      33.429 -23.283 -15.656  0.00  0.00    +0.124 C 
BRANCH  21  22
ATOM     22  C   UNL     1      34.461 -22.436 -16.357  0.00  0.00    -0.006 C 
ATOM     23  C   UNL     1      34.272 -22.015 -17.673  0.00  0.00    -0.020 C 
ATOM     24  C   UNL     1      35.619 -22.073 -15.668  0.00  0.00    -0.003 C 
ATOM     25  C   UNL     1      35.241 -21.232 -18.301  0.00  0.00    +0.067 C 
ATOM     26  C   UNL     1      33.030 -22.404 -18.412  0.00  0.00    +0.031 C 
ATOM     27  C   UNL     1      36.587 -21.290 -16.296  0.00  0.00    -0.000 C 
ATOM     28  C   UNL     1      36.398 -20.869 -17.612  0.00  0.00    +0.004 C 
BRANCH  25  32
ATOM     29  F   UNL     1      35.014 -21.802 -20.598  0.00  0.00    -0.166 F 
ATOM     30  F   UNL     1      33.913 -20.058 -19.909  0.00  0.00    -0.166 F 
ATOM     31  F   UNL     1      36.067 -19.954 -20.147  0.00  0.00    -0.166 F 
ATOM     32  C   UNL     1      35.062 -20.768 -19.710  0.00  0.00    +0.418 C 
ENDBRANCH  25  32
ENDBRANCH  21  22
ENDBRANCH   1  21
TORSDOF 6
ENDMDL
MODEL 3
REMARK VINA RESULT:      -9.3      4.508      7.516
REMARK  Name = 56949517
REMARK  6 active torsions:
REMARK  status: ('A' for Active; 'I' for Inactive)
REMARK    1  A    between atoms: N_1  and  C_21
REMARK    2  A    between atoms: C_4  and  N_12
REMARK    3  A    between atoms: C_8  and  C_18
REMARK    4  A    between atoms: C_18  and  O_19
REMARK    5  A    between atoms: C_21  and  C_22
REMARK    6  A    between atoms: C_25  and  C_32
REMARK                            x       y       z     vdW  Elec       q    Type
REMARK                         _______ _______ _______ _____ _____    ______ ____
ROOT
ATOM      1  N   UNL     1      32.502 -22.890 -16.802  0.00  0.00    -0.260 N 
ATOM      2  N   UNL     1      31.025 -22.375 -15.223  0.00  0.00    -0.393 NA
ATOM      3  C   UNL     1      33.072 -23.292 -15.622  0.00  0.00    +0.081 C 
ATOM      4  C   UNL     1      34.553 -24.174 -13.980  0.00  0.00    +0.046 C 
ATOM      5  C   UNL     1      32.130 -22.960 -14.652  0.00  0.00    +0.138 C 
ATOM      6  C   UNL     1      34.294 -23.900 -15.328  0.00  0.00    +0.031 C 
ATOM      7  C   UNL     1      31.280 -22.350 -16.512  0.00  0.00    +0.164 C 
ATOM      8  C   UNL     1      32.407 -23.243 -13.304  0.00  0.00    +0.175 C 
ATOM      9  C   UNL     1      33.628 -23.852 -12.985  0.00  0.00    +0.006 C 
ATOM     10  C   UNL     1      30.389 -21.813 -17.561  0.00  0.00    +0.084 C 
ENDROOT
BRANCH   4  12
ATOM     11  O   UNL     1      38.286 -25.746 -12.856  0.00  0.00    -0.350 OA
ATOM     12  N   UNL     1      35.762 -24.781 -13.626  0.00  0.00    -0.303 N 
ATOM     13  C   UNL     1      36.855 -24.857 -14.601  0.00  0.00    +0.123 C 
ATOM     14  C   UNL     1      36.181 -24.723 -12.220  0.00  0.00    +0.123 C 
ATOM     15  C   UNL     1      37.835 -25.952 -14.193  0.00  0.00    +0.164 C 
ATOM     16  C   UNL     1      37.195 -25.826 -11.938  0.00  0.00    +0.164 C 
ENDBRANCH   4  12
BRANCH   8  18
ATOM     17  O   UNL     1      30.310 -23.378 -12.160  0.00  0.00    -0.249 OA
ATOM     18  C   UNL     1      31.451 -22.914 -12.261  0.00  0.00    +0.324 C 
BRANCH  18  19
ATOM     19  O   UNL     1      31.943 -22.010 -11.368  0.00  0.00    -0.480 OA
ATOM     20  H   UNL     1      32.305 -21.200 -11.671  0.00  0.00    +0.295 HD
ENDBRANCH  18  19
ENDBRANCH   8  18
BRANCH   1  21
ATOM     21  C   UNL     1      33.091 -23.019 -18.116  0.00  0.00    +0.124 C 
BRANCH  21  22
ATOM     22  C   UNL     1      34.171 -22.002 -18.389  0.00  0.00    -0.006 C 
ATOM     23  C   UNL     1      34.038 -21.070 -19.417  0.00  0.00    -0.020 C 
ATOM     24  C   UNL     1      35.318 -22.005 -17.594  0.00  0.00    -0.003 C 
ATOM     25  C   UNL     1      35.051 -20.139 -19.651  0.00  0.00    +0.067 C 
ATOM     26  C   UNL     1      32.808 -21.067 -20.270  0.00  0.00    +0.031 C 
ATOM     27  C   UNL     1      36.330 -21.074 -17.828  0.00  0.00    -0.000 C 
ATOM     28  C   UNL     1      36.197 -20.142 -18.856  0.00  0.00    +0.004 C 
BRANCH  25  32
ATOM     29  F   UNL     1      36.052 -18.362 -20.872  0.00  0.00    -0.166 F 
ATOM     30  F   UNL     1      34.723 -19.681 -21.976  0.00  0.00    -0.166 F 
ATOM     31  F   UNL     1      33.902 -18.251 -20.567  0.00  0.00    -0.166 F 
ATOM     32  C   UNL     1      34.932 -19.129 -20.746  0.00  0.00    +0.418 C 
ENDBRANCH  25  32
ENDBRANCH  21  22
ENDBRANCH   1  21
TORSDOF 6
ENDMDL
MODEL 4
REMARK VINA RESULT:      -8.9     13.506     16.864
REMARK  Name = 56949517
REMARK  6 active torsions:
REMARK  status: ('A' for Active; 'I' for Inactive)
REMARK    1  A    between atoms: N_1  and  C_21
REMARK    2  A    between atoms: C_4  and  N_12
REMARK    3  A    between atoms: C_8  and  C_18
REMARK    4  A    between atoms: C_18  and  O_19
REMARK    5  A    between atoms: C_21  and  C_22
REMARK    6  A    between atoms: C_25  and  C_32
REMARK                            x       y       z     vdW  Elec       q    Type
REMARK                         _______ _______ _______ _____ _____    ______ ____
ROOT
ATOM      1  N   UNL     1      31.869  -9.981 -22.523  0.00  0.00    -0.260 N 
ATOM      2  N   UNL     1      31.443  -8.927 -20.613  0.00  0.00    -0.393 NA
ATOM      3  C   UNL     1      32.198  -8.669 -22.747  0.00  0.00    +0.081 C 
ATOM      4  C   UNL     1      32.920  -6.628 -23.737  0.00  0.00    +0.046 C 
ATOM      5  C   UNL     1      31.923  -8.032 -21.540  0.00  0.00    +0.138 C 
ATOM      6  C   UNL     1      32.697  -8.004 -23.868  0.00  0.00    +0.031 C 
ATOM      7  C   UNL     1      31.425 -10.085 -21.234  0.00  0.00    +0.164 C 
ATOM      8  C   UNL     1      32.154  -6.651 -21.427  0.00  0.00    +0.175 C 
ATOM      9  C   UNL     1      32.654  -5.962 -22.539  0.00  0.00    +0.006 C 
ATOM     10  C   UNL     1      30.985 -11.371 -20.656  0.00  0.00    +0.084 C 
ENDROOT
BRANCH   4  12
ATOM     11  O   UNL     1      34.263  -4.253 -26.935  0.00  0.00    -0.350 OA
ATOM     12  N   UNL     1      33.419  -5.910 -24.829  0.00  0.00    -0.303 N 
ATOM     13  C   UNL     1      32.650  -5.849 -26.077  0.00  0.00    +0.123 C 
ATOM     14  C   UNL     1      34.270  -4.744 -24.560  0.00  0.00    +0.123 C 
ATOM     15  C   UNL     1      33.571  -5.465 -27.231  0.00  0.00    +0.164 C 
ATOM     16  C   UNL     1      35.105  -4.420 -25.794  0.00  0.00    +0.164 C 
ENDBRANCH   4  12
BRANCH   8  18
ATOM     17  O   UNL     1      31.002  -5.095 -20.020  0.00  0.00    -0.249 OA
ATOM     18  C   UNL     1      31.881  -5.949 -20.185  0.00  0.00    +0.324 C 
BRANCH  18  19
ATOM     19  O   UNL     1      32.713  -6.330 -19.175  0.00  0.00    -0.480 OA
ATOM     20  H   UNL     1      32.374  -6.452 -18.309  0.00  0.00    +0.295 HD
ENDBRANCH  18  19
ENDBRANCH   8  18
BRANCH   1  21
ATOM     21  C   UNL     1      31.978 -11.058 -23.481  0.00  0.00    +0.124 C 
BRANCH  21  22
ATOM     22  C   UNL     1      32.711 -12.262 -22.945  0.00  0.00    -0.006 C 
ATOM     23  C   UNL     1      32.971 -13.365 -23.758  0.00  0.00    -0.020 C 
ATOM     24  C   UNL     1      33.131 -12.261 -21.615  0.00  0.00    -0.003 C 
ATOM     25  C   UNL     1      33.651 -14.468 -23.240  0.00  0.00    +0.067 C 
ATOM     26  C   UNL     1      32.521 -13.367 -25.185  0.00  0.00    +0.031 C 
ATOM     27  C   UNL     1      33.811 -13.364 -21.097  0.00  0.00    -0.000 C 
ATOM     28  C   UNL     1      34.071 -14.467 -21.910  0.00  0.00    +0.004 C 
BRANCH  25  32
ATOM     29  F   UNL     1      34.560 -16.660 -23.394  0.00  0.00    -0.166 F 
ATOM     30  F   UNL     1      32.828 -16.229 -24.635  0.00  0.00    -0.166 F 
ATOM     31  F   UNL     1      34.761 -15.391 -25.148  0.00  0.00    -0.166 F 
ATOM     32  C   UNL     1      33.943 -15.663 -24.090  0.00  0.00    +0.418 C 
ENDBRANCH  25  32
ENDBRANCH  21  22
ENDBRANCH   1  21
TORSDOF 6
ENDMDL
MODEL 5
REMARK VINA RESULT:      -8.9      1.511      4.418
REMARK  Name = 56949517
REMARK  6 active torsions:
REMARK  status: ('A' for Active; 'I' for Inactive)
REMARK    1  A    between atoms: N_1  and  C_21
REMARK    2  A    between atoms: C_4  and  N_12
REMARK    3  A    between atoms: C_8  and  C_18
REMARK    4  A    between atoms: C_18  and  O_19
REMARK    5  A    between atoms: C_21  and  C_22
REMARK    6  A    between atoms: C_25  and  C_32
REMARK                            x       y       z     vdW  Elec       q    Type
REMARK                         _______ _______ _______ _____ _____    ______ ____
ROOT
ATOM      1  N   UNL     1      33.769 -23.201 -14.131  0.00  0.00    -0.260 N 
ATOM      2  N   UNL     1      31.590 -23.641 -14.098  0.00  0.00    -0.393 NA
ATOM      3  C   UNL     1      33.287 -22.758 -15.336  0.00  0.00    +0.081 C 
ATOM      4  C   UNL     1      33.089 -21.827 -17.517  0.00  0.00    +0.046 C 
ATOM      5  C   UNL     1      31.925 -23.044 -15.291  0.00  0.00    +0.138 C 
ATOM      6  C   UNL     1      33.907 -22.151 -16.429  0.00  0.00    +0.031 C 
ATOM      7  C   UNL     1      32.717 -23.719 -13.427  0.00  0.00    +0.164 C 
ATOM      8  C   UNL     1      31.119 -22.711 -16.393  0.00  0.00    +0.175 C 
ATOM      9  C   UNL     1      31.719 -22.101 -17.501  0.00  0.00    +0.006 C 
ATOM     10  C   UNL     1      32.882 -24.288 -12.074  0.00  0.00    +0.084 C 
ENDROOT
BRANCH   4  12
ATOM     11  O   UNL     1      34.713 -20.214 -21.044  0.00  0.00    -0.350 OA
ATOM     12  N   UNL     1      33.656 -21.217 -18.641  0.00  0.00    -0.303 N 
ATOM     13  C   UNL     1      35.019 -21.568 -19.054  0.00  0.00    +0.123 C 
ATOM     14  C   UNL     1      32.761 -20.798 -19.728  0.00  0.00    +0.123 C 
ATOM     15  C   UNL     1      35.587 -20.468 -19.945  0.00  0.00    +0.164 C 
ATOM     16  C   UNL     1      33.448 -19.739 -20.582  0.00  0.00    +0.164 C 
ENDBRANCH   4  12
BRANCH   8  18
ATOM     17  O   UNL     1      28.816 -22.262 -16.860  0.00  0.00    -0.249 OA
ATOM     18  C   UNL     1      29.694 -22.992 -16.385  0.00  0.00    +0.324 C 
BRANCH  18  19
ATOM     19  O   UNL     1      29.398 -24.178 -15.784  0.00  0.00    -0.480 OA
ATOM     20  H   UNL     1      29.426 -24.974 -16.278  0.00  0.00    +0.295 HD
ENDBRANCH  18  19
ENDBRANCH   8  18
BRANCH   1  21
ATOM     21  C   UNL     1      35.143 -23.129 -13.688  0.00  0.00    +0.124 C 
BRANCH  21  22
ATOM     22  C   UNL     1      35.980 -24.298 -14.144  0.00  0.00    -0.006 C 
ATOM     23  C   UNL     1      37.368 -24.283 -14.011  0.00  0.00    -0.020 C 
ATOM     24  C   UNL     1      35.345 -25.405 -14.705  0.00  0.00    -0.003 C 
ATOM     25  C   UNL     1      38.122 -25.376 -14.440  0.00  0.00    +0.067 C 
ATOM     26  C   UNL     1      38.050 -23.094 -13.408  0.00  0.00    +0.031 C 
ATOM     27  C   UNL     1      36.098 -26.498 -15.134  0.00  0.00    -0.000 C 
ATOM     28  C   UNL     1      37.486 -26.483 -15.001  0.00  0.00    +0.004 C 
BRANCH  25  32
ATOM     29  F   UNL     1      40.228 -24.713 -15.323  0.00  0.00    -0.166 F 
ATOM     30  F   UNL     1      40.059 -24.807 -13.157  0.00  0.00    -0.166 F 
ATOM     31  F   UNL     1      40.150 -26.638 -14.315  0.00  0.00    -0.166 F 
ATOM     32  C   UNL     1      39.610 -25.385 -14.308  0.00  0.00    +0.418 C 
ENDBRANCH  25  32
ENDBRANCH  21  22
ENDBRANCH   1  21
TORSDOF 6
ENDMDL
MODEL 6
REMARK VINA RESULT:      -8.8      4.417      6.460
REMARK  Name = 56949517
REMARK  6 active torsions:
REMARK  status: ('A' for Active; 'I' for Inactive)
REMARK    1  A    between atoms: N_1  and  C_21
REMARK    2  A    between atoms: C_4  and  N_12
REMARK    3  A    between atoms: C_8  and  C_18
REMARK    4  A    between atoms: C_18  and  O_19
REMARK    5  A    between atoms: C_21  and  C_22
REMARK    6  A    between atoms: C_25  and  C_32
REMARK                            x       y       z     vdW  Elec       q    Type
REMARK                         _______ _______ _______ _____ _____    ______ ____
ROOT
ATOM      1  N   UNL     1      34.133 -22.675 -16.766  0.00  0.00    -0.260 N 
ATOM      2  N   UNL     1      34.574 -22.474 -14.597  0.00  0.00    -0.393 NA
ATOM      3  C   UNL     1      32.915 -22.727 -16.138  0.00  0.00    +0.081 C 
ATOM      4  C   UNL     1      30.586 -22.885 -15.674  0.00  0.00    +0.046 C 
ATOM      5  C   UNL     1      33.217 -22.599 -14.785  0.00  0.00    +0.138 C 
ATOM      6  C   UNL     1      31.615 -22.872 -16.623  0.00  0.00    +0.031 C 
ATOM      7  C   UNL     1      35.092 -22.522 -15.804  0.00  0.00    +0.164 C 
ATOM      8  C   UNL     1      32.172 -22.615 -13.846  0.00  0.00    +0.175 C 
ATOM      9  C   UNL     1      30.858 -22.759 -14.309  0.00  0.00    +0.006 C 
ATOM     10  C   UNL     1      36.529 -22.427 -16.134  0.00  0.00    +0.084 C 
ENDROOT
BRANCH   4  12
ATOM     11  O   UNL     1      26.528 -23.278 -16.696  0.00  0.00    -0.350 OA
ATOM     12  N   UNL     1      29.262 -23.028 -16.102  0.00  0.00    -0.303 N 
ATOM     13  C   UNL     1      28.601 -24.334 -16.008  0.00  0.00    +0.123 C 
ATOM     14  C   UNL     1      28.371 -21.866 -15.997  0.00  0.00    +0.123 C 
ATOM     15  C   UNL     1      27.404 -24.374 -16.953  0.00  0.00    +0.164 C 
ATOM     16  C   UNL     1      27.188 -22.037 -16.943  0.00  0.00    +0.164 C 
ENDBRANCH   4  12
BRANCH   8  18
ATOM     17  O   UNL     1      31.695 -21.954 -11.597  0.00  0.00    -0.249 OA
ATOM     18  C   UNL     1      32.445 -22.483 -12.426  0.00  0.00    +0.324 C 
BRANCH  18  19
ATOM     19  O   UNL     1      33.648 -23.015 -12.073  0.00  0.00    -0.480 OA
ATOM     20  H   UNL     1      33.737 -23.478 -11.262  0.00  0.00    +0.295 HD
ENDBRANCH  18  19
ENDBRANCH   8  18
BRANCH   1  21
ATOM     21  C   UNL     1      34.358 -22.764 -18.191  0.00  0.00    +0.124 C 
BRANCH  21  22
ATOM     22  C   UNL     1      33.849 -21.565 -18.953  0.00  0.00    -0.006 C 
ATOM     23  C   UNL     1      34.727 -20.712 -19.620  0.00  0.00    -0.020 C 
ATOM     24  C   UNL     1      32.477 -21.317 -18.983  0.00  0.00    -0.003 C 
ATOM     25  C   UNL     1      34.233 -19.609 -20.317  0.00  0.00    +0.067 C 
ATOM     26  C   UNL     1      36.199 -20.978 -19.587  0.00  0.00    +0.031 C 
ATOM     27  C   UNL     1      31.983 -20.214 -19.681  0.00  0.00    -0.000 C 
ATOM     28  C   UNL     1      32.861 -19.361 -20.348  0.00  0.00    +0.004 C 
BRANCH  25  32
ATOM     29  F   UNL     1      35.295 -19.005 -22.357  0.00  0.00    -0.166 F 
ATOM     30  F   UNL     1      34.737 -17.380 -21.026  0.00  0.00    -0.166 F 
ATOM     31  F   UNL     1      36.418 -18.657 -20.528  0.00  0.00    -0.166 F 
ATOM     32  C   UNL     1      35.153 -18.679 -21.040  0.00  0.00    +0.418 C 
ENDBRANCH  25  32
ENDBRANCH  21  22
ENDBRANCH   1  21
TORSDOF 6
ENDMDL
MODEL 7
REMARK VINA RESULT:      -8.8      1.999      4.639
REMARK  Name = 56949517
REMARK  6 active torsions:
REMARK  status: ('A' for Active; 'I' for Inactive)
REMARK    1  A    between atoms: N_1  and  C_21
REMARK    2  A    between atoms: C_4  and  N_12
REMARK    3  A    between atoms: C_8  and  C_18
REMARK    4  A    between atoms: C_18  and  O_19
REMARK    5  A    between atoms: C_21  and  C_22
REMARK    6  A    between atoms: C_25  and  C_32
REMARK                            x       y       z     vdW  Elec       q    Type
REMARK                         _______ _______ _______ _____ _____    ______ ____
ROOT
ATOM      1  N   UNL     1      34.911 -23.183 -12.641  0.00  0.00    -0.260 N 
ATOM      2  N   UNL     1      33.096 -24.323 -12.051  0.00  0.00    -0.393 NA
ATOM      3  C   UNL     1      34.075 -23.128 -13.726  0.00  0.00    +0.081 C 
ATOM      4  C   UNL     1      33.126 -22.681 -15.863  0.00  0.00    +0.046 C 
ATOM      5  C   UNL     1      32.949 -23.847 -13.333  0.00  0.00    +0.138 C 
ATOM      6  C   UNL     1      34.202 -22.530 -14.981  0.00  0.00    +0.031 C 
ATOM      7  C   UNL     1      34.282 -23.906 -11.666  0.00  0.00    +0.164 C 
ATOM      8  C   UNL     1      31.878 -23.988 -14.232  0.00  0.00    +0.175 C 
ATOM      9  C   UNL     1      31.984 -23.397 -15.497  0.00  0.00    +0.006 C 
ATOM     10  C   UNL     1      34.905 -24.161 -10.352  0.00  0.00    +0.084 C 
ENDROOT
BRANCH   4  12
ATOM     11  O   UNL     1      33.265 -21.190 -19.792  0.00  0.00    -0.350 OA
ATOM     12  N   UNL     1      33.199 -22.104 -17.135  0.00  0.00    -0.303 N 
ATOM     13  C   UNL     1      34.411 -22.268 -17.944  0.00  0.00    +0.123 C 
ATOM     14  C   UNL     1      31.954 -21.948 -17.898  0.00  0.00    +0.123 C 
ATOM     15  C   UNL     1      34.464 -21.186 -19.018  0.00  0.00    +0.164 C 
ATOM     16  C   UNL     1      32.137 -20.883 -18.973  0.00  0.00    +0.164 C 
ENDBRANCH   4  12
BRANCH   8  18
ATOM     17  O   UNL     1      30.021 -25.446 -14.616  0.00  0.00    -0.249 OA
ATOM     18  C   UNL     1      30.686 -24.729 -13.860  0.00  0.00    +0.324 C 
BRANCH  18  19
ATOM     19  O   UNL     1      30.350 -24.557 -12.551  0.00  0.00    -0.480 OA
ATOM     20  H   UNL     1      29.752 -25.149 -12.138  0.00  0.00    +0.295 HD
ENDBRANCH  18  19
ENDBRANCH   8  18
BRANCH   1  21
ATOM     21  C   UNL     1      36.221 -22.580 -12.548  0.00  0.00    +0.124 C 
BRANCH  21  22
ATOM     22  C   UNL     1      37.154 -23.002 -13.656  0.00  0.00    -0.006 C 
ATOM     23  C   UNL     1      37.956 -24.136 -13.527  0.00  0.00    -0.020 C 
ATOM     24  C   UNL     1      37.206 -22.239 -14.823  0.00  0.00    -0.003 C 
ATOM     25  C   UNL     1      38.811 -24.506 -14.566  0.00  0.00    +0.067 C 
ATOM     26  C   UNL     1      37.900 -24.954 -12.276  0.00  0.00    +0.031 C 
ATOM     27  C   UNL     1      38.061 -22.610 -15.861  0.00  0.00    -0.000 C 
ATOM     28  C   UNL     1      38.863 -23.744 -15.732  0.00  0.00    +0.004 C 
BRANCH  25  32
ATOM     29  F   UNL     1      40.504 -25.870 -15.529  0.00  0.00    -0.166 F 
ATOM     30  F   UNL     1      40.500 -25.699 -13.362  0.00  0.00    -0.166 F 
ATOM     31  F   UNL     1      38.980 -26.884 -14.357  0.00  0.00    -0.166 F 
ATOM     32  C   UNL     1      39.681 -25.717 -14.453  0.00  0.00    +0.418 C 
ENDBRANCH  25  32
ENDBRANCH  21  22
ENDBRANCH   1  21
TORSDOF 6
ENDMDL
MODEL 8
REMARK VINA RESULT:      -8.7     15.664     19.108
REMARK  Name = 56949517
REMARK  6 active torsions:
REMARK  status: ('A' for Active; 'I' for Inactive)
REMARK    1  A    between atoms: N_1  and  C_21
REMARK    2  A    between atoms: C_4  and  N_12
REMARK    3  A    between atoms: C_8  and  C_18
REMARK    4  A    between atoms: C_18  and  O_19
REMARK    5  A    between atoms: C_21  and  C_22
REMARK    6  A    between atoms: C_25  and  C_32
REMARK                            x       y       z     vdW  Elec       q    Type
REMARK                         _______ _______ _______ _____ _____    ______ ____
ROOT
ATOM      1  N   UNL     1      31.308  -6.978 -23.760  0.00  0.00    -0.260 N 
ATOM      2  N   UNL     1      30.843  -6.613 -21.617  0.00  0.00    -0.393 NA
ATOM      3  C   UNL     1      31.546  -8.169 -23.125  0.00  0.00    +0.081 C 
ATOM      4  C   UNL     1      32.119 -10.428 -22.640  0.00  0.00    +0.046 C 
ATOM      5  C   UNL     1      31.249  -7.915 -21.789  0.00  0.00    +0.138 C 
ATOM      6  C   UNL     1      31.983  -9.410 -23.591  0.00  0.00    +0.031 C 
ATOM      7  C   UNL     1      30.889  -6.079 -22.817  0.00  0.00    +0.164 C 
ATOM      8  C   UNL     1      31.390  -8.950 -20.848  0.00  0.00    +0.175 C 
ATOM      9  C   UNL     1      31.828 -10.203 -21.293  0.00  0.00    +0.006 C 
ATOM     10  C   UNL     1      30.543  -4.685 -23.160  0.00  0.00    +0.084 C 
ENDROOT
BRANCH   4  12
ATOM     11  O   UNL     1      33.689 -14.134 -23.853  0.00  0.00    -0.350 OA
ATOM     12  N   UNL     1      32.554 -11.692 -23.050  0.00  0.00    -0.303 N 
ATOM     13  C   UNL     1      32.850 -11.941 -24.464  0.00  0.00    +0.123 C 
ATOM     14  C   UNL     1      33.325 -12.502 -22.097  0.00  0.00    +0.123 C 
ATOM     15  C   UNL     1      32.815 -13.440 -24.742  0.00  0.00    +0.164 C 
ATOM     16  C   UNL     1      33.263 -13.971 -22.500  0.00  0.00    +0.164 C 
ENDBRANCH   4  12
BRANCH   8  18
ATOM     17  O   UNL     1      30.560  -9.545 -18.685  0.00  0.00    -0.249 OA
ATOM     18  C   UNL     1      31.090  -8.727 -19.445  0.00  0.00    +0.324 C 
BRANCH  18  19
ATOM     19  O   UNL     1      31.457  -7.485 -19.023  0.00  0.00    -0.480 OA
ATOM     20  H   UNL     1      30.944  -6.737 -19.262  0.00  0.00    +0.295 HD
ENDBRANCH  18  19
ENDBRANCH   8  18
BRANCH   1  21
ATOM     21  C   UNL     1      31.469  -6.721 -25.173  0.00  0.00    +0.124 C 
BRANCH  21  22
ATOM     22  C   UNL     1      32.726  -5.954 -25.502  0.00  0.00    -0.006 C 
ATOM     23  C   UNL     1      33.075  -5.679 -26.824  0.00  0.00    -0.020 C 
ATOM     24  C   UNL     1      33.543  -5.517 -24.459  0.00  0.00    -0.003 C 
ATOM     25  C   UNL     1      34.242  -4.968 -27.103  0.00  0.00    +0.067 C 
ATOM     26  C   UNL     1      32.198  -6.147 -27.942  0.00  0.00    +0.031 C 
ATOM     27  C   UNL     1      34.710  -4.806 -24.739  0.00  0.00    -0.000 C 
ATOM     28  C   UNL     1      35.060  -4.531 -26.060  0.00  0.00    +0.004 C 
BRANCH  25  32
ATOM     29  F   UNL     1      35.899  -4.145 -28.597  0.00  0.00    -0.166 F 
ATOM     30  F   UNL     1      34.630  -5.751 -29.330  0.00  0.00    -0.166 F 
ATOM     31  F   UNL     1      33.826  -3.747 -29.119  0.00  0.00    -0.166 F 
ATOM     32  C   UNL     1      34.639  -4.660 -28.511  0.00  0.00    +0.418 C 
ENDBRANCH  25  32
ENDBRANCH  21  22
ENDBRANCH   1  21
TORSDOF 6
ENDMDL
MODEL 9
REMARK VINA RESULT:      -8.4      4.698      7.344
REMARK  Name = 56949517
REMARK  6 active torsions:
REMARK  status: ('A' for Active; 'I' for Inactive)
REMARK    1  A    between atoms: N_1  and  C_21
REMARK    2  A    between atoms: C_4  and  N_12
REMARK    3  A    between atoms: C_8  and  C_18
REMARK    4  A    between atoms: C_18  and  O_19
REMARK    5  A    between atoms: C_21  and  C_22
REMARK    6  A    between atoms: C_25  and  C_32
REMARK                            x       y       z     vdW  Elec       q    Type
REMARK                         _______ _______ _______ _____ _____    ______ ____
ROOT
ATOM      1  N   UNL     1      33.904 -23.237 -12.845  0.00  0.00    -0.260 N 
ATOM      2  N   UNL     1      35.959 -24.076 -12.726  0.00  0.00    -0.393 NA
ATOM      3  C   UNL     1      34.456 -23.033 -14.084  0.00  0.00    +0.081 C 
ATOM      4  C   UNL     1      34.818 -22.407 -16.351  0.00  0.00    +0.046 C 
ATOM      5  C   UNL     1      35.738 -23.566 -13.984  0.00  0.00    +0.138 C 
ATOM      6  C   UNL     1      33.958 -22.446 -15.248  0.00  0.00    +0.031 C 
ATOM      7  C   UNL     1      34.840 -23.864 -12.070  0.00  0.00    +0.164 C 
ATOM      8  C   UNL     1      36.588 -23.519 -15.102  0.00  0.00    +0.175 C 
ATOM      9  C   UNL     1      36.111 -22.934 -16.281  0.00  0.00    +0.006 C 
ATOM     10  C   UNL     1      34.576 -24.236 -10.665  0.00  0.00    +0.084 C 
ENDROOT
BRANCH   4  12
ATOM     11  O   UNL     1      33.473 -20.927 -20.049  0.00  0.00    -0.350 OA
ATOM     12  N   UNL     1      34.374 -21.830 -17.545  0.00  0.00    -0.303 N 
ATOM     13  C   UNL     1      35.334 -21.520 -18.609  0.00  0.00    +0.123 C 
ATOM     14  C   UNL     1      33.013 -22.142 -18.001  0.00  0.00    +0.123 C 
ATOM     15  C   UNL     1      34.737 -20.484 -19.556  0.00  0.00    +0.164 C 
ATOM     16  C   UNL     1      32.540 -21.072 -18.979  0.00  0.00    +0.164 C 
ENDBRANCH   4  12
BRANCH   8  18
ATOM     17  O   UNL     1      38.976 -23.402 -15.022  0.00  0.00    -0.249 OA
ATOM     18  C   UNL     1      37.933 -24.064 -15.039  0.00  0.00    +0.324 C 
BRANCH  18  19
ATOM     19  O   UNL     1      37.943 -25.426 -15.000  0.00  0.00    -0.480 OA
ATOM     20  H   UNL     1      37.525 -25.878 -14.293  0.00  0.00    +0.295 HD
ENDBRANCH  18  19
ENDBRANCH   8  18
BRANCH   1  21
ATOM     21  C   UNL     1      32.571 -22.857 -12.437  0.00  0.00    +0.124 C 
BRANCH  21  22
ATOM     22  C   UNL     1      31.486 -23.493 -13.270  0.00  0.00    -0.006 C 
ATOM     23  C   UNL     1      30.577 -22.713 -13.983  0.00  0.00    -0.020 C 
ATOM     24  C   UNL     1      31.402 -24.885 -13.320  0.00  0.00    -0.003 C 
ATOM     25  C   UNL     1      29.582 -23.325 -14.746  0.00  0.00    +0.067 C 
ATOM     26  C   UNL     1      30.667 -21.220 -13.928  0.00  0.00    +0.031 C 
ATOM     27  C   UNL     1      30.407 -25.496 -14.084  0.00  0.00    -0.000 C 
ATOM     28  C   UNL     1      29.498 -24.716 -14.797  0.00  0.00    +0.004 C 
BRANCH  25  32
ATOM     29  F   UNL     1      27.572 -23.265 -16.015  0.00  0.00    -0.166 F 
ATOM     30  F   UNL     1      28.003 -21.527 -14.782  0.00  0.00    -0.166 F 
ATOM     31  F   UNL     1      29.139 -21.874 -16.597  0.00  0.00    -0.166 F 
ATOM     32  C   UNL     1      28.595 -22.511 -15.519  0.00  0.00    +0.418 C 
ENDBRANCH  25  32
ENDBRANCH  21  22
ENDBRANCH   1  21
TORSDOF 6
ENDMDL
