MODEL 1
REMARK VINA RESULT:     -11.4      0.000      0.000
REMARK  Name = 1453694
REMARK  4 active torsions:
REMARK  status: ('A' for Active; 'I' for Inactive)
REMARK    1  A    between atoms: C_3  and  C_12
REMARK    2  A    between atoms: C_8  and  C_19
REMARK    3  A    between atoms: C_13  and  C_15
REMARK    4  A    between atoms: C_19  and  C_21
REMARK                            x       y       z     vdW  Elec       q    Type
REMARK                         _______ _______ _______ _____ _____    ______ ____
ROOT
ATOM      1  O   UNL     1      32.606 -22.770 -15.639  0.00  0.00    -0.274 OA
ATOM      2  N   UNL     1      34.345 -22.394 -17.134  0.00  0.00    -0.279 N 
ATOM      3  C   UNL     1      35.066 -20.907 -19.513  0.00  0.00    +0.096 C 
ATOM      4  C   UNL     1      33.596 -21.192 -19.149  0.00  0.00    +0.032 C 
ATOM      5  C   UNL     1      35.942 -20.883 -18.246  0.00  0.00    +0.032 C 
ATOM      6  C   UNL     1      33.477 -22.464 -18.311  0.00  0.00    +0.094 C 
ATOM      7  C   UNL     1      35.764 -22.163 -17.430  0.00  0.00    +0.094 C 
ATOM      8  C   UNL     1      33.802 -22.562 -15.860  0.00  0.00    +0.231 C 
ENDROOT
BRANCH   3  12
ATOM      9  O   UNL     1      36.361 -18.942 -20.145  0.00  0.00    -0.316 OA
ATOM     10  N   UNL     1      34.388 -19.117 -21.192  0.00  0.00    -0.312 NA
ATOM     11  N   UNL     1      36.269 -17.830 -20.992  0.00  0.00    -0.007 NA
ATOM     12  C   UNL     1      35.214 -19.635 -20.332  0.00  0.00    +0.293 C 
ATOM     13  C   UNL     1      35.079 -18.004 -21.574  0.00  0.00    +0.133 C 
BRANCH  13  15
ATOM     14  S   UNL     1      33.889 -17.526 -24.076  0.00  0.00    -0.075 S 
ATOM     15  C   UNL     1      34.549 -17.053 -22.566  0.00  0.00    +0.106 C 
ATOM     16  C   UNL     1      34.521 -15.685 -22.399  0.00  0.00    +0.018 C 
ATOM     17  C   UNL     1      33.952 -15.018 -23.522  0.00  0.00    +0.008 C 
ATOM     18  C   UNL     1      33.566 -15.901 -24.507  0.00  0.00    +0.036 C 
ENDBRANCH  13  15
ENDBRANCH   3  12
BRANCH   8  19
ATOM     19  C   UNL     1      34.761 -22.473 -14.701  0.00  0.00    +0.118 C 
BRANCH  19  21
ATOM     20  S   UNL     1      37.208 -23.667 -14.251  0.00  0.00    -0.090 S 
ATOM     21  C   UNL     1      35.553 -23.740 -14.657  0.00  0.00    +0.016 C 
ATOM     22  C   UNL     1      35.120 -25.013 -14.909  0.00  0.00    +0.003 C 
ATOM     23  C   UNL     1      36.173 -25.962 -14.766  0.00  0.00    +0.007 C 
ATOM     24  C   UNL     1      37.363 -25.364 -14.411  0.00  0.00    +0.035 C 
ENDBRANCH  19  21
ENDBRANCH   8  19
TORSDOF 4
ENDMDL
MODEL 2
REMARK VINA RESULT:     -11.0      2.634      9.215
REMARK  Name = 1453694
REMARK  4 active torsions:
REMARK  status: ('A' for Active; 'I' for Inactive)
REMARK    1  A    between atoms: C_3  and  C_12
REMARK    2  A    between atoms: C_8  and  C_19
REMARK    3  A    between atoms: C_13  and  C_15
REMARK    4  A    between atoms: C_19  and  C_21
REMARK                            x       y       z     vdW  Elec       q    Type
REMARK                         _______ _______ _______ _____ _____    ______ ____
ROOT
ATOM      1  O   UNL     1      36.662 -17.971 -20.985  0.00  0.00    -0.274 OA
ATOM      2  N   UNL     1      34.757 -19.288 -20.797  0.00  0.00    -0.279 N 
ATOM      3  C   UNL     1      33.610 -21.493 -19.309  0.00  0.00    +0.096 C 
ATOM      4  C   UNL     1      35.133 -21.272 -19.388  0.00  0.00    +0.032 C 
ATOM      5  C   UNL     1      32.861 -20.158 -19.488  0.00  0.00    +0.032 C 
ATOM      6  C   UNL     1      35.513 -20.534 -20.671  0.00  0.00    +0.094 C 
ATOM      7  C   UNL     1      33.298 -19.448 -20.768  0.00  0.00    +0.094 C 
ATOM      8  C   UNL     1      35.433 -18.077 -20.949  0.00  0.00    +0.231 C 
ENDROOT
BRANCH   3  12
ATOM      9  O   UNL     1      34.207 -22.785 -17.331  0.00  0.00    -0.316 OA
ATOM     10  N   UNL     1      32.018 -22.347 -17.516  0.00  0.00    -0.312 NA
ATOM     11  N   UNL     1      33.596 -23.372 -16.216  0.00  0.00    -0.007 NA
ATOM     12  C   UNL     1      33.203 -22.209 -18.032  0.00  0.00    +0.293 C 
ATOM     13  C   UNL     1      32.307 -23.071 -16.396  0.00  0.00    +0.133 C 
BRANCH  13  15
ATOM     14  S   UNL     1      31.600 -24.084 -13.871  0.00  0.00    -0.075 S 
ATOM     15  C   UNL     1      31.265 -23.496 -15.445  0.00  0.00    +0.106 C 
ATOM     16  C   UNL     1      29.912 -23.471 -15.707  0.00  0.00    +0.018 C 
ATOM     17  C   UNL     1      29.143 -23.939 -14.603  0.00  0.00    +0.008 C 
ATOM     18  C   UNL     1      29.936 -24.306 -13.539  0.00  0.00    +0.036 C 
ENDBRANCH  13  15
ENDBRANCH   3  12
BRANCH   8  19
ATOM     19  C   UNL     1      34.583 -16.839 -21.069  0.00  0.00    +0.118 C 
BRANCH  19  21
ATOM     20  S   UNL     1      34.248 -14.991 -23.091  0.00  0.00    -0.090 S 
ATOM     21  C   UNL     1      34.321 -16.596 -22.521  0.00  0.00    +0.016 C 
ATOM     22  C   UNL     1      34.123 -17.523 -23.507  0.00  0.00    +0.003 C 
ATOM     23  C   UNL     1      33.902 -16.903 -24.771  0.00  0.00    +0.007 C 
ATOM     24  C   UNL     1      33.944 -15.529 -24.688  0.00  0.00    +0.035 C 
ENDBRANCH  19  21
ENDBRANCH   8  19
TORSDOF 4
ENDMDL
MODEL 3
REMARK VINA RESULT:     -10.7      7.225     11.076
REMARK  Name = 1453694
REMARK  4 active torsions:
REMARK  status: ('A' for Active; 'I' for Inactive)
REMARK    1  A    between atoms: C_3  and  C_12
REMARK    2  A    between atoms: C_8  and  C_19
REMARK    3  A    between atoms: C_13  and  C_15
REMARK    4  A    between atoms: C_19  and  C_21
REMARK                            x       y       z     vdW  Elec       q    Type
REMARK                         _______ _______ _______ _____ _____    ______ ____
ROOT
ATOM      1  O   UNL     1      34.143 -15.065 -20.513  0.00  0.00    -0.274 OA
ATOM      2  N   UNL     1      32.714 -13.672 -21.704  0.00  0.00    -0.279 N 
ATOM      3  C   UNL     1      31.408 -11.088 -21.624  0.00  0.00    +0.096 C 
ATOM      4  C   UNL     1      31.903 -11.787 -20.343  0.00  0.00    +0.032 C 
ATOM      5  C   UNL     1      32.237 -11.539 -22.841  0.00  0.00    +0.032 C 
ATOM      6  C   UNL     1      31.931 -13.304 -20.524  0.00  0.00    +0.094 C 
ATOM      7  C   UNL     1      32.258 -13.063 -22.960  0.00  0.00    +0.094 C 
ATOM      8  C   UNL     1      33.788 -14.554 -21.579  0.00  0.00    +0.231 C 
ENDROOT
BRANCH   3  12
ATOM      9  O   UNL     1      31.468  -9.104 -20.211  0.00  0.00    -0.316 OA
ATOM     10  N   UNL     1      31.304  -8.667 -22.402  0.00  0.00    -0.312 NA
ATOM     11  N   UNL     1      31.431  -7.708 -20.329  0.00  0.00    -0.007 NA
ATOM     12  C   UNL     1      31.388  -9.575 -21.477  0.00  0.00    +0.293 C 
ATOM     13  C   UNL     1      31.334  -7.529 -21.649  0.00  0.00    +0.133 C 
BRANCH  13  15
ATOM     14  S   UNL     1      30.714  -5.890 -23.848  0.00  0.00    -0.075 S 
ATOM     15  C   UNL     1      31.264  -6.187 -22.252  0.00  0.00    +0.106 C 
ATOM     16  C   UNL     1      31.628  -5.023 -21.610  0.00  0.00    +0.018 C 
ATOM     17  C   UNL     1      31.454  -3.875 -22.436  0.00  0.00    +0.008 C 
ATOM     18  C   UNL     1      30.964  -4.205 -23.681  0.00  0.00    +0.036 C 
ENDBRANCH  13  15
ENDBRANCH   3  12
BRANCH   8  19
ATOM     19  C   UNL     1      34.545 -14.880 -22.841  0.00  0.00    +0.118 C 
BRANCH  19  21
ATOM     20  S   UNL     1      33.306 -16.616 -24.593  0.00  0.00    -0.090 S 
ATOM     21  C   UNL     1      34.247 -16.299 -23.206  0.00  0.00    +0.016 C 
ATOM     22  C   UNL     1      34.640 -17.436 -22.556  0.00  0.00    +0.003 C 
ATOM     23  C   UNL     1      34.157 -18.606 -23.209  0.00  0.00    +0.007 C 
ATOM     24  C   UNL     1      33.417 -18.304 -24.331  0.00  0.00    +0.035 C 
ENDBRANCH  19  21
ENDBRANCH   8  19
TORSDOF 4
ENDMDL
MODEL 4
REMARK VINA RESULT:     -10.4      1.599      9.344
REMARK  Name = 1453694
REMARK  4 active torsions:
REMARK  status: ('A' for Active; 'I' for Inactive)
REMARK    1  A    between atoms: C_3  and  C_12
REMARK    2  A    between atoms: C_8  and  C_19
REMARK    3  A    between atoms: C_13  and  C_15
REMARK    4  A    between atoms: C_19  and  C_21
REMARK                            x       y       z     vdW  Elec       q    Type
REMARK                         _______ _______ _______ _____ _____    ______ ____
ROOT
ATOM      1  O   UNL     1      36.733 -17.917 -21.248  0.00  0.00    -0.274 OA
ATOM      2  N   UNL     1      34.892 -19.284 -20.869  0.00  0.00    -0.279 N 
ATOM      3  C   UNL     1      33.950 -21.496 -19.253  0.00  0.00    +0.096 C 
ATOM      4  C   UNL     1      35.452 -21.234 -19.473  0.00  0.00    +0.032 C 
ATOM      5  C   UNL     1      33.149 -20.186 -19.380  0.00  0.00    +0.032 C 
ATOM      6  C   UNL     1      35.692 -20.507 -20.796  0.00  0.00    +0.094 C 
ATOM      7  C   UNL     1      33.447 -19.484 -20.704  0.00  0.00    +0.094 C 
ATOM      8  C   UNL     1      35.516 -18.057 -21.098  0.00  0.00    +0.231 C 
ENDROOT
BRANCH   3  12
ATOM      9  O   UNL     1      32.428 -22.682 -17.765  0.00  0.00    -0.316 OA
ATOM     10  N   UNL     1      34.494 -22.412 -16.941  0.00  0.00    -0.312 NA
ATOM     11  N   UNL     1      32.424 -23.280 -16.499  0.00  0.00    -0.007 NA
ATOM     12  C   UNL     1      33.682 -22.203 -17.934  0.00  0.00    +0.293 C 
ATOM     13  C   UNL     1      33.676 -23.080 -16.077  0.00  0.00    +0.133 C 
BRANCH  13  15
ATOM     14  S   UNL     1      33.157 -23.572 -13.358  0.00  0.00    -0.075 S 
ATOM     15  C   UNL     1      34.141 -23.551 -14.761  0.00  0.00    +0.106 C 
ATOM     16  C   UNL     1      35.410 -24.025 -14.506  0.00  0.00    +0.018 C 
ATOM     17  C   UNL     1      35.576 -24.410 -13.144  0.00  0.00    +0.008 C 
ATOM     18  C   UNL     1      34.428 -24.215 -12.408  0.00  0.00    +0.036 C 
ENDBRANCH  13  15
ENDBRANCH   3  12
BRANCH   8  19
ATOM     19  C   UNL     1      34.622 -16.845 -21.157  0.00  0.00    +0.118 C 
BRANCH  19  21
ATOM     20  S   UNL     1      34.178 -14.971 -23.132  0.00  0.00    -0.090 S 
ATOM     21  C   UNL     1      34.290 -16.584 -22.590  0.00  0.00    +0.016 C 
ATOM     22  C   UNL     1      34.052 -17.497 -23.580  0.00  0.00    +0.003 C 
ATOM     23  C   UNL     1      33.767 -16.861 -24.822  0.00  0.00    +0.007 C 
ATOM     24  C   UNL     1      33.803 -15.488 -24.721  0.00  0.00    +0.035 C 
ENDBRANCH  19  21
ENDBRANCH   8  19
TORSDOF 4
ENDMDL
MODEL 5
REMARK VINA RESULT:      -9.8      6.941     13.256
REMARK  Name = 1453694
REMARK  4 active torsions:
REMARK  status: ('A' for Active; 'I' for Inactive)
REMARK    1  A    between atoms: C_3  and  C_12
REMARK    2  A    between atoms: C_8  and  C_19
REMARK    3  A    between atoms: C_13  and  C_15
REMARK    4  A    between atoms: C_19  and  C_21
REMARK                            x       y       z     vdW  Elec       q    Type
REMARK                         _______ _______ _______ _____ _____    ______ ____
ROOT
ATOM      1  O   UNL     1      33.102  -7.512 -22.859  0.00  0.00    -0.274 OA
ATOM      2  N   UNL     1      32.024  -9.544 -22.530  0.00  0.00    -0.279 N 
ATOM      3  C   UNL     1      32.466 -12.405 -22.435  0.00  0.00    +0.096 C 
ATOM      4  C   UNL     1      33.431 -11.460 -23.174  0.00  0.00    +0.032 C 
ATOM      5  C   UNL     1      31.743 -11.659 -21.297  0.00  0.00    +0.032 C 
ATOM      6  C   UNL     1      32.708 -10.199 -23.646  0.00  0.00    +0.094 C 
ATOM      7  C   UNL     1      31.062 -10.392 -21.816  0.00  0.00    +0.094 C 
ATOM      8  C   UNL     1      32.298  -8.209 -22.233  0.00  0.00    +0.231 C 
ENDROOT
BRANCH   3  12
ATOM      9  O   UNL     1      33.537 -13.654 -20.638  0.00  0.00    -0.316 OA
ATOM     10  N   UNL     1      33.458 -14.744 -22.593  0.00  0.00    -0.312 NA
ATOM     11  N   UNL     1      34.150 -14.894 -20.418  0.00  0.00    -0.007 NA
ATOM     12  C   UNL     1      33.165 -13.660 -21.938  0.00  0.00    +0.293 C 
ATOM     13  C   UNL     1      34.065 -15.479 -21.616  0.00  0.00    +0.133 C 
BRANCH  13  15
ATOM     14  S   UNL     1      34.266 -17.732 -23.286  0.00  0.00    -0.075 S 
ATOM     15  C   UNL     1      34.594 -16.831 -21.865  0.00  0.00    +0.106 C 
ATOM     16  C   UNL     1      35.406 -17.524 -20.993  0.00  0.00    +0.018 C 
ATOM     17  C   UNL     1      35.764 -18.808 -21.498  0.00  0.00    +0.008 C 
ATOM     18  C   UNL     1      35.210 -19.049 -22.735  0.00  0.00    +0.036 C 
ENDBRANCH  13  15
ENDBRANCH   3  12
BRANCH   8  19
ATOM     19  C   UNL     1      31.554  -7.609 -21.068  0.00  0.00    +0.118 C 
BRANCH  19  21
ATOM     20  S   UNL     1      30.223  -5.966 -22.840  0.00  0.00    -0.090 S 
ATOM     21  C   UNL     1      31.160  -6.215 -21.438  0.00  0.00    +0.016 C 
ATOM     22  C   UNL     1      31.457  -5.054 -20.780  0.00  0.00    +0.003 C 
ATOM     23  C   UNL     1      30.903  -3.921 -21.442  0.00  0.00    +0.007 C 
ATOM     24  C   UNL     1      30.206  -4.274 -22.577  0.00  0.00    +0.035 C 
ENDBRANCH  19  21
ENDBRANCH   8  19
TORSDOF 4
ENDMDL
MODEL 6
REMARK VINA RESULT:      -9.5      5.747     12.081
REMARK  Name = 1453694
REMARK  4 active torsions:
REMARK  status: ('A' for Active; 'I' for Inactive)
REMARK    1  A    between atoms: C_3  and  C_12
REMARK    2  A    between atoms: C_8  and  C_19
REMARK    3  A    between atoms: C_13  and  C_15
REMARK    4  A    between atoms: C_19  and  C_21
REMARK                            x       y       z     vdW  Elec       q    Type
REMARK                         _______ _______ _______ _____ _____    ______ ____
ROOT
ATOM      1  O   UNL     1      29.922 -10.395 -21.449  0.00  0.00    -0.274 OA
ATOM      2  N   UNL     1      32.106 -11.183 -21.543  0.00  0.00    -0.279 N 
ATOM      3  C   UNL     1      33.721 -13.561 -21.191  0.00  0.00    +0.096 C 
ATOM      4  C   UNL     1      32.332 -13.421 -20.539  0.00  0.00    +0.032 C 
ATOM      5  C   UNL     1      33.809 -12.703 -22.467  0.00  0.00    +0.032 C 
ATOM      6  C   UNL     1      31.985 -11.951 -20.303  0.00  0.00    +0.094 C 
ATOM      7  C   UNL     1      33.425 -11.252 -22.183  0.00  0.00    +0.094 C 
ATOM      8  C   UNL     1      31.017 -10.448 -22.014  0.00  0.00    +0.231 C 
ENDROOT
BRANCH   3  12
ATOM      9  O   UNL     1      34.212 -15.365 -22.754  0.00  0.00    -0.316 OA
ATOM     10  N   UNL     1      34.287 -15.972 -20.599  0.00  0.00    -0.312 NA
ATOM     11  N   UNL     1      34.542 -16.726 -22.744  0.00  0.00    -0.007 NA
ATOM     12  C   UNL     1      34.083 -15.014 -21.454  0.00  0.00    +0.293 C 
ATOM     13  C   UNL     1      34.568 -17.010 -21.439  0.00  0.00    +0.133 C 
BRANCH  13  15
ATOM     14  S   UNL     1      33.694 -19.570 -20.671  0.00  0.00    -0.075 S 
ATOM     15  C   UNL     1      34.879 -18.361 -20.940  0.00  0.00    +0.106 C 
ATOM     16  C   UNL     1      36.146 -18.807 -20.633  0.00  0.00    +0.018 C 
ATOM     17  C   UNL     1      36.145 -20.156 -20.173  0.00  0.00    +0.008 C 
ATOM     18  C   UNL     1      34.876 -20.690 -20.144  0.00  0.00    +0.036 C 
ENDBRANCH  13  15
ENDBRANCH   3  12
BRANCH   8  19
ATOM     19  C   UNL     1      31.221  -9.687 -23.298  0.00  0.00    +0.118 C 
BRANCH  19  21
ATOM     20  S   UNL     1      32.015  -7.572 -21.713  0.00  0.00    -0.090 S 
ATOM     21  C   UNL     1      31.102  -8.228 -22.996  0.00  0.00    +0.016 C 
ATOM     22  C   UNL     1      30.328  -7.297 -23.631  0.00  0.00    +0.003 C 
ATOM     23  C   UNL     1      30.483  -6.004 -23.053  0.00  0.00    +0.007 C 
ATOM     24  C   UNL     1      31.372  -6.011 -22.000  0.00  0.00    +0.035 C 
ENDBRANCH  19  21
ENDBRANCH   8  19
TORSDOF 4
ENDMDL
MODEL 7
REMARK VINA RESULT:      -9.5      1.751      2.248
REMARK  Name = 1453694
REMARK  4 active torsions:
REMARK  status: ('A' for Active; 'I' for Inactive)
REMARK    1  A    between atoms: C_3  and  C_12
REMARK    2  A    between atoms: C_8  and  C_19
REMARK    3  A    between atoms: C_13  and  C_15
REMARK    4  A    between atoms: C_19  and  C_21
REMARK                            x       y       z     vdW  Elec       q    Type
REMARK                         _______ _______ _______ _____ _____    ______ ____
ROOT
ATOM      1  O   UNL     1      33.880 -23.270 -13.673  0.00  0.00    -0.274 OA
ATOM      2  N   UNL     1      34.951 -22.905 -15.703  0.00  0.00    -0.279 N 
ATOM      3  C   UNL     1      34.529 -21.919 -18.393  0.00  0.00    +0.096 C 
ATOM      4  C   UNL     1      33.362 -22.414 -17.519  0.00  0.00    +0.032 C 
ATOM      5  C   UNL     1      35.683 -21.403 -17.513  0.00  0.00    +0.032 C 
ATOM      6  C   UNL     1      33.843 -23.441 -16.495  0.00  0.00    +0.094 C 
ATOM      7  C   UNL     1      36.107 -22.454 -16.488  0.00  0.00    +0.094 C 
ATOM      8  C   UNL     1      34.858 -22.871 -14.311  0.00  0.00    +0.231 C 
ENDROOT
BRANCH   3  12
ATOM      9  O   UNL     1      32.757 -20.866 -19.693  0.00  0.00    -0.316 OA
ATOM     10  N   UNL     1      34.793 -20.002 -20.048  0.00  0.00    -0.312 NA
ATOM     11  N   UNL     1      32.588 -19.845 -20.637  0.00  0.00    -0.007 NA
ATOM     12  C   UNL     1      34.080 -20.881 -19.410  0.00  0.00    +0.293 C 
ATOM     13  C   UNL     1      33.832 -19.385 -20.795  0.00  0.00    +0.133 C 
BRANCH  13  15
ATOM     14  S   UNL     1      33.879 -18.351 -23.409  0.00  0.00    -0.075 S 
ATOM     15  C   UNL     1      34.145 -18.280 -21.717  0.00  0.00    +0.106 C 
ATOM     16  C   UNL     1      34.682 -17.070 -21.333  0.00  0.00    +0.018 C 
ATOM     17  C   UNL     1      34.878 -16.193 -22.439  0.00  0.00    +0.008 C 
ATOM     18  C   UNL     1      34.483 -16.765 -23.628  0.00  0.00    +0.036 C 
ENDBRANCH  13  15
ENDBRANCH   3  12
BRANCH   8  19
ATOM     19  C   UNL     1      36.040 -22.301 -13.569  0.00  0.00    +0.118 C 
BRANCH  19  21
ATOM     20  S   UNL     1      37.906 -24.273 -14.065  0.00  0.00    -0.090 S 
ATOM     21  C   UNL     1      36.839 -23.442 -13.026  0.00  0.00    +0.016 C 
ATOM     22  C   UNL     1      36.838 -23.940 -11.752  0.00  0.00    +0.003 C 
ATOM     23  C   UNL     1      37.737 -25.036 -11.618  0.00  0.00    +0.007 C 
ATOM     24  C   UNL     1      38.383 -25.323 -12.800  0.00  0.00    +0.035 C 
ENDBRANCH  19  21
ENDBRANCH   8  19
TORSDOF 4
ENDMDL
MODEL 8
REMARK VINA RESULT:      -9.4      7.191     13.700
REMARK  Name = 1453694
REMARK  4 active torsions:
REMARK  status: ('A' for Active; 'I' for Inactive)
REMARK    1  A    between atoms: C_3  and  C_12
REMARK    2  A    between atoms: C_8  and  C_19
REMARK    3  A    between atoms: C_13  and  C_15
REMARK    4  A    between atoms: C_19  and  C_21
REMARK                            x       y       z     vdW  Elec       q    Type
REMARK                         _______ _______ _______ _____ _____    ______ ____
ROOT
ATOM      1  O   UNL     1      29.779  -8.136 -22.828  0.00  0.00    -0.274 OA
ATOM      2  N   UNL     1      31.836  -9.212 -22.716  0.00  0.00    -0.279 N 
ATOM      3  C   UNL     1      33.070 -11.830 -22.590  0.00  0.00    +0.096 C 
ATOM      4  C   UNL     1      31.607 -11.602 -22.164  0.00  0.00    +0.032 C 
ATOM      5  C   UNL     1      33.499 -10.781 -23.634  0.00  0.00    +0.032 C 
ATOM      6  C   UNL     1      31.392 -10.163 -21.695  0.00  0.00    +0.094 C 
ATOM      7  C   UNL     1      33.236  -9.363 -23.129  0.00  0.00    +0.094 C 
ATOM      8  C   UNL     1      30.949  -8.251 -23.203  0.00  0.00    +0.231 C 
ENDROOT
BRANCH   3  12
ATOM      9  O   UNL     1      32.981 -13.493 -24.368  0.00  0.00    -0.316 OA
ATOM     10  N   UNL     1      33.780 -14.269 -22.425  0.00  0.00    -0.312 NA
ATOM     11  N   UNL     1      33.281 -14.844 -24.582  0.00  0.00    -0.007 NA
ATOM     12  C   UNL     1      33.306 -13.250 -23.078  0.00  0.00    +0.293 C 
ATOM     13  C   UNL     1      33.748 -15.232 -23.391  0.00  0.00    +0.133 C 
BRANCH  13  15
ATOM     14  S   UNL     1      33.649 -17.966 -24.035  0.00  0.00    -0.075 S 
ATOM     15  C   UNL     1      34.197 -16.612 -23.140  0.00  0.00    +0.106 C 
ATOM     16  C   UNL     1      35.101 -16.973 -22.164  0.00  0.00    +0.018 C 
ATOM     17  C   UNL     1      35.348 -18.376 -22.153  0.00  0.00    +0.008 C 
ATOM     18  C   UNL     1      34.621 -19.036 -23.119  0.00  0.00    +0.036 C 
ENDBRANCH  13  15
ENDBRANCH   3  12
BRANCH   8  19
ATOM     19  C   UNL     1      31.482  -7.312 -24.254  0.00  0.00    +0.118 C 
BRANCH  19  21
ATOM     20  S   UNL     1      32.200  -5.546 -22.259  0.00  0.00    -0.090 S 
ATOM     21  C   UNL     1      31.398  -5.920 -23.717  0.00  0.00    +0.016 C 
ATOM     22  C   UNL     1      30.738  -4.849 -24.253  0.00  0.00    +0.003 C 
ATOM     23  C   UNL     1      30.891  -3.683 -23.448  0.00  0.00    +0.007 C 
ATOM     24  C   UNL     1      31.663  -3.923 -22.332  0.00  0.00    +0.035 C 
ENDBRANCH  19  21
ENDBRANCH   8  19
TORSDOF 4
ENDMDL
MODEL 9
REMARK VINA RESULT:      -9.3      4.665     11.220
REMARK  Name = 1453694
REMARK  4 active torsions:
REMARK  status: ('A' for Active; 'I' for Inactive)
REMARK    1  A    between atoms: C_3  and  C_12
REMARK    2  A    between atoms: C_8  and  C_19
REMARK    3  A    between atoms: C_13  and  C_15
REMARK    4  A    between atoms: C_19  and  C_21
REMARK                            x       y       z     vdW  Elec       q    Type
REMARK                         _______ _______ _______ _____ _____    ______ ____
ROOT
ATOM      1  O   UNL     1      31.793 -11.175 -20.316  0.00  0.00    -0.274 OA
ATOM      2  N   UNL     1      33.155 -12.543 -21.611  0.00  0.00    -0.279 N 
ATOM      3  C   UNL     1      34.378 -15.167 -21.700  0.00  0.00    +0.096 C 
ATOM      4  C   UNL     1      33.929 -14.526 -20.373  0.00  0.00    +0.032 C 
ATOM      5  C   UNL     1      33.542 -14.622 -22.874  0.00  0.00    +0.032 C 
ATOM      6  C   UNL     1      33.947 -13.001 -20.469  0.00  0.00    +0.094 C 
ATOM      7  C   UNL     1      33.568 -13.095 -22.907  0.00  0.00    +0.094 C 
ATOM      8  C   UNL     1      32.112 -11.636 -21.415  0.00  0.00    +0.231 C 
ENDROOT
BRANCH   3  12
ATOM      9  O   UNL     1      34.481 -17.328 -22.821  0.00  0.00    -0.316 OA
ATOM     10  N   UNL     1      34.222 -17.457 -20.600  0.00  0.00    -0.312 NA
ATOM     11  N   UNL     1      34.428 -18.693 -22.514  0.00  0.00    -0.007 NA
ATOM     12  C   UNL     1      34.352 -16.686 -21.637  0.00  0.00    +0.293 C 
ATOM     13  C   UNL     1      34.275 -18.688 -21.186  0.00  0.00    +0.133 C 
BRANCH  13  15
ATOM     14  S   UNL     1      35.521 -20.861 -19.910  0.00  0.00    -0.075 S 
ATOM     15  C   UNL     1      34.168 -19.934 -20.408  0.00  0.00    +0.106 C 
ATOM     16  C   UNL     1      32.980 -20.495 -19.992  0.00  0.00    +0.018 C 
ATOM     17  C   UNL     1      33.182 -21.699 -19.257  0.00  0.00    +0.008 C 
ATOM     18  C   UNL     1      34.518 -22.014 -19.139  0.00  0.00    +0.036 C 
ENDBRANCH  13  15
ENDBRANCH   3  12
BRANCH   8  19
ATOM     19  C   UNL     1      31.344 -11.217 -22.641  0.00  0.00    +0.118 C 
BRANCH  19  21
ATOM     20  S   UNL     1      33.030  -9.111 -23.222  0.00  0.00    -0.090 S 
ATOM     21  C   UNL     1      31.501  -9.739 -22.803  0.00  0.00    +0.016 C 
ATOM     22  C   UNL     1      30.547  -8.769 -22.657  0.00  0.00    +0.003 C 
ATOM     23  C   UNL     1      31.081  -7.470 -22.893  0.00  0.00    +0.007 C 
ATOM     24  C   UNL     1      32.421  -7.511 -23.210  0.00  0.00    +0.035 C 
ENDBRANCH  19  21
ENDBRANCH   8  19
TORSDOF 4
ENDMDL
