MODEL 1
REMARK VINA RESULT:     -13.2      0.000      0.000
REMARK  Name = 10050566
REMARK  9 active torsions:
REMARK  status: ('A' for Active; 'I' for Inactive)
REMARK    1  A    between atoms: C_2  and  N_11
REMARK    2  A    between atoms: C_3  and  O_22
REMARK    3  A    between atoms: C_12  and  C_14
REMARK    4  A    between atoms: C_19  and  O_20
REMARK    5  A    between atoms: O_22  and  C_24
REMARK    6  A    between atoms: C_24  and  C_25
REMARK    7  A    between atoms: C_30  and  C_32
REMARK    8  A    between atoms: C_32  and  C_33
REMARK    9  A    between atoms: C_34  and  O_39
REMARK                            x       y       z     vdW  Elec       q    Type
REMARK                         _______ _______ _______ _____ _____    ______ ____
ROOT
ATOM      1  N   UNL     1      32.022 -21.664 -14.315  0.00  0.00    +0.385 N 
ATOM      2  C   UNL     1      34.189 -22.512 -15.235  0.00  0.00    +0.091 C 
ATOM      3  C   UNL     1      33.561 -23.078 -16.521  0.00  0.00    +0.185 C 
ATOM      4  C   UNL     1      32.316 -23.954 -16.345  0.00  0.00    +0.043 C 
ATOM      5  C   UNL     1      33.263 -22.381 -14.021  0.00  0.00    -0.058 C 
ATOM      6  C   UNL     1      31.021 -23.200 -16.037  0.00  0.00    -0.020 C 
ATOM      7  C   UNL     1      30.936 -22.587 -14.643  0.00  0.00    -0.082 C 
ATOM      8  H   UNL     1      32.179 -21.041 -15.108  0.00  0.00    -0.084 HD
ATOM      9  H   UNL     1      31.754 -21.135 -13.486  0.00  0.00    -0.084 HD
ENDROOT
BRANCH   2  11
ATOM     10  O   UNL     1      36.938 -21.693 -15.305  0.00  0.00    -0.270 OA
ATOM     11  N   UNL     1      35.340 -23.312 -14.859  0.00  0.00    -0.301 N 
ATOM     12  C   UNL     1      36.629 -22.821 -14.930  0.00  0.00    +0.246 C 
ATOM     13  H   UNL     1      35.197 -24.234 -14.545  0.00  0.00    +0.150 HD
BRANCH  12  14
ATOM     14  C   UNL     1      37.700 -23.774 -14.536  0.00  0.00    +0.054 C 
ATOM     15  C   UNL     1      38.825 -23.875 -15.328  0.00  0.00    +0.008 C 
ATOM     16  C   UNL     1      37.536 -24.526 -13.392  0.00  0.00    +0.008 C 
ATOM     17  C   UNL     1      39.830 -24.769 -14.959  0.00  0.00    +0.037 C 
ATOM     18  C   UNL     1      38.541 -25.419 -13.022  0.00  0.00    +0.037 C 
ATOM     19  C   UNL     1      39.688 -25.541 -13.807  0.00  0.00    +0.134 C 
BRANCH  19  20
ATOM     20  O   UNL     1      40.670 -26.411 -13.445  0.00  0.00    -0.506 OA
ATOM     21  H   UNL     1      40.830 -26.585 -12.538  0.00  0.00    +0.292 HD
ENDBRANCH  19  20
ENDBRANCH  12  14
ENDBRANCH   2  11
BRANCH   3  22
ATOM     22  O   UNL     1      33.279 -22.004 -17.423  0.00  0.00    -0.448 OA
BRANCH  22  24
ATOM     23  O   UNL     1      33.175 -23.352 -19.285  0.00  0.00    -0.245 OA
ATOM     24  C   UNL     1      33.430 -22.289 -18.740  0.00  0.00    +0.341 C 
BRANCH  24  25
ATOM     25  C   UNL     1      33.966 -21.110 -19.465  0.00  0.00    +0.076 C 
ATOM     26  C   UNL     1      33.093 -20.313 -20.179  0.00  0.00    +0.007 C 
ATOM     27  C   UNL     1      35.319 -20.847 -19.405  0.00  0.00    +0.007 C 
ATOM     28  C   UNL     1      33.596 -19.206 -20.862  0.00  0.00    +0.003 C 
ATOM     29  C   UNL     1      35.822 -19.740 -20.087  0.00  0.00    +0.003 C 
ATOM     30  C   UNL     1      34.960 -18.918 -20.816  0.00  0.00    +0.039 C 
BRANCH  30  32
ATOM     31  O   UNL     1      36.602 -17.815 -22.064  0.00  0.00    -0.286 OA
ATOM     32  C   UNL     1      35.485 -17.764 -21.528  0.00  0.00    +0.198 C 
BRANCH  32  33
ATOM     33  C   UNL     1      34.724 -16.484 -21.646  0.00  0.00    +0.073 C 
ATOM     34  C   UNL     1      34.375 -16.014 -22.892  0.00  0.00    +0.137 C 
ATOM     35  C   UNL     1      34.400 -15.821 -20.484  0.00  0.00    +0.006 C 
ATOM     36  C   UNL     1      33.665 -14.818 -22.980  0.00  0.00    +0.037 C 
ATOM     37  C   UNL     1      33.690 -14.624 -20.572  0.00  0.00    +0.000 C 
ATOM     38  C   UNL     1      33.323 -14.122 -21.821  0.00  0.00    +0.003 C 
BRANCH  34  39
ATOM     39  O   UNL     1      34.701 -16.679 -24.036  0.00  0.00    -0.505 OA
ATOM     40  H   UNL     1      34.092 -16.713 -24.749  0.00  0.00    +0.292 HD
ENDBRANCH  34  39
ENDBRANCH  32  33
ENDBRANCH  30  32
ENDBRANCH  24  25
ENDBRANCH  22  24
ENDBRANCH   3  22
TORSDOF 9
ENDMDL
MODEL 2
REMARK VINA RESULT:     -12.8      1.043      1.512
REMARK  Name = 10050566
REMARK  9 active torsions:
REMARK  status: ('A' for Active; 'I' for Inactive)
REMARK    1  A    between atoms: C_2  and  N_11
REMARK    2  A    between atoms: C_3  and  O_22
REMARK    3  A    between atoms: C_12  and  C_14
REMARK    4  A    between atoms: C_19  and  O_20
REMARK    5  A    between atoms: O_22  and  C_24
REMARK    6  A    between atoms: C_24  and  C_25
REMARK    7  A    between atoms: C_30  and  C_32
REMARK    8  A    between atoms: C_32  and  C_33
REMARK    9  A    between atoms: C_34  and  O_39
REMARK                            x       y       z     vdW  Elec       q    Type
REMARK                         _______ _______ _______ _____ _____    ______ ____
ROOT
ATOM      1  N   UNL     1      31.914 -21.718 -13.955  0.00  0.00    +0.385 N 
ATOM      2  C   UNL     1      33.983 -22.697 -14.965  0.00  0.00    +0.091 C 
ATOM      3  C   UNL     1      33.230 -23.453 -16.075  0.00  0.00    +0.185 C 
ATOM      4  C   UNL     1      32.026 -24.291 -15.633  0.00  0.00    +0.043 C 
ATOM      5  C   UNL     1      33.190 -22.382 -13.692  0.00  0.00    -0.058 C 
ATOM      6  C   UNL     1      30.758 -23.499 -15.305  0.00  0.00    -0.020 C 
ATOM      7  C   UNL     1      30.813 -22.680 -14.020  0.00  0.00    -0.082 C 
ATOM      8  H   UNL     1      31.974 -21.223 -14.846  0.00  0.00    -0.084 HD
ATOM      9  H   UNL     1      31.727 -21.068 -13.192  0.00  0.00    -0.084 HD
ENDROOT
BRANCH   2  11
ATOM     10  O   UNL     1      36.689 -21.970 -15.581  0.00  0.00    -0.270 OA
ATOM     11  N   UNL     1      35.180 -23.430 -14.600  0.00  0.00    -0.301 N 
ATOM     12  C   UNL     1      36.444 -22.992 -14.946  0.00  0.00    +0.246 C 
ATOM     13  H   UNL     1      35.089 -24.267 -14.089  0.00  0.00    +0.150 HD
BRANCH  12  14
ATOM     14  C   UNL     1      37.565 -23.870 -14.521  0.00  0.00    +0.054 C 
ATOM     15  C   UNL     1      38.735 -23.855 -15.252  0.00  0.00    +0.008 C 
ATOM     16  C   UNL     1      37.401 -24.671 -13.410  0.00  0.00    +0.008 C 
ATOM     17  C   UNL     1      39.788 -24.678 -14.854  0.00  0.00    +0.037 C 
ATOM     18  C   UNL     1      38.454 -25.493 -13.011  0.00  0.00    +0.037 C 
ATOM     19  C   UNL     1      39.648 -25.497 -13.733  0.00  0.00    +0.134 C 
BRANCH  19  20
ATOM     20  O   UNL     1      40.676 -26.299 -13.343  0.00  0.00    -0.506 OA
ATOM     21  H   UNL     1      41.351 -26.525 -13.953  0.00  0.00    +0.292 HD
ENDBRANCH  19  20
ENDBRANCH  12  14
ENDBRANCH   2  11
BRANCH   3  22
ATOM     22  O   UNL     1      32.835 -22.529 -17.093  0.00  0.00    -0.448 OA
BRANCH  22  24
ATOM     23  O   UNL     1      33.039 -23.980 -18.868  0.00  0.00    -0.245 OA
ATOM     24  C   UNL     1      33.169 -22.876 -18.361  0.00  0.00    +0.341 C 
BRANCH  24  25
ATOM     25  C   UNL     1      33.734 -21.710 -19.084  0.00  0.00    +0.076 C 
ATOM     26  C   UNL     1      32.875 -20.845 -19.730  0.00  0.00    +0.007 C 
ATOM     27  C   UNL     1      35.102 -21.527 -19.089  0.00  0.00    +0.007 C 
ATOM     28  C   UNL     1      33.407 -19.749 -20.410  0.00  0.00    +0.003 C 
ATOM     29  C   UNL     1      35.634 -20.432 -19.769  0.00  0.00    +0.003 C 
ATOM     30  C   UNL     1      34.786 -19.542 -20.430  0.00  0.00    +0.039 C 
BRANCH  30  32
ATOM     31  O   UNL     1      36.416 -17.902 -20.778  0.00  0.00    -0.286 OA
ATOM     32  C   UNL     1      35.340 -18.400 -21.139  0.00  0.00    +0.198 C 
BRANCH  32  33
ATOM     33  C   UNL     1      34.657 -17.779 -22.314  0.00  0.00    +0.073 C 
ATOM     34  C   UNL     1      34.391 -16.429 -22.310  0.00  0.00    +0.137 C 
ATOM     35  C   UNL     1      34.319 -18.600 -23.367  0.00  0.00    +0.006 C 
ATOM     36  C   UNL     1      33.753 -15.870 -23.416  0.00  0.00    +0.037 C 
ATOM     37  C   UNL     1      33.682 -18.041 -24.474  0.00  0.00    +0.000 C 
ATOM     38  C   UNL     1      33.398 -16.676 -24.498  0.00  0.00    +0.003 C 
BRANCH  34  39
ATOM     39  O   UNL     1      34.730 -15.626 -21.263  0.00  0.00    -0.505 OA
ATOM     40  H   UNL     1      35.560 -15.190 -21.254  0.00  0.00    +0.292 HD
ENDBRANCH  34  39
ENDBRANCH  32  33
ENDBRANCH  30  32
ENDBRANCH  24  25
ENDBRANCH  22  24
ENDBRANCH   3  22
TORSDOF 9
ENDMDL
MODEL 3
REMARK VINA RESULT:     -11.6      2.102      5.726
REMARK  Name = 10050566
REMARK  9 active torsions:
REMARK  status: ('A' for Active; 'I' for Inactive)
REMARK    1  A    between atoms: C_2  and  N_11
REMARK    2  A    between atoms: C_3  and  O_22
REMARK    3  A    between atoms: C_12  and  C_14
REMARK    4  A    between atoms: C_19  and  O_20
REMARK    5  A    between atoms: O_22  and  C_24
REMARK    6  A    between atoms: C_24  and  C_25
REMARK    7  A    between atoms: C_30  and  C_32
REMARK    8  A    between atoms: C_32  and  C_33
REMARK    9  A    between atoms: C_34  and  O_39
REMARK                            x       y       z     vdW  Elec       q    Type
REMARK                         _______ _______ _______ _____ _____    ______ ____
ROOT
ATOM      1  N   UNL     1      35.465 -24.600 -15.158  0.00  0.00    +0.385 N 
ATOM      2  C   UNL     1      33.399 -23.527 -16.076  0.00  0.00    +0.091 C 
ATOM      3  C   UNL     1      34.093 -22.194 -16.409  0.00  0.00    +0.185 C 
ATOM      4  C   UNL     1      34.947 -21.573 -15.298  0.00  0.00    +0.043 C 
ATOM      5  C   UNL     1      34.033 -24.370 -14.964  0.00  0.00    -0.058 C 
ATOM      6  C   UNL     1      36.310 -22.232 -15.071  0.00  0.00    -0.020 C 
ATOM      7  C   UNL     1      36.268 -23.616 -14.432  0.00  0.00    -0.082 C 
ATOM      8  H   UNL     1      35.680 -24.534 -16.154  0.00  0.00    -0.084 HD
ATOM      9  H   UNL     1      35.692 -25.527 -14.799  0.00  0.00    -0.084 HD
ENDROOT
BRANCH   2  11
ATOM     10  O   UNL     1      31.484 -22.093 -17.659  0.00  0.00    -0.270 OA
ATOM     11  N   UNL     1      32.009 -23.284 -15.741  0.00  0.00    -0.301 N 
ATOM     12  C   UNL     1      31.165 -22.578 -16.578  0.00  0.00    +0.246 C 
ATOM     13  H   UNL     1      31.655 -23.633 -14.892  0.00  0.00    +0.150 HD
BRANCH  12  14
ATOM     14  C   UNL     1      29.777 -22.392 -16.079  0.00  0.00    +0.054 C 
ATOM     15  C   UNL     1      28.725 -22.603 -16.947  0.00  0.00    +0.008 C 
ATOM     16  C   UNL     1      29.585 -22.015 -14.767  0.00  0.00    +0.008 C 
ATOM     17  C   UNL     1      27.423 -22.428 -16.480  0.00  0.00    +0.037 C 
ATOM     18  C   UNL     1      28.282 -21.842 -14.300  0.00  0.00    +0.037 C 
ATOM     19  C   UNL     1      27.201 -22.048 -15.157  0.00  0.00    +0.134 C 
BRANCH  19  20
ATOM     20  O   UNL     1      25.930 -21.881 -14.700  0.00  0.00    -0.506 OA
ATOM     21  H   UNL     1      25.637 -21.031 -14.432  0.00  0.00    +0.292 HD
ENDBRANCH  19  20
ENDBRANCH  12  14
ENDBRANCH   2  11
BRANCH   3  22
ATOM     22  O   UNL     1      34.875 -22.351 -17.597  0.00  0.00    -0.448 OA
BRANCH  22  24
ATOM     23  O   UNL     1      33.383 -23.160 -19.150  0.00  0.00    -0.245 OA
ATOM     24  C   UNL     1      34.182 -22.323 -18.762  0.00  0.00    +0.341 C 
BRANCH  24  25
ATOM     25  C   UNL     1      34.528 -21.106 -19.539  0.00  0.00    +0.076 C 
ATOM     26  C   UNL     1      35.827 -20.640 -19.504  0.00  0.00    +0.007 C 
ATOM     27  C   UNL     1      33.541 -20.478 -20.270  0.00  0.00    +0.007 C 
ATOM     28  C   UNL     1      36.152 -19.496 -20.234  0.00  0.00    +0.003 C 
ATOM     29  C   UNL     1      33.865 -19.334 -20.999  0.00  0.00    +0.003 C 
ATOM     30  C   UNL     1      35.172 -18.843 -20.981  0.00  0.00    +0.039 C 
BRANCH  30  32
ATOM     31  O   UNL     1      36.489 -17.650 -22.501  0.00  0.00    -0.286 OA
ATOM     32  C   UNL     1      35.510 -17.650 -21.740  0.00  0.00    +0.198 C 
BRANCH  32  33
ATOM     33  C   UNL     1      34.715 -16.388 -21.645  0.00  0.00    +0.073 C 
ATOM     34  C   UNL     1      34.377 -15.711 -22.794  0.00  0.00    +0.137 C 
ATOM     35  C   UNL     1      34.350 -15.954 -20.391  0.00  0.00    +0.006 C 
ATOM     36  C   UNL     1      33.635 -14.536 -22.683  0.00  0.00    +0.037 C 
ATOM     37  C   UNL     1      33.607 -14.779 -20.280  0.00  0.00    +0.000 C 
ATOM     38  C   UNL     1      33.250 -14.070 -21.426  0.00  0.00    +0.003 C 
BRANCH  34  39
ATOM     39  O   UNL     1      34.744 -16.150 -24.031  0.00  0.00    -0.505 OA
ATOM     40  H   UNL     1      34.712 -17.064 -24.233  0.00  0.00    +0.292 HD
ENDBRANCH  34  39
ENDBRANCH  32  33
ENDBRANCH  30  32
ENDBRANCH  24  25
ENDBRANCH  22  24
ENDBRANCH   3  22
TORSDOF 9
ENDMDL
MODEL 4
REMARK VINA RESULT:     -10.9      8.749     15.960
REMARK  Name = 10050566
REMARK  9 active torsions:
REMARK  status: ('A' for Active; 'I' for Inactive)
REMARK    1  A    between atoms: C_2  and  N_11
REMARK    2  A    between atoms: C_3  and  O_22
REMARK    3  A    between atoms: C_12  and  C_14
REMARK    4  A    between atoms: C_19  and  O_20
REMARK    5  A    between atoms: O_22  and  C_24
REMARK    6  A    between atoms: C_24  and  C_25
REMARK    7  A    between atoms: C_30  and  C_32
REMARK    8  A    between atoms: C_32  and  C_33
REMARK    9  A    between atoms: C_34  and  O_39
REMARK                            x       y       z     vdW  Elec       q    Type
REMARK                         _______ _______ _______ _____ _____    ______ ____
ROOT
ATOM      1  N   UNL     1      30.371  -5.217 -21.305  0.00  0.00    +0.385 N 
ATOM      2  C   UNL     1      31.806  -6.200 -23.103  0.00  0.00    +0.091 C 
ATOM      3  C   UNL     1      32.504  -7.203 -22.167  0.00  0.00    +0.185 C 
ATOM      4  C   UNL     1      33.059  -6.639 -20.854  0.00  0.00    +0.043 C 
ATOM      5  C   UNL     1      31.236  -4.936 -22.450  0.00  0.00    -0.058 C 
ATOM      6  C   UNL     1      32.017  -6.345 -19.772  0.00  0.00    -0.020 C 
ATOM      7  C   UNL     1      31.112  -5.148 -20.045  0.00  0.00    -0.082 C 
ATOM      8  H   UNL     1      29.978  -6.153 -21.407  0.00  0.00    -0.084 HD
ATOM      9  H   UNL     1      29.632  -4.514 -21.281  0.00  0.00    -0.084 HD
ENDROOT
BRANCH   2  11
ATOM     10  O   UNL     1      31.296  -6.317 -25.924  0.00  0.00    -0.270 OA
ATOM     11  N   UNL     1      32.715  -5.808 -24.163  0.00  0.00    -0.301 N 
ATOM     12  C   UNL     1      32.371  -5.903 -25.498  0.00  0.00    +0.246 C 
ATOM     13  H   UNL     1      33.606  -5.462 -23.924  0.00  0.00    +0.150 HD
BRANCH  12  14
ATOM     14  C   UNL     1      33.422  -5.487 -26.462  0.00  0.00    +0.054 C 
ATOM     15  C   UNL     1      33.126  -5.485 -27.810  0.00  0.00    +0.008 C 
ATOM     16  C   UNL     1      34.661  -5.117 -25.981  0.00  0.00    +0.008 C 
ATOM     17  C   UNL     1      34.112  -5.095 -28.715  0.00  0.00    +0.037 C 
ATOM     18  C   UNL     1      35.646  -4.726 -26.886  0.00  0.00    +0.037 C 
ATOM     19  C   UNL     1      35.372  -4.715 -28.254  0.00  0.00    +0.134 C 
BRANCH  19  20
ATOM     20  O   UNL     1      36.334  -4.331 -29.137  0.00  0.00    -0.506 OA
ATOM     21  H   UNL     1      36.648  -4.938 -29.779  0.00  0.00    +0.292 HD
ENDBRANCH  19  20
ENDBRANCH  12  14
ENDBRANCH   2  11
BRANCH   3  22
ATOM     22  O   UNL     1      31.617  -8.292 -21.894  0.00  0.00    -0.448 OA
BRANCH  22  24
ATOM     23  O   UNL     1      30.952  -9.015 -23.975  0.00  0.00    -0.245 OA
ATOM     24  C   UNL     1      31.482  -9.202 -22.891  0.00  0.00    +0.341 C 
BRANCH  24  25
ATOM     25  C   UNL     1      32.077 -10.500 -22.488  0.00  0.00    +0.076 C 
ATOM     26  C   UNL     1      31.556 -11.162 -21.394  0.00  0.00    +0.007 C 
ATOM     27  C   UNL     1      33.133 -11.006 -23.218  0.00  0.00    +0.007 C 
ATOM     28  C   UNL     1      32.117 -12.382 -21.014  0.00  0.00    +0.003 C 
ATOM     29  C   UNL     1      33.693 -12.226 -22.839  0.00  0.00    +0.003 C 
ATOM     30  C   UNL     1      33.184 -12.914 -21.736  0.00  0.00    +0.039 C 
BRANCH  30  32
ATOM     31  O   UNL     1      34.130 -14.370 -20.169  0.00  0.00    -0.286 OA
ATOM     32  C   UNL     1      33.768 -14.185 -21.341  0.00  0.00    +0.198 C 
BRANCH  32  33
ATOM     33  C   UNL     1      33.961 -15.312 -22.304  0.00  0.00    +0.073 C 
ATOM     34  C   UNL     1      34.516 -16.492 -21.866  0.00  0.00    +0.137 C 
ATOM     35  C   UNL     1      33.565 -15.115 -23.608  0.00  0.00    +0.006 C 
ATOM     36  C   UNL     1      34.686 -17.531 -22.780  0.00  0.00    +0.037 C 
ATOM     37  C   UNL     1      33.735 -16.154 -24.523  0.00  0.00    +0.000 C 
ATOM     38  C   UNL     1      34.296 -17.362 -24.109  0.00  0.00    +0.003 C 
BRANCH  34  39
ATOM     39  O   UNL     1      34.903 -16.677 -20.572  0.00  0.00    -0.505 OA
ATOM     40  H   UNL     1      35.150 -15.940 -20.047  0.00  0.00    +0.292 HD
ENDBRANCH  34  39
ENDBRANCH  32  33
ENDBRANCH  30  32
ENDBRANCH  24  25
ENDBRANCH  22  24
ENDBRANCH   3  22
TORSDOF 9
ENDMDL
MODEL 5
REMARK VINA RESULT:     -10.8      9.519     16.222
REMARK  Name = 10050566
REMARK  9 active torsions:
REMARK  status: ('A' for Active; 'I' for Inactive)
REMARK    1  A    between atoms: C_2  and  N_11
REMARK    2  A    between atoms: C_3  and  O_22
REMARK    3  A    between atoms: C_12  and  C_14
REMARK    4  A    between atoms: C_19  and  O_20
REMARK    5  A    between atoms: O_22  and  C_24
REMARK    6  A    between atoms: C_24  and  C_25
REMARK    7  A    between atoms: C_30  and  C_32
REMARK    8  A    between atoms: C_32  and  C_33
REMARK    9  A    between atoms: C_34  and  O_39
REMARK                            x       y       z     vdW  Elec       q    Type
REMARK                         _______ _______ _______ _____ _____    ______ ____
ROOT
ATOM      1  N   UNL     1      29.619  -4.546 -21.946  0.00  0.00    +0.385 N 
ATOM      2  C   UNL     1      31.214  -5.755 -23.448  0.00  0.00    +0.091 C 
ATOM      3  C   UNL     1      31.806  -6.623 -22.323  0.00  0.00    +0.185 C 
ATOM      4  C   UNL     1      32.235  -5.888 -21.048  0.00  0.00    +0.043 C 
ATOM      5  C   UNL     1      30.595  -4.417 -23.028  0.00  0.00    -0.058 C 
ATOM      6  C   UNL     1      31.095  -5.455 -20.123  0.00  0.00    -0.020 C 
ATOM      7  C   UNL     1      30.234  -4.308 -20.640  0.00  0.00    -0.082 C 
ATOM      8  H   UNL     1      29.229  -5.488 -21.962  0.00  0.00    -0.084 HD
ATOM      9  H   UNL     1      28.889  -3.848 -22.089  0.00  0.00    -0.084 HD
ENDROOT
BRANCH   2  11
ATOM     10  O   UNL     1      31.207  -6.710 -26.153  0.00  0.00    -0.270 OA
ATOM     11  N   UNL     1      32.226  -5.504 -24.456  0.00  0.00    -0.301 N 
ATOM     12  C   UNL     1      32.128  -6.013 -25.737  0.00  0.00    +0.246 C 
ATOM     13  H   UNL     1      33.008  -4.955 -24.220  0.00  0.00    +0.150 HD
BRANCH  12  14
ATOM     14  C   UNL     1      33.260  -5.689 -26.644  0.00  0.00    +0.054 C 
ATOM     15  C   UNL     1      33.020  -5.587 -27.998  0.00  0.00    +0.008 C 
ATOM     16  C   UNL     1      34.515  -5.500 -26.103  0.00  0.00    +0.008 C 
ATOM     17  C   UNL     1      34.082  -5.283 -28.850  0.00  0.00    +0.037 C 
ATOM     18  C   UNL     1      35.577  -5.195 -26.954  0.00  0.00    +0.037 C 
ATOM     19  C   UNL     1      35.360  -5.087 -28.328  0.00  0.00    +0.134 C 
BRANCH  19  20
ATOM     20  O   UNL     1      36.396  -4.788 -29.158  0.00  0.00    -0.506 OA
ATOM     21  H   UNL     1      37.106  -5.392 -29.258  0.00  0.00    +0.292 HD
ENDBRANCH  19  20
ENDBRANCH  12  14
ENDBRANCH   2  11
BRANCH   3  22
ATOM     22  O   UNL     1      30.885  -7.668 -21.997  0.00  0.00    -0.448 OA
BRANCH  22  24
ATOM     23  O   UNL     1      31.456  -8.536 -19.944  0.00  0.00    -0.245 OA
ATOM     24  C   UNL     1      31.356  -8.623 -21.158  0.00  0.00    +0.341 C 
BRANCH  24  25
ATOM     25  C   UNL     1      31.753  -9.832 -21.922  0.00  0.00    +0.076 C 
ATOM     26  C   UNL     1      32.638  -9.696 -22.973  0.00  0.00    +0.007 C 
ATOM     27  C   UNL     1      31.225 -11.054 -21.561  0.00  0.00    +0.007 C 
ATOM     28  C   UNL     1      33.010 -10.832 -23.693  0.00  0.00    +0.003 C 
ATOM     29  C   UNL     1      31.596 -12.190 -22.280  0.00  0.00    +0.003 C 
ATOM     30  C   UNL     1      32.490 -12.079 -23.346  0.00  0.00    +0.039 C 
BRANCH  30  32
ATOM     31  O   UNL     1      32.693 -13.314 -25.321  0.00  0.00    -0.286 OA
ATOM     32  C   UNL     1      32.877 -13.262 -24.096  0.00  0.00    +0.198 C 
BRANCH  32  33
ATOM     33  C   UNL     1      33.503 -14.453 -23.445  0.00  0.00    +0.073 C 
ATOM     34  C   UNL     1      33.742 -15.586 -24.189  0.00  0.00    +0.137 C 
ATOM     35  C   UNL     1      33.818 -14.361 -22.108  0.00  0.00    +0.006 C 
ATOM     36  C   UNL     1      34.326 -16.685 -23.562  0.00  0.00    +0.037 C 
ATOM     37  C   UNL     1      34.403 -15.460 -21.481  0.00  0.00    +0.000 C 
ATOM     38  C   UNL     1      34.656 -16.623 -22.208  0.00  0.00    +0.003 C 
BRANCH  34  39
ATOM     39  O   UNL     1      33.426 -15.666 -25.512  0.00  0.00    -0.505 OA
ATOM     40  H   UNL     1      33.063 -14.923 -25.954  0.00  0.00    +0.292 HD
ENDBRANCH  34  39
ENDBRANCH  32  33
ENDBRANCH  30  32
ENDBRANCH  24  25
ENDBRANCH  22  24
ENDBRANCH   3  22
TORSDOF 9
ENDMDL
MODEL 6
REMARK VINA RESULT:     -10.7      2.084      5.741
REMARK  Name = 10050566
REMARK  9 active torsions:
REMARK  status: ('A' for Active; 'I' for Inactive)
REMARK    1  A    between atoms: C_2  and  N_11
REMARK    2  A    between atoms: C_3  and  O_22
REMARK    3  A    between atoms: C_12  and  C_14
REMARK    4  A    between atoms: C_19  and  O_20
REMARK    5  A    between atoms: O_22  and  C_24
REMARK    6  A    between atoms: C_24  and  C_25
REMARK    7  A    between atoms: C_30  and  C_32
REMARK    8  A    between atoms: C_32  and  C_33
REMARK    9  A    between atoms: C_34  and  O_39
REMARK                            x       y       z     vdW  Elec       q    Type
REMARK                         _______ _______ _______ _____ _____    ______ ____
ROOT
ATOM      1  N   UNL     1      35.753 -24.950 -15.083  0.00  0.00    +0.385 N 
ATOM      2  C   UNL     1      33.796 -23.660 -15.957  0.00  0.00    +0.091 C 
ATOM      3  C   UNL     1      34.572 -22.337 -16.090  0.00  0.00    +0.185 C 
ATOM      4  C   UNL     1      35.396 -21.904 -14.872  0.00  0.00    +0.043 C 
ATOM      5  C   UNL     1      34.327 -24.665 -14.930  0.00  0.00    -0.058 C 
ATOM      6  C   UNL     1      36.710 -22.662 -14.664  0.00  0.00    -0.020 C 
ATOM      7  C   UNL     1      36.565 -24.108 -14.204  0.00  0.00    -0.082 C 
ATOM      8  H   UNL     1      36.024 -24.776 -16.051  0.00  0.00    -0.084 HD
ATOM      9  H   UNL     1      35.914 -25.925 -14.831  0.00  0.00    -0.084 HD
ENDROOT
BRANCH   2  11
ATOM     10  O   UNL     1      31.881 -22.452 -17.719  0.00  0.00    -0.270 OA
ATOM     11  N   UNL     1      32.404 -23.382 -15.661  0.00  0.00    -0.301 N 
ATOM     12  C   UNL     1      31.560 -22.794 -16.584  0.00  0.00    +0.246 C 
ATOM     13  H   UNL     1      32.048 -23.619 -14.774  0.00  0.00    +0.150 HD
BRANCH  12  14
ATOM     14  C   UNL     1      30.170 -22.551 -16.118  0.00  0.00    +0.054 C 
ATOM     15  C   UNL     1      29.971 -22.069 -14.841  0.00  0.00    +0.008 C 
ATOM     16  C   UNL     1      29.123 -22.815 -16.976  0.00  0.00    +0.008 C 
ATOM     17  C   UNL     1      28.667 -21.841 -14.402  0.00  0.00    +0.037 C 
ATOM     18  C   UNL     1      27.819 -22.586 -16.538  0.00  0.00    +0.037 C 
ATOM     19  C   UNL     1      27.591 -22.098 -15.251  0.00  0.00    +0.134 C 
BRANCH  19  20
ATOM     20  O   UNL     1      26.318 -21.873 -14.824  0.00  0.00    -0.506 OA
ATOM     21  H   UNL     1      25.664 -22.535 -14.936  0.00  0.00    +0.292 HD
ENDBRANCH  19  20
ENDBRANCH  12  14
ENDBRANCH   2  11
BRANCH   3  22
ATOM     22  O   UNL     1      35.408 -22.393 -17.250  0.00  0.00    -0.448 OA
BRANCH  22  24
ATOM     23  O   UNL     1      37.058 -20.856 -16.791  0.00  0.00    -0.245 OA
ATOM     24  C   UNL     1      36.153 -21.285 -17.489  0.00  0.00    +0.341 C 
BRANCH  24  25
ATOM     25  C   UNL     1      35.717 -20.633 -18.749  0.00  0.00    +0.076 C 
ATOM     26  C   UNL     1      34.450 -20.894 -19.231  0.00  0.00    +0.007 C 
ATOM     27  C   UNL     1      36.591 -19.787 -19.400  0.00  0.00    +0.007 C 
ATOM     28  C   UNL     1      34.040 -20.281 -20.416  0.00  0.00    +0.003 C 
ATOM     29  C   UNL     1      36.181 -19.174 -20.584  0.00  0.00    +0.003 C 
ATOM     30  C   UNL     1      34.905 -19.421 -21.092  0.00  0.00    +0.039 C 
BRANCH  30  32
ATOM     31  O   UNL     1      34.240 -19.466 -23.334  0.00  0.00    -0.286 OA
ATOM     32  C   UNL     1      34.479 -18.783 -22.327  0.00  0.00    +0.198 C 
BRANCH  32  33
ATOM     33  C   UNL     1      34.311 -17.303 -22.446  0.00  0.00    +0.073 C 
ATOM     34  C   UNL     1      34.057 -16.746 -23.679  0.00  0.00    +0.137 C 
ATOM     35  C   UNL     1      34.418 -16.551 -21.298  0.00  0.00    +0.006 C 
ATOM     36  C   UNL     1      33.903 -15.363 -23.768  0.00  0.00    +0.037 C 
ATOM     37  C   UNL     1      34.263 -15.168 -21.387  0.00  0.00    +0.000 C 
ATOM     38  C   UNL     1      34.007 -14.574 -22.623  0.00  0.00    +0.003 C 
BRANCH  34  39
ATOM     39  O   UNL     1      33.952 -17.500 -24.809  0.00  0.00    -0.505 OA
ATOM     40  H   UNL     1      33.214 -18.064 -24.930  0.00  0.00    +0.292 HD
ENDBRANCH  34  39
ENDBRANCH  32  33
ENDBRANCH  30  32
ENDBRANCH  24  25
ENDBRANCH  22  24
ENDBRANCH   3  22
TORSDOF 9
ENDMDL
MODEL 7
REMARK VINA RESULT:     -10.6      5.915     13.513
REMARK  Name = 10050566
REMARK  9 active torsions:
REMARK  status: ('A' for Active; 'I' for Inactive)
REMARK    1  A    between atoms: C_2  and  N_11
REMARK    2  A    between atoms: C_3  and  O_22
REMARK    3  A    between atoms: C_12  and  C_14
REMARK    4  A    between atoms: C_19  and  O_20
REMARK    5  A    between atoms: O_22  and  C_24
REMARK    6  A    between atoms: C_24  and  C_25
REMARK    7  A    between atoms: C_30  and  C_32
REMARK    8  A    between atoms: C_32  and  C_33
REMARK    9  A    between atoms: C_34  and  O_39
REMARK                            x       y       z     vdW  Elec       q    Type
REMARK                         _______ _______ _______ _____ _____    ______ ____
ROOT
ATOM      1  N   UNL     1      30.869 -11.843 -20.773  0.00  0.00    +0.385 N 
ATOM      2  C   UNL     1      31.820 -10.795 -22.836  0.00  0.00    +0.091 C 
ATOM      3  C   UNL     1      32.874 -11.895 -23.056  0.00  0.00    +0.185 C 
ATOM      4  C   UNL     1      33.719 -12.284 -21.838  0.00  0.00    +0.043 C 
ATOM      5  C   UNL     1      31.322 -10.601 -21.400  0.00  0.00    -0.058 C 
ATOM      6  C   UNL     1      33.012 -13.160 -20.801  0.00  0.00    -0.020 C 
ATOM      7  C   UNL     1      31.933 -12.461 -19.981  0.00  0.00    -0.082 C 
ATOM      8  H   UNL     1      30.576 -12.495 -21.501  0.00  0.00    -0.084 HD
ATOM      9  H   UNL     1      30.093 -11.622 -20.149  0.00  0.00    -0.084 HD
ENDROOT
BRANCH   2  11
ATOM     10  O   UNL     1      30.432  -8.284 -22.842  0.00  0.00    -0.270 OA
ATOM     11  N   UNL     1      32.327  -9.528 -23.329  0.00  0.00    -0.301 N 
ATOM     12  C   UNL     1      31.574  -8.369 -23.286  0.00  0.00    +0.246 C 
ATOM     13  H   UNL     1      33.235  -9.491 -23.706  0.00  0.00    +0.150 HD
BRANCH  12  14
ATOM     14  C   UNL     1      32.225  -7.161 -23.854  0.00  0.00    +0.054 C 
ATOM     15  C   UNL     1      33.369  -6.677 -23.254  0.00  0.00    +0.008 C 
ATOM     16  C   UNL     1      31.666  -6.560 -24.963  0.00  0.00    +0.008 C 
ATOM     17  C   UNL     1      33.981  -5.542 -23.787  0.00  0.00    +0.037 C 
ATOM     18  C   UNL     1      32.277  -5.427 -25.496  0.00  0.00    +0.037 C 
ATOM     19  C   UNL     1      33.436  -4.918 -24.908  0.00  0.00    +0.134 C 
BRANCH  19  20
ATOM     20  O   UNL     1      34.033  -3.812 -25.430  0.00  0.00    -0.506 OA
ATOM     21  H   UNL     1      34.953  -3.819 -25.613  0.00  0.00    +0.292 HD
ENDBRANCH  19  20
ENDBRANCH  12  14
ENDBRANCH   2  11
BRANCH   3  22
ATOM     22  O   UNL     1      32.240 -13.055 -23.602  0.00  0.00    -0.448 OA
BRANCH  22  24
ATOM     23  O   UNL     1      33.139 -13.400 -25.693  0.00  0.00    -0.245 OA
ATOM     24  C   UNL     1      32.958 -13.733 -24.532  0.00  0.00    +0.341 C 
BRANCH  24  25
ATOM     25  C   UNL     1      33.517 -14.977 -23.945  0.00  0.00    +0.076 C 
ATOM     26  C   UNL     1      34.192 -14.903 -22.744  0.00  0.00    +0.007 C 
ATOM     27  C   UNL     1      33.346 -16.168 -24.620  0.00  0.00    +0.007 C 
ATOM     28  C   UNL     1      34.718 -16.072 -22.193  0.00  0.00    +0.003 C 
ATOM     29  C   UNL     1      33.871 -17.337 -24.070  0.00  0.00    +0.003 C 
ATOM     30  C   UNL     1      34.558 -17.289 -22.855  0.00  0.00    +0.039 C 
BRANCH  30  32
ATOM     31  O   UNL     1      36.230 -18.906 -22.619  0.00  0.00    -0.286 OA
ATOM     32  C   UNL     1      35.106 -18.507 -22.282  0.00  0.00    +0.198 C 
BRANCH  32  33
ATOM     33  C   UNL     1      34.360 -19.326 -21.278  0.00  0.00    +0.073 C 
ATOM     34  C   UNL     1      35.050 -19.959 -20.270  0.00  0.00    +0.137 C 
ATOM     35  C   UNL     1      32.992 -19.410 -21.410  0.00  0.00    +0.006 C 
ATOM     36  C   UNL     1      34.336 -20.717 -19.345  0.00  0.00    +0.037 C 
ATOM     37  C   UNL     1      32.277 -20.168 -20.483  0.00  0.00    +0.000 C 
ATOM     38  C   UNL     1      32.949 -20.823 -19.451  0.00  0.00    +0.003 C 
BRANCH  34  39
ATOM     39  O   UNL     1      36.405 -19.868 -20.150  0.00  0.00    -0.505 OA
ATOM     40  H   UNL     1      36.894 -20.588 -19.801  0.00  0.00    +0.292 HD
ENDBRANCH  34  39
ENDBRANCH  32  33
ENDBRANCH  30  32
ENDBRANCH  24  25
ENDBRANCH  22  24
ENDBRANCH   3  22
TORSDOF 9
ENDMDL
