MODEL 1
REMARK VINA RESULT:     -11.9      0.000      0.000
REMARK  Name = 24836810
REMARK  6 active torsions:
REMARK  status: ('A' for Active; 'I' for Inactive)
REMARK    1  A    between atoms: C_9  and  C_12
REMARK    2  A    between atoms: C_10  and  C_19
REMARK    3  A    between atoms: C_20  and  C_23
REMARK    4  A    between atoms: C_23  and  C_27
REMARK    5  A    between atoms: C_23  and  O_28
REMARK    6  A    between atoms: C_23  and  O_30
REMARK                            x       y       z     vdW  Elec       q    Type
REMARK                         _______ _______ _______ _____ _____    ______ ____
ROOT
ATOM      1  O   UNL     1      31.585 -21.820 -17.924  0.00  0.00    -0.269 OA
ATOM      2  N   UNL     1      34.546 -19.169 -20.629  0.00  0.00    -0.271 N 
ATOM      3  N   UNL     1      33.492 -21.280 -19.165  0.00  0.00    -0.267 N 
ATOM      4  N   UNL     1      36.666 -19.651 -20.219  0.00  0.00    -0.230 NA
ATOM      5  C   UNL     1      33.107 -19.314 -20.584  0.00  0.00    +0.118 C 
ATOM      6  C   UNL     1      32.725 -20.762 -20.304  0.00  0.00    +0.116 C 
ATOM      7  C   UNL     1      34.961 -21.261 -19.308  0.00  0.00    +0.155 C 
ATOM      8  C   UNL     1      35.421 -20.042 -20.032  0.00  0.00    +0.133 C 
ATOM      9  C   UNL     1      35.261 -18.175 -21.220  0.00  0.00    +0.072 C 
ATOM     10  C   UNL     1      32.807 -21.796 -18.058  0.00  0.00    +0.255 C 
ATOM     11  C   UNL     1      36.573 -18.493 -20.953  0.00  0.00    +0.115 C 
ENDROOT
BRANCH   9  12
ATOM     12  C   UNL     1      34.698 -17.057 -21.936  0.00  0.00    +0.015 C 
ATOM     13  C   UNL     1      34.451 -17.160 -23.306  0.00  0.00    +0.001 C 
ATOM     14  C   UNL     1      34.400 -15.874 -21.261  0.00  0.00    +0.001 C 
ATOM     15  C   UNL     1      33.908 -16.079 -24.000  0.00  0.00    +0.000 C 
ATOM     16  C   UNL     1      33.856 -14.793 -21.955  0.00  0.00    +0.000 C 
ATOM     17  C   UNL     1      33.610 -14.895 -23.325  0.00  0.00    +0.000 C 
ENDBRANCH   9  12
BRANCH  10  19
ATOM     18  S   UNL     1      35.278 -22.056 -16.888  0.00  0.00    -0.082 S 
ATOM     19  C   UNL     1      33.597 -22.370 -16.958  0.00  0.00    +0.083 C 
ATOM     20  C   UNL     1      35.446 -22.983 -15.457  0.00  0.00    +0.066 C 
ATOM     21  C   UNL     1      33.174 -23.163 -15.915  0.00  0.00    +0.011 C 
ATOM     22  C   UNL     1      34.245 -23.519 -15.044  0.00  0.00    +0.008 C 
BRANCH  20  23
ATOM     23  C   UNL     1      36.779 -23.116 -14.828  0.00  0.00    +0.297 C 
BRANCH  23  27
ATOM     24  F   UNL     1      36.559 -25.461 -15.306  0.00  0.00    -0.165 F 
ATOM     25  F   UNL     1      38.431 -24.785 -14.419  0.00  0.00    -0.165 F 
ATOM     26  F   UNL     1      36.613 -24.863 -13.212  0.00  0.00    -0.165 F 
ATOM     27  C   UNL     1      37.098 -24.572 -14.439  0.00  0.00    +0.449 C 
ENDBRANCH  23  27
BRANCH  23  28
ATOM     28  O   UNL     1      37.817 -22.657 -15.718  0.00  0.00    -0.354 OA
ATOM     29  H   UNL     1      37.451 -22.000 -16.330  0.00  0.00    +0.213 HD
ENDBRANCH  23  28
BRANCH  23  30
ATOM     30  O   UNL     1      36.867 -22.309 -13.635  0.00  0.00    -0.354 OA
ATOM     31  H   UNL     1      37.679 -22.533 -13.153  0.00  0.00    +0.213 HD
ENDBRANCH  23  30
ENDBRANCH  20  23
ENDBRANCH  10  19
TORSDOF 6
ENDMDL
MODEL 2
REMARK VINA RESULT:     -11.8      1.182      1.816
REMARK  Name = 24836810
REMARK  6 active torsions:
REMARK  status: ('A' for Active; 'I' for Inactive)
REMARK    1  A    between atoms: C_9  and  C_12
REMARK    2  A    between atoms: C_10  and  C_19
REMARK    3  A    between atoms: C_20  and  C_23
REMARK    4  A    between atoms: C_23  and  C_27
REMARK    5  A    between atoms: C_23  and  O_28
REMARK    6  A    between atoms: C_23  and  O_30
REMARK                            x       y       z     vdW  Elec       q    Type
REMARK                         _______ _______ _______ _____ _____    ______ ____
ROOT
ATOM      1  O   UNL     1      32.075 -21.626 -18.191  0.00  0.00    -0.269 OA
ATOM      2  N   UNL     1      34.693 -18.828 -21.094  0.00  0.00    -0.271 N 
ATOM      3  N   UNL     1      33.875 -20.974 -19.534  0.00  0.00    -0.267 N 
ATOM      4  N   UNL     1      36.861 -19.135 -20.775  0.00  0.00    -0.230 NA
ATOM      5  C   UNL     1      33.273 -19.082 -20.977  0.00  0.00    +0.118 C 
ATOM      6  C   UNL     1      33.018 -20.547 -20.647  0.00  0.00    +0.116 C 
ATOM      7  C   UNL     1      35.330 -20.847 -19.747  0.00  0.00    +0.155 C 
ATOM      8  C   UNL     1      35.660 -19.616 -20.521  0.00  0.00    +0.133 C 
ATOM      9  C   UNL     1      35.300 -17.798 -21.741  0.00  0.00    +0.072 C 
ATOM     10  C   UNL     1      33.284 -21.512 -18.384  0.00  0.00    +0.255 C 
ATOM     11  C   UNL     1      36.644 -18.008 -21.531  0.00  0.00    +0.115 C 
ENDROOT
BRANCH   9  12
ATOM     12  C   UNL     1      34.620 -16.745 -22.455  0.00  0.00    +0.015 C 
ATOM     13  C   UNL     1      34.354 -15.532 -21.818  0.00  0.00    +0.001 C 
ATOM     14  C   UNL     1      34.229 -16.939 -23.779  0.00  0.00    +0.001 C 
ATOM     15  C   UNL     1      33.695 -14.513 -22.506  0.00  0.00    +0.000 C 
ATOM     16  C   UNL     1      33.571 -15.919 -24.467  0.00  0.00    +0.000 C 
ATOM     17  C   UNL     1      33.304 -14.707 -23.831  0.00  0.00    +0.000 C 
ENDBRANCH   9  12
BRANCH  10  19
ATOM     18  S   UNL     1      33.536 -23.071 -16.137  0.00  0.00    -0.082 S 
ATOM     19  C   UNL     1      34.166 -21.994 -17.310  0.00  0.00    +0.083 C 
ATOM     20  C   UNL     1      35.042 -23.150 -15.324  0.00  0.00    +0.066 C 
ATOM     21  C   UNL     1      35.492 -21.702 -17.086  0.00  0.00    +0.011 C 
ATOM     22  C   UNL     1      36.001 -22.372 -15.935  0.00  0.00    +0.008 C 
BRANCH  20  23
ATOM     23  C   UNL     1      35.173 -23.995 -14.116  0.00  0.00    +0.297 C 
BRANCH  23  27
ATOM     24  F   UNL     1      37.327 -24.801 -14.814  0.00  0.00    -0.165 F 
ATOM     25  F   UNL     1      36.335 -25.857 -13.187  0.00  0.00    -0.165 F 
ATOM     26  F   UNL     1      35.599 -26.060 -15.232  0.00  0.00    -0.165 F 
ATOM     27  C   UNL     1      36.120 -25.189 -14.340  0.00  0.00    +0.449 C 
ENDBRANCH  23  27
BRANCH  23  28
ATOM     28  O   UNL     1      35.680 -23.229 -13.003  0.00  0.00    -0.354 OA
ATOM     29  H   UNL     1      36.072 -22.405 -13.330  0.00  0.00    +0.213 HD
ENDBRANCH  23  28
BRANCH  23  30
ATOM     30  O   UNL     1      33.890 -24.517 -13.712  0.00  0.00    -0.354 OA
ATOM     31  H   UNL     1      33.223 -24.284 -14.376  0.00  0.00    +0.213 HD
ENDBRANCH  23  30
ENDBRANCH  20  23
ENDBRANCH  10  19
TORSDOF 6
ENDMDL
MODEL 3
REMARK VINA RESULT:     -11.8      1.435      1.952
REMARK  Name = 24836810
REMARK  6 active torsions:
REMARK  status: ('A' for Active; 'I' for Inactive)
REMARK    1  A    between atoms: C_9  and  C_12
REMARK    2  A    between atoms: C_10  and  C_19
REMARK    3  A    between atoms: C_20  and  C_23
REMARK    4  A    between atoms: C_23  and  C_27
REMARK    5  A    between atoms: C_23  and  O_28
REMARK    6  A    between atoms: C_23  and  O_30
REMARK                            x       y       z     vdW  Elec       q    Type
REMARK                         _______ _______ _______ _____ _____    ______ ____
ROOT
ATOM      1  O   UNL     1      30.856 -21.854 -17.499  0.00  0.00    -0.269 OA
ATOM      2  N   UNL     1      34.257 -19.839 -20.235  0.00  0.00    -0.271 N 
ATOM      3  N   UNL     1      32.877 -21.662 -18.660  0.00  0.00    -0.267 N 
ATOM      4  N   UNL     1      36.278 -20.523 -19.650  0.00  0.00    -0.230 NA
ATOM      5  C   UNL     1      32.810 -19.809 -20.270  0.00  0.00    +0.118 C 
ATOM      6  C   UNL     1      32.240 -21.169 -19.887  0.00  0.00    +0.116 C 
ATOM      7  C   UNL     1      34.342 -21.829 -18.710  0.00  0.00    +0.155 C 
ATOM      8  C   UNL     1      34.986 -20.747 -19.510  0.00  0.00    +0.133 C 
ATOM      9  C   UNL     1      35.118 -18.996 -20.866  0.00  0.00    +0.072 C 
ATOM     10  C   UNL     1      32.077 -21.986 -17.557  0.00  0.00    +0.255 C 
ATOM     11  C   UNL     1      36.365 -19.439 -20.490  0.00  0.00    +0.115 C 
ENDROOT
BRANCH   9  12
ATOM     12  C   UNL     1      34.734 -17.894 -21.713  0.00  0.00    +0.015 C 
ATOM     13  C   UNL     1      34.741 -16.593 -21.208  0.00  0.00    +0.001 C 
ATOM     14  C   UNL     1      34.358 -18.126 -23.035  0.00  0.00    +0.001 C 
ATOM     15  C   UNL     1      34.369 -15.525 -22.025  0.00  0.00    +0.000 C 
ATOM     16  C   UNL     1      33.987 -17.059 -23.853  0.00  0.00    +0.000 C 
ATOM     17  C   UNL     1      33.993 -15.758 -23.348  0.00  0.00    +0.000 C 
ENDBRANCH   9  12
BRANCH  10  19
ATOM     18  S   UNL     1      34.373 -23.019 -16.458  0.00  0.00    -0.082 S 
ATOM     19  C   UNL     1      32.732 -22.540 -16.362  0.00  0.00    +0.083 C 
ATOM     20  C   UNL     1      34.383 -23.503 -14.815  0.00  0.00    +0.066 C 
ATOM     21  C   UNL     1      32.206 -22.744 -15.106  0.00  0.00    +0.011 C 
ATOM     22  C   UNL     1      33.162 -23.302 -14.209  0.00  0.00    +0.008 C 
BRANCH  20  23
ATOM     23  C   UNL     1      35.624 -24.054 -14.227  0.00  0.00    +0.297 C 
BRANCH  23  27
ATOM     24  F   UNL     1      36.826 -21.984 -14.440  0.00  0.00    -0.165 F 
ATOM     25  F   UNL     1      35.839 -22.384 -12.539  0.00  0.00    -0.165 F 
ATOM     26  F   UNL     1      37.642 -23.486 -13.089  0.00  0.00    -0.165 F 
ATOM     27  C   UNL     1      36.492 -22.964 -13.569  0.00  0.00    +0.449 C 
ENDBRANCH  23  27
BRANCH  23  28
ATOM     28  O   UNL     1      35.323 -25.047 -13.224  0.00  0.00    -0.354 OA
ATOM     29  H   UNL     1      34.470 -24.842 -12.813  0.00  0.00    +0.213 HD
ENDBRANCH  23  28
BRANCH  23  30
ATOM     30  O   UNL     1      36.423 -24.709 -15.233  0.00  0.00    -0.354 OA
ATOM     31  H   UNL     1      36.573 -25.632 -14.977  0.00  0.00    +0.213 HD
ENDBRANCH  23  30
ENDBRANCH  20  23
ENDBRANCH  10  19
TORSDOF 6
ENDMDL
MODEL 4
REMARK VINA RESULT:     -11.4      5.948      9.809
REMARK  Name = 24836810
REMARK  6 active torsions:
REMARK  status: ('A' for Active; 'I' for Inactive)
REMARK    1  A    between atoms: C_9  and  C_12
REMARK    2  A    between atoms: C_10  and  C_19
REMARK    3  A    between atoms: C_20  and  C_23
REMARK    4  A    between atoms: C_23  and  C_27
REMARK    5  A    between atoms: C_23  and  O_28
REMARK    6  A    between atoms: C_23  and  O_30
REMARK                            x       y       z     vdW  Elec       q    Type
REMARK                         _______ _______ _______ _____ _____    ______ ____
ROOT
ATOM      1  O   UNL     1      37.130 -18.357 -20.769  0.00  0.00    -0.269 OA
ATOM      2  N   UNL     1      33.971 -21.230 -18.560  0.00  0.00    -0.271 N 
ATOM      3  N   UNL     1      35.205 -19.656 -20.485  0.00  0.00    -0.267 N 
ATOM      4  N   UNL     1      31.904 -20.838 -19.244  0.00  0.00    -0.230 NA
ATOM      5  C   UNL     1      35.416 -21.153 -18.551  0.00  0.00    +0.118 C 
ATOM      6  C   UNL     1      35.941 -20.803 -19.938  0.00  0.00    +0.116 C 
ATOM      7  C   UNL     1      33.747 -19.826 -20.627  0.00  0.00    +0.155 C 
ATOM      8  C   UNL     1      33.178 -20.612 -19.494  0.00  0.00    +0.133 C 
ATOM      9  C   UNL     1      33.170 -21.878 -17.672  0.00  0.00    +0.072 C 
ATOM     10  C   UNL     1      35.915 -18.515 -20.879  0.00  0.00    +0.255 C 
ATOM     11  C   UNL     1      31.893 -21.621 -18.115  0.00  0.00    +0.115 C 
ENDROOT
BRANCH   9  12
ATOM     12  C   UNL     1      33.630 -22.632 -16.532  0.00  0.00    +0.015 C 
ATOM     13  C   UNL     1      32.705 -23.217 -15.666  0.00  0.00    +0.001 C 
ATOM     14  C   UNL     1      34.996 -22.779 -16.296  0.00  0.00    +0.001 C 
ATOM     15  C   UNL     1      33.147 -23.946 -14.562  0.00  0.00    +0.000 C 
ATOM     16  C   UNL     1      35.438 -23.509 -15.193  0.00  0.00    +0.000 C 
ATOM     17  C   UNL     1      34.515 -24.092 -14.325  0.00  0.00    +0.000 C 
ENDBRANCH   9  12
BRANCH  10  19
ATOM     18  S   UNL     1      34.959 -17.369 -23.185  0.00  0.00    -0.082 S 
ATOM     19  C   UNL     1      35.165 -17.405 -21.486  0.00  0.00    +0.083 C 
ATOM     20  C   UNL     1      34.065 -15.910 -23.100  0.00  0.00    +0.066 C 
ATOM     21  C   UNL     1      34.566 -16.329 -20.870  0.00  0.00    +0.011 C 
ATOM     22  C   UNL     1      33.929 -15.462 -21.804  0.00  0.00    +0.008 C 
BRANCH  20  23
ATOM     23  C   UNL     1      33.549 -15.300 -24.345  0.00  0.00    +0.297 C 
BRANCH  23  27
ATOM     24  F   UNL     1      32.028 -13.753 -23.310  0.00  0.00    -0.165 F 
ATOM     25  F   UNL     1      34.089 -13.102 -23.595  0.00  0.00    -0.165 F 
ATOM     26  F   UNL     1      32.748 -13.270 -25.309  0.00  0.00    -0.165 F 
ATOM     27  C   UNL     1      33.097 -13.842 -24.136  0.00  0.00    +0.449 C 
ENDBRANCH  23  27
BRANCH  23  28
ATOM     28  O   UNL     1      34.555 -15.308 -25.380  0.00  0.00    -0.354 OA
ATOM     29  H   UNL     1      35.289 -15.881 -25.111  0.00  0.00    +0.213 HD
ENDBRANCH  23  28
BRANCH  23  30
ATOM     30  O   UNL     1      32.423 -16.044 -24.854  0.00  0.00    -0.354 OA
ATOM     31  H   UNL     1      32.733 -16.880 -25.235  0.00  0.00    +0.213 HD
ENDBRANCH  23  30
ENDBRANCH  20  23
ENDBRANCH  10  19
TORSDOF 6
ENDMDL
MODEL 5
REMARK VINA RESULT:     -10.9      5.688      9.457
REMARK  Name = 24836810
REMARK  6 active torsions:
REMARK  status: ('A' for Active; 'I' for Inactive)
REMARK    1  A    between atoms: C_9  and  C_12
REMARK    2  A    between atoms: C_10  and  C_19
REMARK    3  A    between atoms: C_20  and  C_23
REMARK    4  A    between atoms: C_23  and  C_27
REMARK    5  A    between atoms: C_23  and  O_28
REMARK    6  A    between atoms: C_23  and  O_30
REMARK                            x       y       z     vdW  Elec       q    Type
REMARK                         _______ _______ _______ _____ _____    ______ ____
ROOT
ATOM      1  O   UNL     1      37.000 -17.898 -21.677  0.00  0.00    -0.269 OA
ATOM      2  N   UNL     1      34.036 -20.807 -19.255  0.00  0.00    -0.271 N 
ATOM      3  N   UNL     1      35.131 -19.244 -21.272  0.00  0.00    -0.267 N 
ATOM      4  N   UNL     1      31.928 -20.491 -19.848  0.00  0.00    -0.230 NA
ATOM      5  C   UNL     1      35.477 -20.688 -19.317  0.00  0.00    +0.118 C 
ATOM      6  C   UNL     1      35.925 -20.356 -20.734  0.00  0.00    +0.116 C 
ATOM      7  C   UNL     1      33.673 -19.459 -21.339  0.00  0.00    +0.155 C 
ATOM      8  C   UNL     1      33.182 -20.234 -20.164  0.00  0.00    +0.133 C 
ATOM      9  C   UNL     1      33.298 -21.456 -18.315  0.00  0.00    +0.072 C 
ATOM     10  C   UNL     1      35.787 -18.093 -21.725  0.00  0.00    +0.255 C 
ATOM     11  C   UNL     1      31.994 -21.247 -18.702  0.00  0.00    +0.115 C 
ENDROOT
BRANCH   9  12
ATOM     12  C   UNL     1      33.833 -22.169 -17.182  0.00  0.00    +0.015 C 
ATOM     13  C   UNL     1      33.007 -23.012 -16.437  0.00  0.00    +0.001 C 
ATOM     14  C   UNL     1      35.174 -22.018 -16.831  0.00  0.00    +0.001 C 
ATOM     15  C   UNL     1      33.522 -23.702 -15.339  0.00  0.00    +0.000 C 
ATOM     16  C   UNL     1      35.689 -22.709 -15.734  0.00  0.00    +0.000 C 
ATOM     17  C   UNL     1      34.864 -23.551 -14.988  0.00  0.00    +0.000 C 
ENDBRANCH   9  12
BRANCH  10  19
ATOM     18  S   UNL     1      34.607 -15.637 -21.380  0.00  0.00    -0.082 S 
ATOM     19  C   UNL     1      34.976 -17.020 -22.320  0.00  0.00    +0.083 C 
ATOM     20  C   UNL     1      33.722 -14.932 -22.667  0.00  0.00    +0.066 C 
ATOM     21  C   UNL     1      34.437 -16.944 -23.585  0.00  0.00    +0.011 C 
ATOM     22  C   UNL     1      33.711 -15.735 -23.786  0.00  0.00    +0.008 C 
BRANCH  20  23
ATOM     23  C   UNL     1      33.093 -13.607 -22.477  0.00  0.00    +0.297 C 
BRANCH  23  27
ATOM     24  F   UNL     1      32.290 -14.544 -20.415  0.00  0.00    -0.165 F 
ATOM     25  F   UNL     1      33.605 -12.812 -20.289  0.00  0.00    -0.165 F 
ATOM     26  F   UNL     1      31.548 -12.575 -20.980  0.00  0.00    -0.165 F 
ATOM     27  C   UNL     1      32.629 -13.385 -21.025  0.00  0.00    +0.449 C 
ENDBRANCH  23  27
BRANCH  23  28
ATOM     28  O   UNL     1      34.010 -12.546 -22.817  0.00  0.00    -0.354 OA
ATOM     29  H   UNL     1      34.100 -11.943 -22.063  0.00  0.00    +0.213 HD
ENDBRANCH  23  28
BRANCH  23  30
ATOM     30  O   UNL     1      31.944 -13.455 -23.337  0.00  0.00    -0.354 OA
ATOM     31  H   UNL     1      31.659 -12.528 -23.333  0.00  0.00    +0.213 HD
ENDBRANCH  23  30
ENDBRANCH  20  23
ENDBRANCH  10  19
TORSDOF 6
ENDMDL
MODEL 6
REMARK VINA RESULT:      -9.8      7.181     10.036
REMARK  Name = 24836810
REMARK  6 active torsions:
REMARK  status: ('A' for Active; 'I' for Inactive)
REMARK    1  A    between atoms: C_9  and  C_12
REMARK    2  A    between atoms: C_10  and  C_19
REMARK    3  A    between atoms: C_20  and  C_23
REMARK    4  A    between atoms: C_23  and  C_27
REMARK    5  A    between atoms: C_23  and  O_28
REMARK    6  A    between atoms: C_23  and  O_30
REMARK                            x       y       z     vdW  Elec       q    Type
REMARK                         _______ _______ _______ _____ _____    ______ ____
ROOT
ATOM      1  O   UNL     1      31.602 -13.724 -19.870  0.00  0.00    -0.269 OA
ATOM      2  N   UNL     1      32.080  -9.473 -22.063  0.00  0.00    -0.271 N 
ATOM      3  N   UNL     1      31.811 -12.203 -21.634  0.00  0.00    -0.267 N 
ATOM      4  N   UNL     1      33.238  -9.655 -23.940  0.00  0.00    -0.230 NA
ATOM      5  C   UNL     1      31.347  -9.909 -20.894  0.00  0.00    +0.118 C 
ATOM      6  C   UNL     1      30.775 -11.304 -21.112  0.00  0.00    +0.116 C 
ATOM      7  C   UNL     1      32.431 -11.807 -22.913  0.00  0.00    +0.155 C 
ATOM      8  C   UNL     1      32.606 -10.329 -22.998  0.00  0.00    +0.133 C 
ATOM      9  C   UNL     1      32.389  -8.198 -22.420  0.00  0.00    +0.072 C 
ATOM     10  C   UNL     1      32.109 -13.379 -20.936  0.00  0.00    +0.255 C 
ATOM     11  C   UNL     1      33.107  -8.334 -23.585  0.00  0.00    +0.115 C 
ENDROOT
BRANCH   9  12
ATOM     12  C   UNL     1      32.026  -7.014 -21.680  0.00  0.00    +0.015 C 
ATOM     13  C   UNL     1      31.024  -6.171 -22.163  0.00  0.00    +0.001 C 
ATOM     14  C   UNL     1      32.673  -6.713 -20.482  0.00  0.00    +0.001 C 
ATOM     15  C   UNL     1      30.672  -5.026 -21.449  0.00  0.00    +0.000 C 
ATOM     16  C   UNL     1      32.321  -5.567 -19.768  0.00  0.00    +0.000 C 
ATOM     17  C   UNL     1      31.320  -4.724 -20.251  0.00  0.00    +0.000 C 
ENDBRANCH   9  12
BRANCH  10  19
ATOM     18  S   UNL     1      33.529 -15.713 -20.650  0.00  0.00    -0.082 S 
ATOM     19  C   UNL     1      33.104 -14.297 -21.512  0.00  0.00    +0.083 C 
ATOM     20  C   UNL     1      34.629 -16.193 -21.873  0.00  0.00    +0.066 C 
ATOM     21  C   UNL     1      33.786 -14.193 -22.704  0.00  0.00    +0.011 C 
ATOM     22  C   UNL     1      34.669 -15.291 -22.914  0.00  0.00    +0.008 C 
BRANCH  20  23
ATOM     23  C   UNL     1      35.387 -17.453 -21.715  0.00  0.00    +0.297 C 
BRANCH  23  27
ATOM     24  F   UNL     1      33.505 -18.347 -22.912  0.00  0.00    -0.165 F 
ATOM     25  F   UNL     1      35.325 -19.544 -22.859  0.00  0.00    -0.165 F 
ATOM     26  F   UNL     1      34.092 -19.349 -21.068  0.00  0.00    -0.165 F 
ATOM     27  C   UNL     1      34.567 -18.684 -22.144  0.00  0.00    +0.449 C 
ENDBRANCH  23  27
BRANCH  23  28
ATOM     28  O   UNL     1      36.597 -17.429 -22.502  0.00  0.00    -0.354 OA
ATOM     29  H   UNL     1      36.382 -17.196 -23.418  0.00  0.00    +0.213 HD
ENDBRANCH  23  28
BRANCH  23  30
ATOM     30  O   UNL     1      35.788 -17.644 -20.342  0.00  0.00    -0.354 OA
ATOM     31  H   UNL     1      35.020 -17.915 -19.816  0.00  0.00    +0.213 HD
ENDBRANCH  23  30
ENDBRANCH  20  23
ENDBRANCH  10  19
TORSDOF 6
ENDMDL
MODEL 7
REMARK VINA RESULT:      -9.7     11.647     15.075
REMARK  Name = 24836810
REMARK  6 active torsions:
REMARK  status: ('A' for Active; 'I' for Inactive)
REMARK    1  A    between atoms: C_9  and  C_12
REMARK    2  A    between atoms: C_10  and  C_19
REMARK    3  A    between atoms: C_20  and  C_23
REMARK    4  A    between atoms: C_23  and  C_27
REMARK    5  A    between atoms: C_23  and  O_28
REMARK    6  A    between atoms: C_23  and  O_30
REMARK                            x       y       z     vdW  Elec       q    Type
REMARK                         _______ _______ _______ _____ _____    ______ ____
ROOT
ATOM      1  O   UNL     1      34.097  -8.016 -24.211  0.00  0.00    -0.269 OA
ATOM      2  N   UNL     1      32.723 -12.156 -22.191  0.00  0.00    -0.271 N 
ATOM      3  N   UNL     1      32.664  -9.582 -23.230  0.00  0.00    -0.267 N 
ATOM      4  N   UNL     1      31.099 -11.841 -20.722  0.00  0.00    -0.230 NA
ATOM      5  C   UNL     1      33.647 -11.831 -23.257  0.00  0.00    +0.118 C 
ATOM      6  C   UNL     1      33.110 -10.680 -24.097  0.00  0.00    +0.116 C 
ATOM      7  C   UNL     1      31.606  -9.911 -22.256  0.00  0.00    +0.155 C 
ATOM      8  C   UNL     1      31.786 -11.283 -21.700  0.00  0.00    +0.133 C 
ATOM      9  C   UNL     1      32.635 -13.323 -21.498  0.00  0.00    +0.072 C 
ATOM     10  C   UNL     1      33.216  -8.307 -23.404  0.00  0.00    +0.255 C 
ATOM     11  C   UNL     1      31.622 -13.105 -20.593  0.00  0.00    +0.115 C 
ENDROOT
BRANCH   9  12
ATOM     12  C   UNL     1      33.465 -14.483 -21.710  0.00  0.00    +0.015 C 
ATOM     13  C   UNL     1      33.859 -15.264 -20.623  0.00  0.00    +0.001 C 
ATOM     14  C   UNL     1      33.873 -14.824 -22.999  0.00  0.00    +0.001 C 
ATOM     15  C   UNL     1      34.664 -16.386 -20.826  0.00  0.00    +0.000 C 
ATOM     16  C   UNL     1      34.676 -15.947 -23.202  0.00  0.00    +0.000 C 
ATOM     17  C   UNL     1      35.072 -16.728 -22.115  0.00  0.00    +0.000 C 
ENDBRANCH   9  12
BRANCH  10  19
ATOM     18  S   UNL     1      31.272  -6.402 -23.039  0.00  0.00    -0.082 S 
ATOM     19  C   UNL     1      32.706  -7.209 -22.569  0.00  0.00    +0.083 C 
ATOM     20  C   UNL     1      31.345  -5.364 -21.678  0.00  0.00    +0.066 C 
ATOM     21  C   UNL     1      33.228  -6.698 -21.402  0.00  0.00    +0.011 C 
ATOM     22  C   UNL     1      32.440  -5.630 -20.885  0.00  0.00    +0.008 C 
BRANCH  20  23
ATOM     23  C   UNL     1      30.293  -4.343 -21.484  0.00  0.00    +0.297 C 
BRANCH  23  27
ATOM     24  F   UNL     1      29.830  -2.014 -21.858  0.00  0.00    -0.165 F 
ATOM     25  F   UNL     1      31.866  -2.707 -22.214  0.00  0.00    -0.165 F 
ATOM     26  F   UNL     1      30.269  -3.245 -23.601  0.00  0.00    -0.165 F 
ATOM     27  C   UNL     1      30.566  -3.063 -22.296  0.00  0.00    +0.449 C 
ENDBRANCH  23  27
BRANCH  23  28
ATOM     28  O   UNL     1      29.002  -4.851 -21.877  0.00  0.00    -0.354 OA
ATOM     29  H   UNL     1      28.311  -4.420 -21.352  0.00  0.00    +0.213 HD
ENDBRANCH  23  28
BRANCH  23  30
ATOM     30  O   UNL     1      30.187  -3.971 -20.094  0.00  0.00    -0.354 OA
ATOM     31  H   UNL     1      29.261  -3.771 -19.882  0.00  0.00    +0.213 HD
ENDBRANCH  23  30
ENDBRANCH  20  23
ENDBRANCH  10  19
TORSDOF 6
ENDMDL
MODEL 8
REMARK VINA RESULT:      -9.4      6.326      7.555
REMARK  Name = 24836810
REMARK  6 active torsions:
REMARK  status: ('A' for Active; 'I' for Inactive)
REMARK    1  A    between atoms: C_9  and  C_12
REMARK    2  A    between atoms: C_10  and  C_19
REMARK    3  A    between atoms: C_20  and  C_23
REMARK    4  A    between atoms: C_23  and  C_27
REMARK    5  A    between atoms: C_23  and  O_28
REMARK    6  A    between atoms: C_23  and  O_30
REMARK                            x       y       z     vdW  Elec       q    Type
REMARK                         _______ _______ _______ _____ _____    ______ ____
ROOT
ATOM      1  O   UNL     1      34.599 -21.614 -15.009  0.00  0.00    -0.269 OA
ATOM      2  N   UNL     1      30.114 -23.330 -14.769  0.00  0.00    -0.271 N 
ATOM      3  N   UNL     1      32.805 -22.901 -14.236  0.00  0.00    -0.267 N 
ATOM      4  N   UNL     1      30.088 -25.439 -14.104  0.00  0.00    -0.230 NA
ATOM      5  C   UNL     1      30.660 -22.017 -15.040  0.00  0.00    +0.118 C 
ATOM      6  C   UNL     1      31.885 -21.759 -14.172  0.00  0.00    +0.116 C 
ATOM      7  C   UNL     1      32.258 -24.201 -13.803  0.00  0.00    +0.155 C 
ATOM      8  C   UNL     1      30.835 -24.358 -14.217  0.00  0.00    +0.133 C 
ATOM      9  C   UNL     1      28.853 -23.770 -15.022  0.00  0.00    +0.072 C 
ATOM     10  C   UNL     1      34.127 -22.691 -14.645  0.00  0.00    +0.255 C 
ATOM     11  C   UNL     1      28.859 -25.080 -14.602  0.00  0.00    +0.115 C 
ENDROOT
BRANCH   9  12
ATOM     12  C   UNL     1      27.799 -22.985 -15.618  0.00  0.00    +0.015 C 
ATOM     13  C   UNL     1      27.615 -23.004 -17.001  0.00  0.00    +0.001 C 
ATOM     14  C   UNL     1      26.966 -22.210 -14.813  0.00  0.00    +0.001 C 
ATOM     15  C   UNL     1      26.597 -22.244 -17.579  0.00  0.00    +0.000 C 
ATOM     16  C   UNL     1      25.948 -21.451 -15.391  0.00  0.00    +0.000 C 
ATOM     17  C   UNL     1      25.763 -21.468 -16.774  0.00  0.00    +0.000 C 
ENDBRANCH   9  12
BRANCH  10  19
ATOM     18  S   UNL     1      36.582 -23.670 -13.898  0.00  0.00    -0.082 S 
ATOM     19  C   UNL     1      35.048 -23.838 -14.639  0.00  0.00    +0.083 C 
ATOM     20  C   UNL     1      37.001 -25.288 -14.276  0.00  0.00    +0.066 C 
ATOM     21  C   UNL     1      34.861 -25.098 -15.162  0.00  0.00    +0.011 C 
ATOM     22  C   UNL     1      35.993 -25.938 -14.953  0.00  0.00    +0.008 C 
BRANCH  20  23
ATOM     23  C   UNL     1      38.323 -25.811 -13.867  0.00  0.00    +0.297 C 
BRANCH  23  27
ATOM     24  F   UNL     1      39.059 -24.088 -15.373  0.00  0.00    -0.165 F 
ATOM     25  F   UNL     1      40.122 -24.295 -13.482  0.00  0.00    -0.165 F 
ATOM     26  F   UNL     1      40.391 -25.783 -15.056  0.00  0.00    -0.165 F 
ATOM     27  C   UNL     1      39.484 -24.985 -14.452  0.00  0.00    +0.449 C 
ENDBRANCH  23  27
BRANCH  23  28
ATOM     28  O   UNL     1      38.457 -25.809 -12.431  0.00  0.00    -0.354 OA
ATOM     29  H   UNL     1      37.578 -25.861 -12.024  0.00  0.00    +0.213 HD
ENDBRANCH  23  28
BRANCH  23  30
ATOM     30  O   UNL     1      38.492 -27.178 -14.298  0.00  0.00    -0.354 OA
ATOM     31  H   UNL     1      39.417 -27.443 -14.178  0.00  0.00    +0.213 HD
ENDBRANCH  23  30
ENDBRANCH  20  23
ENDBRANCH  10  19
TORSDOF 6
ENDMDL
MODEL 9
REMARK VINA RESULT:      -8.9      6.804      9.406
REMARK  Name = 24836810
REMARK  6 active torsions:
REMARK  status: ('A' for Active; 'I' for Inactive)
REMARK    1  A    between atoms: C_9  and  C_12
REMARK    2  A    between atoms: C_10  and  C_19
REMARK    3  A    between atoms: C_20  and  C_23
REMARK    4  A    between atoms: C_23  and  C_27
REMARK    5  A    between atoms: C_23  and  O_28
REMARK    6  A    between atoms: C_23  and  O_30
REMARK                            x       y       z     vdW  Elec       q    Type
REMARK                         _______ _______ _______ _____ _____    ______ ____
ROOT
ATOM      1  O   UNL     1      31.607 -24.868 -12.956  0.00  0.00    -0.269 OA
ATOM      2  N   UNL     1      36.007 -23.529 -14.357  0.00  0.00    -0.271 N 
ATOM      3  N   UNL     1      33.312 -23.447 -13.694  0.00  0.00    -0.267 N 
ATOM      4  N   UNL     1      35.921 -21.892 -15.843  0.00  0.00    -0.230 NA
ATOM      5  C   UNL     1      35.524 -24.457 -13.356  0.00  0.00    +0.118 C 
ATOM      6  C   UNL     1      34.271 -23.911 -12.683  0.00  0.00    +0.116 C 
ATOM      7  C   UNL     1      33.787 -22.386 -14.602  0.00  0.00    +0.155 C 
ATOM      8  C   UNL     1      35.222 -22.579 -14.960  0.00  0.00    +0.133 C 
ATOM      9  C   UNL     1      37.261 -23.450 -14.877  0.00  0.00    +0.072 C 
ATOM     10  C   UNL     1      32.019 -23.985 -13.707  0.00  0.00    +0.255 C 
ATOM     11  C   UNL     1      37.185 -22.429 -15.796  0.00  0.00    +0.115 C 
ENDROOT
BRANCH   9  12
ATOM     12  C   UNL     1      38.370 -24.295 -14.509  0.00  0.00    +0.015 C 
ATOM     13  C   UNL     1      39.286 -24.703 -15.480  0.00  0.00    +0.001 C 
ATOM     14  C   UNL     1      38.529 -24.704 -13.186  0.00  0.00    +0.001 C 
ATOM     15  C   UNL     1      40.359 -25.522 -15.127  0.00  0.00    +0.000 C 
ATOM     16  C   UNL     1      39.603 -25.521 -12.832  0.00  0.00    +0.000 C 
ATOM     17  C   UNL     1      40.518 -25.931 -13.803  0.00  0.00    +0.000 C 
ENDBRANCH   9  12
BRANCH  10  19
ATOM     18  S   UNL     1      29.417 -23.939 -14.583  0.00  0.00    -0.082 S 
ATOM     19  C   UNL     1      31.057 -23.457 -14.685  0.00  0.00    +0.083 C 
ATOM     20  C   UNL     1      28.995 -22.981 -15.939  0.00  0.00    +0.066 C 
ATOM     21  C   UNL     1      31.276 -22.586 -15.729  0.00  0.00    +0.011 C 
ATOM     22  C   UNL     1      30.082 -22.310 -16.456  0.00  0.00    +0.008 C 
BRANCH  20  23
ATOM     23  C   UNL     1      27.590 -22.957 -16.404  0.00  0.00    +0.297 C 
BRANCH  23  27
ATOM     24  F   UNL     1      25.635 -22.252 -15.197  0.00  0.00    -0.165 F 
ATOM     25  F   UNL     1      27.500 -21.199 -14.795  0.00  0.00    -0.165 F 
ATOM     26  F   UNL     1      26.448 -20.881 -16.682  0.00  0.00    -0.165 F 
ATOM     27  C   UNL     1      26.784 -21.812 -15.762  0.00  0.00    +0.449 C 
ENDBRANCH  23  27
BRANCH  23  28
ATOM     28  O   UNL     1      27.524 -22.798 -17.836  0.00  0.00    -0.354 OA
ATOM     29  H   UNL     1      27.268 -21.887 -18.048  0.00  0.00    +0.213 HD
ENDBRANCH  23  28
BRANCH  23  30
ATOM     30  O   UNL     1      26.924 -24.198 -16.092  0.00  0.00    -0.354 OA
ATOM     31  H   UNL     1      25.991 -24.137 -16.349  0.00  0.00    +0.213 HD
ENDBRANCH  23  30
ENDBRANCH  20  23
ENDBRANCH  10  19
TORSDOF 6
ENDMDL
