MODEL 1
REMARK VINA RESULT:     -11.4      0.000      0.000
REMARK  Name = 5289460
REMARK  10 active torsions:
REMARK  status: ('A' for Active; 'I' for Inactive)
REMARK    1  A    between atoms: N_2  and  C_22
REMARK    2  A    between atoms: C_3  and  C_8
REMARK    3  A    between atoms: C_5  and  N_14
REMARK    4  A    between atoms: N_14  and  S_16
REMARK    5  A    between atoms: S_16  and  N_19
REMARK    6  A    between atoms: C_22  and  C_25
REMARK    7  A    between atoms: N_24  and  C_27
REMARK    8  A    between atoms: C_27  and  C_28
REMARK    9  A    between atoms: C_27  and  C_32
REMARK   10  A    between atoms: C_32  and  C_36
REMARK                            x       y       z     vdW  Elec       q    Type
REMARK                         _______ _______ _______ _____ _____    ______ ____
ROOT
ATOM      1  O   UNL     1      34.517 -24.337 -14.619  0.00  0.00    -0.268 OA
ATOM      2  N   UNL     1      34.469 -22.895 -16.472  0.00  0.00    -0.245 N 
ATOM      3  C   UNL     1      35.196 -21.941 -17.223  0.00  0.00    +0.055 C 
ATOM      4  C   UNL     1      35.070 -23.500 -15.331  0.00  0.00    +0.268 C 
ATOM      5  C   UNL     1      36.455 -23.064 -15.014  0.00  0.00    +0.120 C 
ATOM      6  C   UNL     1      36.450 -21.580 -16.896  0.00  0.00    +0.016 C 
ATOM      7  C   UNL     1      37.103 -22.161 -15.752  0.00  0.00    +0.022 C 
ENDROOT
BRANCH   3   8
ATOM      8  C   UNL     1      34.593 -21.317 -18.392  0.00  0.00    +0.014 C 
ATOM      9  C   UNL     1      33.209 -21.353 -18.566  0.00  0.00    +0.001 C 
ATOM     10  C   UNL     1      35.397 -20.681 -19.337  0.00  0.00    +0.001 C 
ATOM     11  C   UNL     1      32.631 -20.755 -19.685  0.00  0.00    +0.000 C 
ATOM     12  C   UNL     1      34.819 -20.083 -20.456  0.00  0.00    +0.000 C 
ATOM     13  C   UNL     1      33.435 -20.119 -20.630  0.00  0.00    +0.000 C 
ENDBRANCH   3   8
BRANCH   5  14
ATOM     14  N   UNL     1      37.130 -23.603 -13.904  0.00  0.00    -0.201 N 
ATOM     15  H   UNL     1      36.988 -23.271 -12.988  0.00  0.00    +0.175 HD
BRANCH  14  16
ATOM     16  S   UNL     1      38.215 -24.883 -14.262  0.00  0.00    +0.110 S 
ATOM     17  O   UNL     1      37.595 -25.800 -15.202  0.00  0.00    -0.138 OA
ATOM     18  O   UNL     1      39.518 -24.311 -14.545  0.00  0.00    -0.138 OA
BRANCH  16  19
ATOM     19  N   UNL     1      38.298 -25.657 -12.730  0.00  0.00    -0.165 NA
ATOM     20  C   UNL     1      37.091 -25.656 -11.880  0.00  0.00    +0.112 C 
ATOM     21  H   UNL     1      39.040 -25.200 -12.200  0.00  0.00    +0.150 HD
ENDBRANCH  16  19
ENDBRANCH  14  16
ENDBRANCH   5  14
BRANCH   2  22
ATOM     22  C   UNL     1      33.134 -23.256 -16.851  0.00  0.00    +0.183 C 
BRANCH  22  25
ATOM     23  O   UNL     1      32.488 -21.998 -14.892  0.00  0.00    -0.273 OA
ATOM     24  N   UNL     1      30.869 -23.201 -16.048  0.00  0.00    -0.298 N 
ATOM     25  C   UNL     1      32.156 -22.725 -15.825  0.00  0.00    +0.243 C 
ATOM     26  H   UNL     1      30.715 -23.778 -16.831  0.00  0.00    +0.150 HD
BRANCH  24  27
ATOM     27  C   UNL     1      29.750 -22.893 -15.196  0.00  0.00    +0.138 C 
BRANCH  27  28
ATOM     28  C   UNL     1      28.469 -22.527 -15.968  0.00  0.00    +0.025 C 
ATOM     29  C   UNL     1      27.433 -21.887 -15.036  0.00  0.00    +0.002 C 
ATOM     30  C   UNL     1      27.838 -23.715 -16.703  0.00  0.00    +0.002 C 
ENDBRANCH  27  28
BRANCH  27  32
ATOM     31  O   UNL     1      28.792 -25.016 -14.538  0.00  0.00    -0.286 OA
ATOM     32  C   UNL     1      29.544 -24.081 -14.262  0.00  0.00    +0.262 C 
BRANCH  32  36
ATOM     33  F   UNL     1      29.650 -24.648 -11.960  0.00  0.00    -0.163 F 
ATOM     34  F   UNL     1      30.668 -22.829 -12.592  0.00  0.00    -0.163 F 
ATOM     35  F   UNL     1      31.497 -24.779 -13.109  0.00  0.00    -0.163 F 
ATOM     36  C   UNL     1      30.338 -24.085 -12.985  0.00  0.00    +0.453 C 
ENDBRANCH  32  36
ENDBRANCH  27  32
ENDBRANCH  24  27
ENDBRANCH  22  25
ENDBRANCH   2  22
TORSDOF 10
ENDMDL
MODEL 2
REMARK VINA RESULT:     -10.3      3.507      7.227
REMARK  Name = 5289460
REMARK  10 active torsions:
REMARK  status: ('A' for Active; 'I' for Inactive)
REMARK    1  A    between atoms: N_2  and  C_22
REMARK    2  A    between atoms: C_3  and  C_8
REMARK    3  A    between atoms: C_5  and  N_14
REMARK    4  A    between atoms: N_14  and  S_16
REMARK    5  A    between atoms: S_16  and  N_19
REMARK    6  A    between atoms: C_22  and  C_25
REMARK    7  A    between atoms: N_24  and  C_27
REMARK    8  A    between atoms: C_27  and  C_28
REMARK    9  A    between atoms: C_27  and  C_32
REMARK   10  A    between atoms: C_32  and  C_36
REMARK                            x       y       z     vdW  Elec       q    Type
REMARK                         _______ _______ _______ _____ _____    ______ ____
ROOT
ATOM      1  O   UNL     1      36.244 -21.443 -17.247  0.00  0.00    -0.268 OA
ATOM      2  N   UNL     1      34.160 -22.131 -16.413  0.00  0.00    -0.245 N 
ATOM      3  C   UNL     1      32.813 -22.419 -16.740  0.00  0.00    +0.055 C 
ATOM      4  C   UNL     1      35.059 -21.714 -17.436  0.00  0.00    +0.268 C 
ATOM      5  C   UNL     1      34.490 -21.614 -18.805  0.00  0.00    +0.120 C 
ATOM      6  C   UNL     1      32.345 -22.314 -17.996  0.00  0.00    +0.016 C 
ATOM      7  C   UNL     1      33.213 -21.898 -19.067  0.00  0.00    +0.022 C 
ENDROOT
BRANCH   3   8
ATOM      8  C   UNL     1      31.885 -22.846 -15.702  0.00  0.00    +0.014 C 
ATOM      9  C   UNL     1      32.056 -22.407 -14.389  0.00  0.00    +0.001 C 
ATOM     10  C   UNL     1      30.823 -23.692 -16.022  0.00  0.00    +0.001 C 
ATOM     11  C   UNL     1      31.167 -22.816 -13.396  0.00  0.00    +0.000 C 
ATOM     12  C   UNL     1      29.934 -24.101 -15.028  0.00  0.00    +0.000 C 
ATOM     13  C   UNL     1      30.105 -23.663 -13.715  0.00  0.00    +0.000 C 
ENDBRANCH   3   8
BRANCH   5  14
ATOM     14  N   UNL     1      35.301 -21.208 -19.880  0.00  0.00    -0.201 N 
ATOM     15  H   UNL     1      36.099 -21.712 -20.158  0.00  0.00    +0.175 HD
BRANCH  14  16
ATOM     16  S   UNL     1      34.797 -19.771 -20.671  0.00  0.00    +0.110 S 
ATOM     17  O   UNL     1      34.661 -20.019 -22.095  0.00  0.00    -0.138 OA
ATOM     18  O   UNL     1      33.697 -19.197 -19.917  0.00  0.00    -0.138 OA
BRANCH  16  19
ATOM     19  N   UNL     1      36.180 -18.781 -20.426  0.00  0.00    -0.165 NA
ATOM     20  C   UNL     1      36.796 -18.138 -21.603  0.00  0.00    +0.112 C 
ATOM     21  H   UNL     1      36.896 -19.363 -19.991  0.00  0.00    +0.150 HD
ENDBRANCH  16  19
ENDBRANCH  14  16
ENDBRANCH   5  14
BRANCH   2  22
ATOM     22  C   UNL     1      34.623 -22.253 -15.062  0.00  0.00    +0.183 C 
BRANCH  22  25
ATOM     23  O   UNL     1      34.944 -24.612 -15.476  0.00  0.00    -0.273 OA
ATOM     24  N   UNL     1      36.303 -23.541 -13.923  0.00  0.00    -0.298 N 
ATOM     25  C   UNL     1      35.294 -23.598 -14.877  0.00  0.00    +0.243 C 
ATOM     26  H   UNL     1      36.502 -22.672 -13.505  0.00  0.00    +0.150 HD
BRANCH  24  27
ATOM     27  C   UNL     1      37.074 -24.687 -13.514  0.00  0.00    +0.138 C 
BRANCH  27  28
ATOM     28  C   UNL     1      38.588 -24.527 -13.748  0.00  0.00    +0.025 C 
ATOM     29  C   UNL     1      38.861 -23.703 -15.011  0.00  0.00    +0.002 C 
ATOM     30  C   UNL     1      39.338 -25.861 -13.830  0.00  0.00    +0.002 C 
ENDBRANCH  27  28
BRANCH  27  32
ATOM     31  O   UNL     1      36.801 -26.097 -11.566  0.00  0.00    -0.286 OA
ATOM     32  C   UNL     1      36.741 -24.967 -12.053  0.00  0.00    +0.262 C 
BRANCH  32  36
ATOM     33  F   UNL     1      36.224 -24.120  -9.896  0.00  0.00    -0.163 F 
ATOM     34  F   UNL     1      35.188 -23.235 -11.597  0.00  0.00    -0.163 F 
ATOM     35  F   UNL     1      37.299 -22.802 -11.259  0.00  0.00    -0.163 F 
ATOM     36  C   UNL     1      36.365 -23.784 -11.204  0.00  0.00    +0.453 C 
ENDBRANCH  32  36
ENDBRANCH  27  32
ENDBRANCH  24  27
ENDBRANCH  22  25
ENDBRANCH   2  22
TORSDOF 10
ENDMDL
MODEL 3
REMARK VINA RESULT:     -10.1      3.458      6.701
REMARK  Name = 5289460
REMARK  10 active torsions:
REMARK  status: ('A' for Active; 'I' for Inactive)
REMARK    1  A    between atoms: N_2  and  C_22
REMARK    2  A    between atoms: C_3  and  C_8
REMARK    3  A    between atoms: C_5  and  N_14
REMARK    4  A    between atoms: N_14  and  S_16
REMARK    5  A    between atoms: S_16  and  N_19
REMARK    6  A    between atoms: C_22  and  C_25
REMARK    7  A    between atoms: N_24  and  C_27
REMARK    8  A    between atoms: C_27  and  C_28
REMARK    9  A    between atoms: C_27  and  C_32
REMARK   10  A    between atoms: C_32  and  C_36
REMARK                            x       y       z     vdW  Elec       q    Type
REMARK                         _______ _______ _______ _____ _____    ______ ____
ROOT
ATOM      1  O   UNL     1      33.973 -23.857 -15.233  0.00  0.00    -0.268 OA
ATOM      2  N   UNL     1      34.021 -22.437 -17.102  0.00  0.00    -0.245 N 
ATOM      3  C   UNL     1      33.239 -21.711 -18.033  0.00  0.00    +0.055 C 
ATOM      4  C   UNL     1      33.378 -23.197 -16.084  0.00  0.00    +0.268 C 
ATOM      5  C   UNL     1      31.892 -23.163 -16.083  0.00  0.00    +0.120 C 
ATOM      6  C   UNL     1      31.895 -21.711 -17.990  0.00  0.00    +0.016 C 
ATOM      7  C   UNL     1      31.196 -22.463 -16.980  0.00  0.00    +0.022 C 
ENDROOT
BRANCH   3   8
ATOM      8  C   UNL     1      33.886 -20.930 -19.078  0.00  0.00    +0.014 C 
ATOM      9  C   UNL     1      35.278 -20.886 -19.156  0.00  0.00    +0.001 C 
ATOM     10  C   UNL     1      33.113 -20.227 -20.002  0.00  0.00    +0.001 C 
ATOM     11  C   UNL     1      35.897 -20.138 -20.157  0.00  0.00    +0.000 C 
ATOM     12  C   UNL     1      33.732 -19.479 -21.003  0.00  0.00    +0.000 C 
ATOM     13  C   UNL     1      35.124 -19.435 -21.082  0.00  0.00    +0.000 C 
ENDBRANCH   3   8
BRANCH   5  14
ATOM     14  N   UNL     1      31.169 -23.885 -15.117  0.00  0.00    -0.201 N 
ATOM     15  H   UNL     1      31.050 -24.861 -15.167  0.00  0.00    +0.175 HD
BRANCH  14  16
ATOM     16  S   UNL     1      30.509 -22.941 -13.844  0.00  0.00    +0.110 S 
ATOM     17  O   UNL     1      30.322 -23.772 -12.668  0.00  0.00    -0.138 OA
ATOM     18  O   UNL     1      31.262 -21.703 -13.757  0.00  0.00    -0.138 OA
BRANCH  16  19
ATOM     19  N   UNL     1      28.963 -22.576 -14.499  0.00  0.00    -0.165 NA
ATOM     20  C   UNL     1      28.241 -23.641 -15.221  0.00  0.00    +0.112 C 
ATOM     21  H   UNL     1      29.085 -21.800 -15.149  0.00  0.00    +0.150 HD
ENDBRANCH  16  19
ENDBRANCH  14  16
ENDBRANCH   5  14
BRANCH   2  22
ATOM     22  C   UNL     1      35.452 -22.413 -17.178  0.00  0.00    +0.183 C 
BRANCH  22  25
ATOM     23  O   UNL     1      35.937 -21.336 -15.070  0.00  0.00    -0.273 OA
ATOM     24  N   UNL     1      36.715 -23.495 -15.443  0.00  0.00    -0.298 N 
ATOM     25  C   UNL     1      36.033 -22.333 -15.782  0.00  0.00    +0.243 C 
ATOM     26  H   UNL     1      36.726 -24.236 -16.092  0.00  0.00    +0.150 HD
BRANCH  24  27
ATOM     27  C   UNL     1      37.406 -23.674 -14.192  0.00  0.00    +0.138 C 
BRANCH  27  28
ATOM     28  C   UNL     1      36.468 -23.726 -12.972  0.00  0.00    +0.025 C 
ATOM     29  C   UNL     1      36.837 -22.642 -11.953  0.00  0.00    +0.002 C 
ATOM     30  C   UNL     1      36.439 -25.094 -12.282  0.00  0.00    +0.002 C 
ENDBRANCH  27  28
BRANCH  27  32
ATOM     31  O   UNL     1      37.836 -25.977 -14.798  0.00  0.00    -0.286 OA
ATOM     32  C   UNL     1      38.265 -24.927 -14.317  0.00  0.00    +0.262 C 
BRANCH  32  36
ATOM     33  F   UNL     1      40.215 -26.029 -13.532  0.00  0.00    -0.163 F 
ATOM     34  F   UNL     1      39.811 -24.032 -12.760  0.00  0.00    -0.163 F 
ATOM     35  F   UNL     1      40.495 -24.291 -14.815  0.00  0.00    -0.163 F 
ATOM     36  C   UNL     1      39.692 -24.820 -13.859  0.00  0.00    +0.453 C 
ENDBRANCH  32  36
ENDBRANCH  27  32
ENDBRANCH  24  27
ENDBRANCH  22  25
ENDBRANCH   2  22
TORSDOF 10
ENDMDL
MODEL 4
REMARK VINA RESULT:      -9.8      3.170      6.016
REMARK  Name = 5289460
REMARK  10 active torsions:
REMARK  status: ('A' for Active; 'I' for Inactive)
REMARK    1  A    between atoms: N_2  and  C_22
REMARK    2  A    between atoms: C_3  and  C_8
REMARK    3  A    between atoms: C_5  and  N_14
REMARK    4  A    between atoms: N_14  and  S_16
REMARK    5  A    between atoms: S_16  and  N_19
REMARK    6  A    between atoms: C_22  and  C_25
REMARK    7  A    between atoms: N_24  and  C_27
REMARK    8  A    between atoms: C_27  and  C_28
REMARK    9  A    between atoms: C_27  and  C_32
REMARK   10  A    between atoms: C_32  and  C_36
REMARK                            x       y       z     vdW  Elec       q    Type
REMARK                         _______ _______ _______ _____ _____    ______ ____
ROOT
ATOM      1  O   UNL     1      35.845 -23.888 -15.374  0.00  0.00    -0.268 OA
ATOM      2  N   UNL     1      33.575 -23.813 -14.775  0.00  0.00    -0.245 N 
ATOM      3  C   UNL     1      32.656 -23.579 -13.725  0.00  0.00    +0.055 C 
ATOM      4  C   UNL     1      34.973 -23.703 -14.525  0.00  0.00    +0.268 C 
ATOM      5  C   UNL     1      35.362 -23.340 -13.137  0.00  0.00    +0.120 C 
ATOM      6  C   UNL     1      33.057 -23.251 -12.484  0.00  0.00    +0.016 C 
ATOM      7  C   UNL     1      34.459 -23.127 -12.178  0.00  0.00    +0.022 C 
ENDROOT
BRANCH   3   8
ATOM      8  C   UNL     1      31.224 -23.687 -13.969  0.00  0.00    +0.014 C 
ATOM      9  C   UNL     1      30.595 -24.930 -13.888  0.00  0.00    +0.001 C 
ATOM     10  C   UNL     1      30.481 -22.549 -14.283  0.00  0.00    +0.001 C 
ATOM     11  C   UNL     1      29.224 -25.034 -14.122  0.00  0.00    +0.000 C 
ATOM     12  C   UNL     1      29.111 -22.653 -14.517  0.00  0.00    +0.000 C 
ATOM     13  C   UNL     1      28.481 -23.896 -14.435  0.00  0.00    +0.000 C 
ENDBRANCH   3   8
BRANCH   5  14
ATOM     14  N   UNL     1      36.720 -23.211 -12.794  0.00  0.00    -0.201 N 
ATOM     15  H   UNL     1      37.209 -22.363 -12.889  0.00  0.00    +0.175 HD
BRANCH  14  16
ATOM     16  S   UNL     1      37.459 -24.640 -12.197  0.00  0.00    +0.110 S 
ATOM     17  O   UNL     1      37.660 -24.524 -10.764  0.00  0.00    -0.138 OA
ATOM     18  O   UNL     1      36.755 -25.783 -12.750  0.00  0.00    -0.138 OA
BRANCH  16  19
ATOM     19  N   UNL     1      38.992 -24.541 -12.967  0.00  0.00    -0.165 NA
ATOM     20  C   UNL     1      39.084 -24.915 -14.392  0.00  0.00    +0.112 C 
ATOM     21  H   UNL     1      39.628 -25.150 -12.453  0.00  0.00    +0.150 HD
ENDBRANCH  16  19
ENDBRANCH  14  16
ENDBRANCH   5  14
BRANCH   2  22
ATOM     22  C   UNL     1      33.110 -24.160 -16.086  0.00  0.00    +0.183 C 
BRANCH  22  25
ATOM     23  O   UNL     1      31.893 -22.358 -17.141  0.00  0.00    -0.273 OA
ATOM     24  N   UNL     1      34.194 -22.497 -17.440  0.00  0.00    -0.298 N 
ATOM     25  C   UNL     1      32.971 -22.906 -16.923  0.00  0.00    +0.243 C 
ATOM     26  H   UNL     1      34.999 -23.011 -17.198  0.00  0.00    +0.150 HD
BRANCH  24  27
ATOM     27  C   UNL     1      34.348 -21.359 -18.311  0.00  0.00    +0.138 C 
BRANCH  27  28
ATOM     28  C   UNL     1      35.809 -21.083 -18.713  0.00  0.00    +0.025 C 
ATOM     29  C   UNL     1      36.650 -20.702 -17.490  0.00  0.00    +0.002 C 
ATOM     30  C   UNL     1      35.952 -20.006 -19.794  0.00  0.00    +0.002 C 
ENDBRANCH  27  28
BRANCH  27  32
ATOM     31  O   UNL     1      33.417 -22.648 -20.135  0.00  0.00    -0.286 OA
ATOM     32  C   UNL     1      33.446 -21.582 -19.520  0.00  0.00    +0.262 C 
BRANCH  32  36
ATOM     33  F   UNL     1      31.722 -20.776 -20.939  0.00  0.00    -0.163 F 
ATOM     34  F   UNL     1      33.259 -19.360 -20.324  0.00  0.00    -0.163 F 
ATOM     35  F   UNL     1      31.761 -20.036 -18.890  0.00  0.00    -0.163 F 
ATOM     36  C   UNL     1      32.549 -20.442 -19.916  0.00  0.00    +0.453 C 
ENDBRANCH  32  36
ENDBRANCH  27  32
ENDBRANCH  24  27
ENDBRANCH  22  25
ENDBRANCH   2  22
TORSDOF 10
ENDMDL
MODEL 5
REMARK VINA RESULT:      -9.8      2.646      6.563
REMARK  Name = 5289460
REMARK  10 active torsions:
REMARK  status: ('A' for Active; 'I' for Inactive)
REMARK    1  A    between atoms: N_2  and  C_22
REMARK    2  A    between atoms: C_3  and  C_8
REMARK    3  A    between atoms: C_5  and  N_14
REMARK    4  A    between atoms: N_14  and  S_16
REMARK    5  A    between atoms: S_16  and  N_19
REMARK    6  A    between atoms: C_22  and  C_25
REMARK    7  A    between atoms: N_24  and  C_27
REMARK    8  A    between atoms: C_27  and  C_28
REMARK    9  A    between atoms: C_27  and  C_32
REMARK   10  A    between atoms: C_32  and  C_36
REMARK                            x       y       z     vdW  Elec       q    Type
REMARK                         _______ _______ _______ _____ _____    ______ ____
ROOT
ATOM      1  O   UNL     1      32.634 -23.272 -13.592  0.00  0.00    -0.268 OA
ATOM      2  N   UNL     1      33.311 -22.476 -15.694  0.00  0.00    -0.245 N 
ATOM      3  C   UNL     1      32.881 -22.084 -16.985  0.00  0.00    +0.055 C 
ATOM      4  C   UNL     1      32.354 -22.914 -14.735  0.00  0.00    +0.268 C 
ATOM      5  C   UNL     1      30.937 -22.923 -15.184  0.00  0.00    +0.120 C 
ATOM      6  C   UNL     1      31.584 -22.110 -17.343  0.00  0.00    +0.016 C 
ATOM      7  C   UNL     1      30.577 -22.544 -16.411  0.00  0.00    +0.022 C 
ENDROOT
BRANCH   3   8
ATOM      8  C   UNL     1      33.850 -21.634 -17.973  0.00  0.00    +0.014 C 
ATOM      9  C   UNL     1      35.213 -21.661 -17.677  0.00  0.00    +0.001 C 
ATOM     10  C   UNL     1      33.417 -21.178 -19.219  0.00  0.00    +0.001 C 
ATOM     11  C   UNL     1      36.141 -21.230 -18.624  0.00  0.00    +0.000 C 
ATOM     12  C   UNL     1      34.345 -20.747 -20.165  0.00  0.00    +0.000 C 
ATOM     13  C   UNL     1      35.708 -20.774 -19.869  0.00  0.00    +0.000 C 
ENDBRANCH   3   8
BRANCH   5  14
ATOM     14  N   UNL     1      29.921 -23.343 -14.307  0.00  0.00    -0.201 N 
ATOM     15  H   UNL     1      29.784 -22.933 -13.423  0.00  0.00    +0.175 HD
BRANCH  14  16
ATOM     16  S   UNL     1      28.936 -24.622 -14.891  0.00  0.00    +0.110 S 
ATOM     17  O   UNL     1      29.748 -25.552 -15.656  0.00  0.00    -0.138 OA
ATOM     18  O   UNL     1      28.109 -25.097 -13.798  0.00  0.00    -0.138 OA
BRANCH  16  19
ATOM     19  N   UNL     1      27.927 -23.762 -15.984  0.00  0.00    -0.165 NA
ATOM     20  C   UNL     1      27.289 -22.516 -15.513  0.00  0.00    +0.112 C 
ATOM     21  H   UNL     1      27.180 -24.395 -16.268  0.00  0.00    +0.150 HD
ENDBRANCH  16  19
ENDBRANCH  14  16
ENDBRANCH   5  14
BRANCH   2  22
ATOM     22  C   UNL     1      34.702 -22.435 -15.348  0.00  0.00    +0.183 C 
BRANCH  22  25
ATOM     23  O   UNL     1      34.853 -24.844 -15.468  0.00  0.00    -0.273 OA
ATOM     24  N   UNL     1      35.875 -23.733 -13.700  0.00  0.00    -0.298 N 
ATOM     25  C   UNL     1      35.147 -23.805 -14.882  0.00  0.00    +0.243 C 
ATOM     26  H   UNL     1      36.055 -22.844 -13.317  0.00  0.00    +0.150 HD
BRANCH  24  27
ATOM     27  C   UNL     1      36.381 -24.890 -13.007  0.00  0.00    +0.138 C 
BRANCH  27  28
ATOM     28  C   UNL     1      37.721 -25.406 -13.565  0.00  0.00    +0.025 C 
ATOM     29  C   UNL     1      38.472 -24.291 -14.301  0.00  0.00    +0.002 C 
ATOM     30  C   UNL     1      37.571 -26.622 -14.486  0.00  0.00    +0.002 C 
ENDBRANCH  27  28
BRANCH  27  32
ATOM     31  O   UNL     1      37.515 -24.632 -10.885  0.00  0.00    -0.286 OA
ATOM     32  C   UNL     1      36.468 -24.537 -11.527  0.00  0.00    +0.262 C 
BRANCH  32  36
ATOM     33  F   UNL     1      35.057 -22.688 -11.055  0.00  0.00    -0.163 F 
ATOM     34  F   UNL     1      35.212 -24.245  -9.538  0.00  0.00    -0.163 F 
ATOM     35  F   UNL     1      34.101 -24.619 -11.378  0.00  0.00    -0.163 F 
ATOM     36  C   UNL     1      35.213 -24.024 -10.877  0.00  0.00    +0.453 C 
ENDBRANCH  32  36
ENDBRANCH  27  32
ENDBRANCH  24  27
ENDBRANCH  22  25
ENDBRANCH   2  22
TORSDOF 10
ENDMDL
MODEL 6
REMARK VINA RESULT:      -9.8      1.950      2.609
REMARK  Name = 5289460
REMARK  10 active torsions:
REMARK  status: ('A' for Active; 'I' for Inactive)
REMARK    1  A    between atoms: N_2  and  C_22
REMARK    2  A    between atoms: C_3  and  C_8
REMARK    3  A    between atoms: C_5  and  N_14
REMARK    4  A    between atoms: N_14  and  S_16
REMARK    5  A    between atoms: S_16  and  N_19
REMARK    6  A    between atoms: C_22  and  C_25
REMARK    7  A    between atoms: N_24  and  C_27
REMARK    8  A    between atoms: C_27  and  C_28
REMARK    9  A    between atoms: C_27  and  C_32
REMARK   10  A    between atoms: C_32  and  C_36
REMARK                            x       y       z     vdW  Elec       q    Type
REMARK                         _______ _______ _______ _____ _____    ______ ____
ROOT
ATOM      1  O   UNL     1      34.461 -24.531 -14.702  0.00  0.00    -0.268 OA
ATOM      2  N   UNL     1      34.717 -22.996 -16.460  0.00  0.00    -0.245 N 
ATOM      3  C   UNL     1      35.568 -22.028 -17.045  0.00  0.00    +0.055 C 
ATOM      4  C   UNL     1      35.131 -23.676 -15.279  0.00  0.00    +0.268 C 
ATOM      5  C   UNL     1      36.466 -23.300 -14.743  0.00  0.00    +0.120 C 
ATOM      6  C   UNL     1      36.769 -21.723 -16.522  0.00  0.00    +0.016 C 
ATOM      7  C   UNL     1      37.235 -22.381 -15.329  0.00  0.00    +0.022 C 
ENDROOT
BRANCH   3   8
ATOM      8  C   UNL     1      35.155 -21.326 -18.253  0.00  0.00    +0.014 C 
ATOM      9  C   UNL     1      36.104 -20.672 -19.039  0.00  0.00    +0.001 C 
ATOM     10  C   UNL     1      33.811 -21.310 -18.625  0.00  0.00    +0.001 C 
ATOM     11  C   UNL     1      35.709 -20.000 -20.195  0.00  0.00    +0.000 C 
ATOM     12  C   UNL     1      33.416 -20.638 -19.781  0.00  0.00    +0.000 C 
ATOM     13  C   UNL     1      34.364 -19.983 -20.567  0.00  0.00    +0.000 C 
ENDBRANCH   3   8
BRANCH   5  14
ATOM     14  N   UNL     1      36.959 -23.916 -13.579  0.00  0.00    -0.201 N 
ATOM     15  H   UNL     1      37.016 -23.445 -12.717  0.00  0.00    +0.175 HD
BRANCH  14  16
ATOM     16  S   UNL     1      37.453 -25.548 -13.771  0.00  0.00    +0.110 S 
ATOM     17  O   UNL     1      36.788 -26.379 -12.783  0.00  0.00    -0.138 OA
ATOM     18  O   UNL     1      37.381 -25.883 -15.182  0.00  0.00    -0.138 OA
BRANCH  16  19
ATOM     19  N   UNL     1      39.112 -25.423 -13.342  0.00  0.00    -0.165 NA
ATOM     20  C   UNL     1      40.089 -25.125 -14.408  0.00  0.00    +0.112 C 
ATOM     21  H   UNL     1      39.384 -26.312 -12.923  0.00  0.00    +0.150 HD
ENDBRANCH  16  19
ENDBRANCH  14  16
ENDBRANCH   5  14
BRANCH   2  22
ATOM     22  C   UNL     1      33.443 -23.295 -17.046  0.00  0.00    +0.183 C 
BRANCH  22  25
ATOM     23  O   UNL     1      32.452 -22.060 -15.221  0.00  0.00    -0.273 OA
ATOM     24  N   UNL     1      31.233 -23.765 -16.228  0.00  0.00    -0.298 N 
ATOM     25  C   UNL     1      32.342 -22.942 -16.070  0.00  0.00    +0.243 C 
ATOM     26  H   UNL     1      31.252 -24.440 -16.944  0.00  0.00    +0.150 HD
BRANCH  24  27
ATOM     27  C   UNL     1      30.058 -23.682 -15.399  0.00  0.00    +0.138 C 
BRANCH  27  28
ATOM     28  C   UNL     1      30.352 -23.232 -13.955  0.00  0.00    +0.025 C 
ATOM     29  C   UNL     1      30.065 -24.364 -12.961  0.00  0.00    +0.002 C 
ATOM     30  C   UNL     1      29.584 -21.973 -13.540  0.00  0.00    +0.002 C 
ENDBRANCH  27  28
BRANCH  27  32
ATOM     31  O   UNL     1      29.413 -21.738 -16.686  0.00  0.00    -0.286 OA
ATOM     32  C   UNL     1      29.065 -22.764 -16.101  0.00  0.00    +0.262 C 
BRANCH  32  36
ATOM     33  F   UNL     1      27.097 -23.255 -17.334  0.00  0.00    -0.163 F 
ATOM     34  F   UNL     1      26.850 -22.317 -15.383  0.00  0.00    -0.163 F 
ATOM     35  F   UNL     1      27.456 -24.408 -15.520  0.00  0.00    -0.163 F 
ATOM     36  C   UNL     1      27.622 -23.186 -16.084  0.00  0.00    +0.453 C 
ENDBRANCH  32  36
ENDBRANCH  27  32
ENDBRANCH  24  27
ENDBRANCH  22  25
ENDBRANCH   2  22
TORSDOF 10
ENDMDL
MODEL 7
REMARK VINA RESULT:      -9.7      4.186      7.611
REMARK  Name = 5289460
REMARK  10 active torsions:
REMARK  status: ('A' for Active; 'I' for Inactive)
REMARK    1  A    between atoms: N_2  and  C_22
REMARK    2  A    between atoms: C_3  and  C_8
REMARK    3  A    between atoms: C_5  and  N_14
REMARK    4  A    between atoms: N_14  and  S_16
REMARK    5  A    between atoms: S_16  and  N_19
REMARK    6  A    between atoms: C_22  and  C_25
REMARK    7  A    between atoms: N_24  and  C_27
REMARK    8  A    between atoms: C_27  and  C_28
REMARK    9  A    between atoms: C_27  and  C_32
REMARK   10  A    between atoms: C_32  and  C_36
REMARK                            x       y       z     vdW  Elec       q    Type
REMARK                         _______ _______ _______ _____ _____    ______ ____
ROOT
ATOM      1  O   UNL     1      36.740 -20.304 -17.720  0.00  0.00    -0.268 OA
ATOM      2  N   UNL     1      35.102 -21.576 -16.620  0.00  0.00    -0.245 N 
ATOM      3  C   UNL     1      33.971 -22.412 -16.786  0.00  0.00    +0.055 C 
ATOM      4  C   UNL     1      35.753 -21.037 -17.766  0.00  0.00    +0.268 C 
ATOM      5  C   UNL     1      35.173 -21.409 -19.083  0.00  0.00    +0.120 C 
ATOM      6  C   UNL     1      33.483 -22.720 -18.001  0.00  0.00    +0.016 C 
ATOM      7  C   UNL     1      34.105 -22.201 -19.192  0.00  0.00    +0.022 C 
ENDROOT
BRANCH   3   8
ATOM      8  C   UNL     1      33.297 -22.969 -15.622  0.00  0.00    +0.014 C 
ATOM      9  C   UNL     1      33.807 -24.108 -14.999  0.00  0.00    +0.001 C 
ATOM     10  C   UNL     1      32.142 -22.362 -15.128  0.00  0.00    +0.001 C 
ATOM     11  C   UNL     1      33.161 -24.641 -13.884  0.00  0.00    +0.000 C 
ATOM     12  C   UNL     1      31.496 -22.896 -14.014  0.00  0.00    +0.000 C 
ATOM     13  C   UNL     1      32.006 -24.035 -13.390  0.00  0.00    +0.000 C 
ENDBRANCH   3   8
BRANCH   5  14
ATOM     14  N   UNL     1      35.747 -20.922 -20.272  0.00  0.00    -0.201 N 
ATOM     15  H   UNL     1      36.383 -21.450 -20.805  0.00  0.00    +0.175 HD
BRANCH  14  16
ATOM     16  S   UNL     1      35.255 -19.341 -20.723  0.00  0.00    +0.110 S 
ATOM     17  O   UNL     1      33.914 -19.086 -20.228  0.00  0.00    -0.138 OA
ATOM     18  O   UNL     1      36.337 -18.423 -20.419  0.00  0.00    -0.138 OA
BRANCH  16  19
ATOM     19  N   UNL     1      35.175 -19.517 -22.431  0.00  0.00    -0.165 NA
ATOM     20  C   UNL     1      34.124 -18.780 -23.160  0.00  0.00    +0.112 C 
ATOM     21  H   UNL     1      35.038 -20.509 -22.626  0.00  0.00    +0.150 HD
ENDBRANCH  16  19
ENDBRANCH  14  16
ENDBRANCH   5  14
BRANCH   2  22
ATOM     22  C   UNL     1      35.593 -21.269 -15.309  0.00  0.00    +0.183 C 
BRANCH  22  25
ATOM     23  O   UNL     1      37.706 -22.404 -15.601  0.00  0.00    -0.273 OA
ATOM     24  N   UNL     1      36.359 -22.969 -13.792  0.00  0.00    -0.298 N 
ATOM     25  C   UNL     1      36.685 -22.249 -14.936  0.00  0.00    +0.243 C 
ATOM     26  H   UNL     1      35.512 -22.761 -13.336  0.00  0.00    +0.150 HD
BRANCH  24  27
ATOM     27  C   UNL     1      37.196 -24.003 -13.240  0.00  0.00    +0.138 C 
BRANCH  27  28
ATOM     28  C   UNL     1      36.534 -24.783 -12.089  0.00  0.00    +0.025 C 
ATOM     29  C   UNL     1      36.247 -23.861 -10.898  0.00  0.00    +0.002 C 
ATOM     30  C   UNL     1      37.351 -25.992 -11.621  0.00  0.00    +0.002 C 
ENDBRANCH  27  28
BRANCH  27  32
ATOM     31  O   UNL     1      36.809 -25.424 -15.160  0.00  0.00    -0.286 OA
ATOM     32  C   UNL     1      37.621 -24.912 -14.387  0.00  0.00    +0.262 C 
BRANCH  32  36
ATOM     33  F   UNL     1      39.501 -24.872 -15.836  0.00  0.00    -0.163 F 
ATOM     34  F   UNL     1      39.450 -26.417 -14.300  0.00  0.00    -0.163 F 
ATOM     35  F   UNL     1      39.833 -24.341 -13.749  0.00  0.00    -0.163 F 
ATOM     36  C   UNL     1      39.096 -25.134 -14.567  0.00  0.00    +0.453 C 
ENDBRANCH  32  36
ENDBRANCH  27  32
ENDBRANCH  24  27
ENDBRANCH  22  25
ENDBRANCH   2  22
TORSDOF 10
ENDMDL
MODEL 8
REMARK VINA RESULT:      -9.4      3.138      5.573
REMARK  Name = 5289460
REMARK  10 active torsions:
REMARK  status: ('A' for Active; 'I' for Inactive)
REMARK    1  A    between atoms: N_2  and  C_22
REMARK    2  A    between atoms: C_3  and  C_8
REMARK    3  A    between atoms: C_5  and  N_14
REMARK    4  A    between atoms: N_14  and  S_16
REMARK    5  A    between atoms: S_16  and  N_19
REMARK    6  A    between atoms: C_22  and  C_25
REMARK    7  A    between atoms: N_24  and  C_27
REMARK    8  A    between atoms: C_27  and  C_28
REMARK    9  A    between atoms: C_27  and  C_32
REMARK   10  A    between atoms: C_32  and  C_36
REMARK                            x       y       z     vdW  Elec       q    Type
REMARK                         _______ _______ _______ _____ _____    ______ ____
ROOT
ATOM      1  O   UNL     1      32.376 -22.058 -19.304  0.00  0.00    -0.268 OA
ATOM      2  N   UNL     1      33.890 -22.492 -17.562  0.00  0.00    -0.245 N 
ATOM      3  C   UNL     1      35.153 -22.169 -17.010  0.00  0.00    +0.055 C 
ATOM      4  C   UNL     1      33.455 -21.844 -18.754  0.00  0.00    +0.268 C 
ATOM      5  C   UNL     1      34.394 -20.850 -19.336  0.00  0.00    +0.120 C 
ATOM      6  C   UNL     1      35.968 -21.261 -17.575  0.00  0.00    +0.016 C 
ATOM      7  C   UNL     1      35.576 -20.576 -18.780  0.00  0.00    +0.022 C 
ENDROOT
BRANCH   3   8
ATOM      8  C   UNL     1      35.607 -22.826 -15.793  0.00  0.00    +0.014 C 
ATOM      9  C   UNL     1      36.348 -22.113 -14.850  0.00  0.00    +0.001 C 
ATOM     10  C   UNL     1      35.301 -24.168 -15.568  0.00  0.00    +0.001 C 
ATOM     11  C   UNL     1      36.783 -22.741 -13.684  0.00  0.00    +0.000 C 
ATOM     12  C   UNL     1      35.736 -24.797 -14.402  0.00  0.00    +0.000 C 
ATOM     13  C   UNL     1      36.477 -24.084 -13.459  0.00  0.00    +0.000 C 
ENDBRANCH   3   8
BRANCH   5  14
ATOM     14  N   UNL     1      34.054 -20.160 -20.514  0.00  0.00    -0.201 N 
ATOM     15  H   UNL     1      33.242 -20.368 -21.029  0.00  0.00    +0.175 HD
BRANCH  14  16
ATOM     16  S   UNL     1      35.156 -18.932 -20.984  0.00  0.00    +0.110 S 
ATOM     17  O   UNL     1      34.648 -17.636 -20.570  0.00  0.00    -0.138 OA
ATOM     18  O   UNL     1      36.494 -19.351 -20.607  0.00  0.00    -0.138 OA
BRANCH  16  19
ATOM     19  N   UNL     1      35.029 -19.040 -22.694  0.00  0.00    -0.165 NA
ATOM     20  C   UNL     1      33.830 -18.474 -23.343  0.00  0.00    +0.112 C 
ATOM     21  H   UNL     1      35.065 -20.030 -22.938  0.00  0.00    +0.150 HD
ENDBRANCH  16  19
ENDBRANCH  14  16
ENDBRANCH   5  14
BRANCH   2  22
ATOM     22  C   UNL     1      33.047 -23.467 -16.932  0.00  0.00    +0.183 C 
BRANCH  22  25
ATOM     23  O   UNL     1      32.509 -21.947 -15.133  0.00  0.00    -0.273 OA
ATOM     24  N   UNL     1      30.817 -23.239 -16.067  0.00  0.00    -0.298 N 
ATOM     25  C   UNL     1      32.123 -22.778 -15.951  0.00  0.00    +0.243 C 
ATOM     26  H   UNL     1      30.618 -23.908 -16.761  0.00  0.00    +0.150 HD
BRANCH  24  27
ATOM     27  C   UNL     1      29.739 -22.790 -15.224  0.00  0.00    +0.138 C 
BRANCH  27  28
ATOM     28  C   UNL     1      28.483 -22.360 -16.005  0.00  0.00    +0.025 C 
ATOM     29  C   UNL     1      27.417 -21.796 -15.058  0.00  0.00    +0.002 C 
ATOM     30  C   UNL     1      27.877 -23.483 -16.854  0.00  0.00    +0.002 C 
ENDBRANCH  27  28
BRANCH  27  32
ATOM     31  O   UNL     1      28.553 -24.732 -14.399  0.00  0.00    -0.286 OA
ATOM     32  C   UNL     1      29.446 -23.902 -14.222  0.00  0.00    +0.262 C 
BRANCH  32  36
ATOM     33  F   UNL     1      29.661 -24.427 -11.917  0.00  0.00    -0.163 F 
ATOM     34  F   UNL     1      30.829 -22.752 -12.678  0.00  0.00    -0.163 F 
ATOM     35  F   UNL     1      31.388 -24.796 -13.193  0.00  0.00    -0.163 F 
ATOM     36  C   UNL     1      30.328 -23.970 -13.007  0.00  0.00    +0.453 C 
ENDBRANCH  32  36
ENDBRANCH  27  32
ENDBRANCH  24  27
ENDBRANCH  22  25
ENDBRANCH   2  22
TORSDOF 10
ENDMDL
MODEL 9
REMARK VINA RESULT:      -9.0     15.485     18.377
REMARK  Name = 5289460
REMARK  10 active torsions:
REMARK  status: ('A' for Active; 'I' for Inactive)
REMARK    1  A    between atoms: N_2  and  C_22
REMARK    2  A    between atoms: C_3  and  C_8
REMARK    3  A    between atoms: C_5  and  N_14
REMARK    4  A    between atoms: N_14  and  S_16
REMARK    5  A    between atoms: S_16  and  N_19
REMARK    6  A    between atoms: C_22  and  C_25
REMARK    7  A    between atoms: N_24  and  C_27
REMARK    8  A    between atoms: C_27  and  C_28
REMARK    9  A    between atoms: C_27  and  C_32
REMARK   10  A    between atoms: C_32  and  C_36
REMARK                            x       y       z     vdW  Elec       q    Type
REMARK                         _______ _______ _______ _____ _____    ______ ____
ROOT
ATOM      1  O   UNL     1      33.496 -10.630 -23.738  0.00  0.00    -0.268 OA
ATOM      2  N   UNL     1      32.452  -8.843 -22.628  0.00  0.00    -0.245 N 
ATOM      3  C   UNL     1      31.466  -8.478 -21.680  0.00  0.00    +0.055 C 
ATOM      4  C   UNL     1      32.663 -10.218 -22.931  0.00  0.00    +0.268 C 
ATOM      5  C   UNL     1      31.803 -11.187 -22.202  0.00  0.00    +0.120 C 
ATOM      6  C   UNL     1      30.712  -9.394 -21.046  0.00  0.00    +0.016 C 
ATOM      7  C   UNL     1      30.886 -10.797 -21.315  0.00  0.00    +0.022 C 
ENDROOT
BRANCH   3   8
ATOM      8  C   UNL     1      31.241  -7.075 -21.362  0.00  0.00    +0.014 C 
ATOM      9  C   UNL     1      30.278  -6.347 -22.061  0.00  0.00    +0.001 C 
ATOM     10  C   UNL     1      31.988  -6.459 -20.358  0.00  0.00    +0.001 C 
ATOM     11  C   UNL     1      30.063  -5.003 -21.757  0.00  0.00    +0.000 C 
ATOM     12  C   UNL     1      31.773  -5.115 -20.054  0.00  0.00    +0.000 C 
ATOM     13  C   UNL     1      30.810  -4.387 -20.753  0.00  0.00    +0.000 C 
ENDBRANCH   3   8
BRANCH   5  14
ATOM     14  N   UNL     1      31.937 -12.568 -22.437  0.00  0.00    -0.201 N 
ATOM     15  H   UNL     1      31.496 -13.019 -23.192  0.00  0.00    +0.175 HD
BRANCH  14  16
ATOM     16  S   UNL     1      32.925 -13.405 -21.312  0.00  0.00    +0.110 S 
ATOM     17  O   UNL     1      34.063 -12.578 -20.952  0.00  0.00    -0.138 OA
ATOM     18  O   UNL     1      32.070 -13.967 -20.282  0.00  0.00    -0.138 OA
BRANCH  16  19
ATOM     19  N   UNL     1      33.488 -14.697 -22.295  0.00  0.00    -0.165 NA
ATOM     20  C   UNL     1      33.458 -14.524 -23.761  0.00  0.00    +0.112 C 
ATOM     21  H   UNL     1      32.917 -15.514 -22.077  0.00  0.00    +0.150 HD
ENDBRANCH  16  19
ENDBRANCH  14  16
ENDBRANCH   5  14
BRANCH   2  22
ATOM     22  C   UNL     1      33.237  -7.839 -23.284  0.00  0.00    +0.183 C 
BRANCH  22  25
ATOM     23  O   UNL     1      31.382  -7.671 -24.823  0.00  0.00    -0.273 OA
ATOM     24  N   UNL     1      32.986  -5.989 -24.798  0.00  0.00    -0.298 N 
ATOM     25  C   UNL     1      32.410  -7.178 -24.367  0.00  0.00    +0.243 C 
ATOM     26  H   UNL     1      33.814  -5.685 -24.359  0.00  0.00    +0.150 HD
BRANCH  24  27
ATOM     27  C   UNL     1      32.437  -5.177 -25.853  0.00  0.00    +0.138 C 
BRANCH  27  28
ATOM     28  C   UNL     1      31.614  -3.979 -25.344  0.00  0.00    +0.025 C 
ATOM     29  C   UNL     1      31.498  -2.898 -26.425  0.00  0.00    +0.002 C 
ATOM     30  C   UNL     1      32.166  -3.363 -24.054  0.00  0.00    +0.002 C 
ENDBRANCH  27  28
BRANCH  27  32
ATOM     31  O   UNL     1      34.565  -4.127 -26.324  0.00  0.00    -0.286 OA
ATOM     32  C   UNL     1      33.591  -4.748 -26.751  0.00  0.00    +0.262 C 
BRANCH  32  36
ATOM     33  F   UNL     1      32.707  -6.228 -28.382  0.00  0.00    -0.163 F 
ATOM     34  F   UNL     1      34.731  -5.485 -28.695  0.00  0.00    -0.163 F 
ATOM     35  F   UNL     1      33.024  -4.157 -28.978  0.00  0.00    -0.163 F 
ATOM     36  C   UNL     1      33.513  -5.152 -28.197  0.00  0.00    +0.453 C 
ENDBRANCH  32  36
ENDBRANCH  27  32
ENDBRANCH  24  27
ENDBRANCH  22  25
ENDBRANCH   2  22
TORSDOF 10
ENDMDL
