MODEL 1
REMARK VINA RESULT:     -13.5      0.000      0.000
REMARK  Name = 448384
REMARK  11 active torsions:
REMARK  status: ('A' for Active; 'I' for Inactive)
REMARK    1  A    between atoms: C_1  and  C_3
REMARK    2  A    between atoms: C_1  and  C_6
REMARK    3  A    between atoms: C_1  and  C_19
REMARK    4  A    between atoms: C_3  and  O_4
REMARK    5  A    between atoms: C_6  and  C_7
REMARK    6  A    between atoms: C_7  and  N_10
REMARK    7  A    between atoms: C_19  and  C_21
REMARK    8  A    between atoms: C_21  and  C_22
REMARK    9  A    between atoms: C_25  and  C_28
REMARK   10  A    between atoms: C_33  and  O_34
REMARK   11  A    between atoms: O_34  and  C_35
REMARK                            x       y       z     vdW  Elec       q    Type
REMARK                         _______ _______ _______ _____ _____    ______ ____
ROOT
ATOM      1  C   UNL     1      35.100 -18.219 -21.496  0.00  0.00    +0.108 C 
ENDROOT
BRANCH   1   3
ATOM      2  O   UNL     1      36.794 -18.637 -19.800  0.00  0.00    -0.250 OA
ATOM      3  C   UNL     1      36.518 -18.373 -20.964  0.00  0.00    +0.314 C 
BRANCH   3   4
ATOM      4  O   UNL     1      37.462 -18.192 -21.920  0.00  0.00    -0.480 OA
ATOM      5  H   UNL     1      37.415 -18.676 -22.722  0.00  0.00    +0.295 HD
ENDBRANCH   3   4
ENDBRANCH   1   3
BRANCH   1   6
ATOM      6  C   UNL     1      34.149 -19.186 -20.762  0.00  0.00    +0.034 C 
BRANCH   6   7
ATOM      7  C   UNL     1      34.756 -20.563 -20.489  0.00  0.00    +0.102 C 
BRANCH   7  10
ATOM      8  O   UNL     1      31.958 -21.290 -19.762  0.00  0.00    -0.269 OA
ATOM      9  O   UNL     1      36.267 -21.419 -18.062  0.00  0.00    -0.269 OA
ATOM     10  N   UNL     1      34.265 -21.170 -19.286  0.00  0.00    -0.223 N 
ATOM     11  C   UNL     1      32.931 -21.470 -19.052  0.00  0.00    +0.255 C 
ATOM     12  C   UNL     1      35.065 -21.533 -18.212  0.00  0.00    +0.255 C 
ATOM     13  C   UNL     1      32.877 -22.081 -17.725  0.00  0.00    +0.058 C 
ATOM     14  C   UNL     1      34.168 -22.120 -17.217  0.00  0.00    +0.058 C 
ATOM     15  C   UNL     1      31.798 -22.565 -17.013  0.00  0.00    +0.005 C 
ATOM     16  C   UNL     1      34.447 -22.643 -15.972  0.00  0.00    +0.005 C 
ATOM     17  C   UNL     1      32.057 -23.100 -15.749  0.00  0.00    +0.000 C 
ATOM     18  C   UNL     1      33.369 -23.138 -15.232  0.00  0.00    +0.000 C 
ENDBRANCH   7  10
ENDBRANCH   6   7
ENDBRANCH   1   6
BRANCH   1  19
ATOM     19  C   UNL     1      34.653 -16.760 -21.281  0.00  0.00    +0.080 C 
BRANCH  19  21
ATOM     20  O   UNL     1      34.543 -16.538 -23.685  0.00  0.00    -0.291 OA
ATOM     21  C   UNL     1      34.333 -16.035 -22.584  0.00  0.00    +0.174 C 
BRANCH  21  22
ATOM     22  C   UNL     1      33.753 -14.662 -22.513  0.00  0.00    +0.035 C 
ATOM     23  C   UNL     1      33.413 -13.986 -23.685  0.00  0.00    +0.003 C 
ATOM     24  C   UNL     1      33.549 -14.055 -21.274  0.00  0.00    +0.003 C 
ATOM     25  C   UNL     1      32.668 -12.096 -22.378  0.00  0.00    +0.000 C 
ATOM     26  C   UNL     1      32.871 -12.703 -23.618  0.00  0.00    +0.000 C 
ATOM     27  C   UNL     1      33.007 -12.771 -21.206  0.00  0.00    +0.000 C 
BRANCH  25  28
ATOM     28  C   UNL     1      32.106 -10.764 -22.308  0.00  0.00    +0.000 C 
ATOM     29  C   UNL     1      31.332 -10.392 -21.207  0.00  0.00    +0.003 C 
ATOM     30  C   UNL     1      32.335  -9.854 -23.340  0.00  0.00    +0.003 C 
ATOM     31  C   UNL     1      30.788  -9.110 -21.140  0.00  0.00    +0.037 C 
ATOM     32  C   UNL     1      31.791  -8.571 -23.271  0.00  0.00    +0.037 C 
ATOM     33  C   UNL     1      31.017  -8.199 -22.171  0.00  0.00    +0.139 C 
BRANCH  33  34
ATOM     34  O   UNL     1      30.488  -6.947 -22.103  0.00  0.00    -0.475 OA
BRANCH  34  35
ATOM     35  C   UNL     1      31.407  -5.858 -22.014  0.00  0.00    +0.206 C 
ATOM     36  C   UNL     1      31.771  -5.637 -20.561  0.00  0.00    +0.051 C 
ENDBRANCH  34  35
ENDBRANCH  33  34
ENDBRANCH  25  28
ENDBRANCH  21  22
ENDBRANCH  19  21
ENDBRANCH   1  19
TORSDOF 11
ENDMDL
MODEL 2
REMARK VINA RESULT:     -13.4      0.220      1.504
REMARK  Name = 448384
REMARK  11 active torsions:
REMARK  status: ('A' for Active; 'I' for Inactive)
REMARK    1  A    between atoms: C_1  and  C_3
REMARK    2  A    between atoms: C_1  and  C_6
REMARK    3  A    between atoms: C_1  and  C_19
REMARK    4  A    between atoms: C_3  and  O_4
REMARK    5  A    between atoms: C_6  and  C_7
REMARK    6  A    between atoms: C_7  and  N_10
REMARK    7  A    between atoms: C_19  and  C_21
REMARK    8  A    between atoms: C_21  and  C_22
REMARK    9  A    between atoms: C_25  and  C_28
REMARK   10  A    between atoms: C_33  and  O_34
REMARK   11  A    between atoms: O_34  and  C_35
REMARK                            x       y       z     vdW  Elec       q    Type
REMARK                         _______ _______ _______ _____ _____    ______ ____
ROOT
ATOM      1  C   UNL     1      35.075 -18.266 -21.463  0.00  0.00    +0.108 C 
ENDROOT
BRANCH   1   3
ATOM      2  O   UNL     1      36.800 -18.626 -19.785  0.00  0.00    -0.250 OA
ATOM      3  C   UNL     1      36.503 -18.386 -20.949  0.00  0.00    +0.314 C 
BRANCH   3   4
ATOM      4  O   UNL     1      37.430 -18.204 -21.922  0.00  0.00    -0.480 OA
ATOM      5  H   UNL     1      37.276 -18.538 -22.784  0.00  0.00    +0.295 HD
ENDBRANCH   3   4
ENDBRANCH   1   3
BRANCH   1   6
ATOM      6  C   UNL     1      34.149 -19.226 -20.688  0.00  0.00    +0.034 C 
BRANCH   6   7
ATOM      7  C   UNL     1      34.757 -20.606 -20.441  0.00  0.00    +0.102 C 
BRANCH   7  10
ATOM      8  O   UNL     1      36.308 -21.402 -18.023  0.00  0.00    -0.269 OA
ATOM      9  O   UNL     1      31.987 -21.431 -19.695  0.00  0.00    -0.269 OA
ATOM     10  N   UNL     1      34.291 -21.222 -19.231  0.00  0.00    -0.223 N 
ATOM     11  C   UNL     1      35.107 -21.549 -18.159  0.00  0.00    +0.255 C 
ATOM     12  C   UNL     1      32.968 -21.562 -18.988  0.00  0.00    +0.255 C 
ATOM     13  C   UNL     1      34.232 -22.138 -17.146  0.00  0.00    +0.058 C 
ATOM     14  C   UNL     1      32.938 -22.146 -17.647  0.00  0.00    +0.058 C 
ATOM     15  C   UNL     1      34.532 -22.629 -15.891  0.00  0.00    +0.005 C 
ATOM     16  C   UNL     1      31.878 -22.645 -16.921  0.00  0.00    +0.005 C 
ATOM     17  C   UNL     1      33.472 -23.139 -15.138  0.00  0.00    +0.000 C 
ATOM     18  C   UNL     1      32.158 -23.148 -15.647  0.00  0.00    +0.000 C 
ENDBRANCH   7  10
ENDBRANCH   6   7
ENDBRANCH   1   6
BRANCH   1  19
ATOM     19  C   UNL     1      34.611 -16.807 -21.280  0.00  0.00    +0.080 C 
BRANCH  19  21
ATOM     20  O   UNL     1      34.634 -16.597 -23.687  0.00  0.00    -0.291 OA
ATOM     21  C   UNL     1      34.361 -16.090 -22.602  0.00  0.00    +0.174 C 
BRANCH  21  22
ATOM     22  C   UNL     1      33.773 -14.719 -22.570  0.00  0.00    +0.035 C 
ATOM     23  C   UNL     1      33.420 -14.082 -23.761  0.00  0.00    +0.003 C 
ATOM     24  C   UNL     1      33.576 -14.074 -21.349  0.00  0.00    +0.003 C 
ATOM     25  C   UNL     1      32.674 -12.156 -22.508  0.00  0.00    +0.000 C 
ATOM     26  C   UNL     1      32.871 -12.801 -23.729  0.00  0.00    +0.000 C 
ATOM     27  C   UNL     1      33.026 -12.792 -21.318  0.00  0.00    +0.000 C 
BRANCH  25  28
ATOM     28  C   UNL     1      32.104 -10.826 -22.475  0.00  0.00    +0.000 C 
ATOM     29  C   UNL     1      30.976 -10.570 -21.695  0.00  0.00    +0.003 C 
ATOM     30  C   UNL     1      32.681  -9.801 -23.226  0.00  0.00    +0.003 C 
ATOM     31  C   UNL     1      30.426  -9.289 -21.664  0.00  0.00    +0.037 C 
ATOM     32  C   UNL     1      32.130  -8.520 -23.194  0.00  0.00    +0.037 C 
ATOM     33  C   UNL     1      31.002  -8.264 -22.414  0.00  0.00    +0.139 C 
BRANCH  33  34
ATOM     34  O   UNL     1      30.466  -7.013 -22.381  0.00  0.00    -0.475 OA
BRANCH  34  35
ATOM     35  C   UNL     1      31.344  -5.938 -22.050  0.00  0.00    +0.206 C 
ATOM     36  C   UNL     1      31.587  -5.944 -20.555  0.00  0.00    +0.051 C 
ENDBRANCH  34  35
ENDBRANCH  33  34
ENDBRANCH  25  28
ENDBRANCH  21  22
ENDBRANCH  19  21
ENDBRANCH   1  19
TORSDOF 11
ENDMDL
MODEL 3
REMARK VINA RESULT:     -13.3      4.087      7.993
REMARK  Name = 448384
REMARK  11 active torsions:
REMARK  status: ('A' for Active; 'I' for Inactive)
REMARK    1  A    between atoms: C_1  and  C_3
REMARK    2  A    between atoms: C_1  and  C_6
REMARK    3  A    between atoms: C_1  and  C_19
REMARK    4  A    between atoms: C_3  and  O_4
REMARK    5  A    between atoms: C_6  and  C_7
REMARK    6  A    between atoms: C_7  and  N_10
REMARK    7  A    between atoms: C_19  and  C_21
REMARK    8  A    between atoms: C_21  and  C_22
REMARK    9  A    between atoms: C_25  and  C_28
REMARK   10  A    between atoms: C_33  and  O_34
REMARK   11  A    between atoms: O_34  and  C_35
REMARK                            x       y       z     vdW  Elec       q    Type
REMARK                         _______ _______ _______ _____ _____    ______ ____
ROOT
ATOM      1  C   UNL     1      31.889 -22.406 -16.005  0.00  0.00    +0.108 C 
ENDROOT
BRANCH   1   3
ATOM      2  O   UNL     1      29.973 -23.847 -15.581  0.00  0.00    -0.250 OA
ATOM      3  C   UNL     1      30.439 -22.854 -16.128  0.00  0.00    +0.314 C 
BRANCH   3   4
ATOM      4  O   UNL     1      29.697 -22.030 -16.910  0.00  0.00    -0.480 OA
ATOM      5  H   UNL     1      29.263 -21.291 -16.531  0.00  0.00    +0.295 HD
ENDBRANCH   3   4
ENDBRANCH   1   3
BRANCH   1   6
ATOM      6  C   UNL     1      32.420 -22.708 -14.589  0.00  0.00    +0.034 C 
BRANCH   6   7
ATOM      7  C   UNL     1      32.813 -24.170 -14.374  0.00  0.00    +0.102 C 
BRANCH   7  10
ATOM      8  O   UNL     1      35.094 -25.622 -15.628  0.00  0.00    -0.269 OA
ATOM      9  O   UNL     1      34.043 -23.147 -11.855  0.00  0.00    -0.269 OA
ATOM     10  N   UNL     1      34.155 -24.331 -13.893  0.00  0.00    -0.223 N 
ATOM     11  C   UNL     1      35.146 -25.031 -14.566  0.00  0.00    +0.255 C 
ATOM     12  C   UNL     1      34.624 -23.805 -12.698  0.00  0.00    +0.255 C 
ATOM     13  C   UNL     1      36.347 -24.936 -13.736  0.00  0.00    +0.058 C 
ATOM     14  C   UNL     1      36.031 -24.194 -12.606  0.00  0.00    +0.058 C 
ATOM     15  C   UNL     1      37.610 -25.450 -13.941  0.00  0.00    +0.005 C 
ATOM     16  C   UNL     1      36.962 -23.929 -11.624  0.00  0.00    +0.005 C 
ATOM     17  C   UNL     1      38.570 -25.194 -12.959  0.00  0.00    +0.000 C 
ATOM     18  C   UNL     1      38.249 -24.441 -11.811  0.00  0.00    +0.000 C 
ENDBRANCH   7  10
ENDBRANCH   6   7
ENDBRANCH   1   6
BRANCH   1  19
ATOM     19  C   UNL     1      32.723 -23.156 -17.062  0.00  0.00    +0.080 C 
BRANCH  19  21
ATOM     20  O   UNL     1      35.070 -22.680 -16.738  0.00  0.00    -0.291 OA
ATOM     21  C   UNL     1      34.045 -22.465 -17.380  0.00  0.00    +0.174 C 
BRANCH  21  22
ATOM     22  C   UNL     1      34.085 -21.485 -18.504  0.00  0.00    +0.035 C 
ATOM     23  C   UNL     1      35.310 -20.995 -18.959  0.00  0.00    +0.003 C 
ATOM     24  C   UNL     1      32.899 -21.060 -19.101  0.00  0.00    +0.003 C 
ATOM     25  C   UNL     1      34.160 -19.655 -20.608  0.00  0.00    +0.000 C 
ATOM     26  C   UNL     1      35.347 -20.080 -20.010  0.00  0.00    +0.000 C 
ATOM     27  C   UNL     1      32.936 -20.144 -20.153  0.00  0.00    +0.000 C 
BRANCH  25  28
ATOM     28  C   UNL     1      34.198 -18.704 -21.698  0.00  0.00    +0.000 C 
ATOM     29  C   UNL     1      34.754 -17.439 -21.501  0.00  0.00    +0.003 C 
ATOM     30  C   UNL     1      33.677 -19.050 -22.945  0.00  0.00    +0.003 C 
ATOM     31  C   UNL     1      34.789 -16.522 -22.551  0.00  0.00    +0.037 C 
ATOM     32  C   UNL     1      33.712 -18.132 -23.994  0.00  0.00    +0.037 C 
ATOM     33  C   UNL     1      34.268 -16.868 -23.797  0.00  0.00    +0.139 C 
BRANCH  33  34
ATOM     34  O   UNL     1      34.305 -15.972 -24.822  0.00  0.00    -0.475 OA
BRANCH  34  35
ATOM     35  C   UNL     1      33.168 -15.126 -24.986  0.00  0.00    +0.206 C 
ATOM     36  C   UNL     1      33.237 -14.007 -23.968  0.00  0.00    +0.051 C 
ENDBRANCH  34  35
ENDBRANCH  33  34
ENDBRANCH  25  28
ENDBRANCH  21  22
ENDBRANCH  19  21
ENDBRANCH   1  19
TORSDOF 11
ENDMDL
MODEL 4
REMARK VINA RESULT:     -13.0      4.116      8.272
REMARK  Name = 448384
REMARK  11 active torsions:
REMARK  status: ('A' for Active; 'I' for Inactive)
REMARK    1  A    between atoms: C_1  and  C_3
REMARK    2  A    between atoms: C_1  and  C_6
REMARK    3  A    between atoms: C_1  and  C_19
REMARK    4  A    between atoms: C_3  and  O_4
REMARK    5  A    between atoms: C_6  and  C_7
REMARK    6  A    between atoms: C_7  and  N_10
REMARK    7  A    between atoms: C_19  and  C_21
REMARK    8  A    between atoms: C_21  and  C_22
REMARK    9  A    between atoms: C_25  and  C_28
REMARK   10  A    between atoms: C_33  and  O_34
REMARK   11  A    between atoms: O_34  and  C_35
REMARK                            x       y       z     vdW  Elec       q    Type
REMARK                         _______ _______ _______ _____ _____    ______ ____
ROOT
ATOM      1  C   UNL     1      32.183 -22.516 -15.047  0.00  0.00    +0.108 C 
ENDROOT
BRANCH   1   3
ATOM      2  O   UNL     1      30.786 -22.805 -13.075  0.00  0.00    -0.250 OA
ATOM      3  C   UNL     1      30.871 -22.583 -14.276  0.00  0.00    +0.314 C 
BRANCH   3   4
ATOM      4  O   UNL     1      29.788 -22.362 -15.062  0.00  0.00    -0.480 OA
ATOM      5  H   UNL     1      29.514 -23.015 -15.676  0.00  0.00    +0.295 HD
ENDBRANCH   3   4
ENDBRANCH   1   3
BRANCH   1   6
ATOM      6  C   UNL     1      33.183 -23.546 -14.482  0.00  0.00    +0.034 C 
BRANCH   6   7
ATOM      7  C   UNL     1      34.192 -22.953 -13.498  0.00  0.00    +0.102 C 
BRANCH   7  10
ATOM      8  O   UNL     1      35.657 -25.003 -11.906  0.00  0.00    -0.269 OA
ATOM      9  O   UNL     1      36.216 -22.211 -15.561  0.00  0.00    -0.269 OA
ATOM     10  N   UNL     1      35.524 -23.455 -13.680  0.00  0.00    -0.223 N 
ATOM     11  C   UNL     1      36.110 -24.420 -12.874  0.00  0.00    +0.255 C 
ATOM     12  C   UNL     1      36.385 -23.037 -14.684  0.00  0.00    +0.255 C 
ATOM     13  C   UNL     1      37.451 -24.642 -13.414  0.00  0.00    +0.058 C 
ATOM     14  C   UNL     1      37.617 -23.806 -14.509  0.00  0.00    +0.058 C 
ATOM     15  C   UNL     1      38.447 -25.497 -12.991  0.00  0.00    +0.005 C 
ATOM     16  C   UNL     1      38.787 -23.782 -15.237  0.00  0.00    +0.005 C 
ATOM     17  C   UNL     1      39.642 -25.490 -13.715  0.00  0.00    +0.000 C 
ATOM     18  C   UNL     1      39.812 -24.640 -14.827  0.00  0.00    +0.000 C 
ENDBRANCH   7  10
ENDBRANCH   6   7
ENDBRANCH   1   6
BRANCH   1  19
ATOM     19  C   UNL     1      31.892 -22.808 -16.532  0.00  0.00    +0.080 C 
BRANCH  19  21
ATOM     20  O   UNL     1      33.992 -23.772 -17.241  0.00  0.00    -0.291 OA
ATOM     21  C   UNL     1      33.156 -22.883 -17.384  0.00  0.00    +0.174 C 
BRANCH  21  22
ATOM     22  C   UNL     1      33.383 -21.832 -18.417  0.00  0.00    +0.035 C 
ATOM     23  C   UNL     1      32.298 -21.155 -18.975  0.00  0.00    +0.003 C 
ATOM     24  C   UNL     1      34.681 -21.526 -18.826  0.00  0.00    +0.003 C 
ATOM     25  C   UNL     1      33.810 -19.866 -20.349  0.00  0.00    +0.000 C 
ATOM     26  C   UNL     1      32.511 -20.172 -19.941  0.00  0.00    +0.000 C 
ATOM     27  C   UNL     1      34.895 -20.542 -19.792  0.00  0.00    +0.000 C 
BRANCH  25  28
ATOM     28  C   UNL     1      34.032 -18.846 -21.352  0.00  0.00    +0.000 C 
ATOM     29  C   UNL     1      33.651 -19.076 -22.675  0.00  0.00    +0.003 C 
ATOM     30  C   UNL     1      34.629 -17.636 -20.998  0.00  0.00    +0.003 C 
ATOM     31  C   UNL     1      33.867 -18.095 -23.643  0.00  0.00    +0.037 C 
ATOM     32  C   UNL     1      34.844 -16.656 -21.966  0.00  0.00    +0.037 C 
ATOM     33  C   UNL     1      34.463 -16.885 -23.289  0.00  0.00    +0.139 C 
BRANCH  33  34
ATOM     34  O   UNL     1      34.671 -15.928 -24.234  0.00  0.00    -0.475 OA
BRANCH  34  35
ATOM     35  C   UNL     1      33.514 -15.312 -24.799  0.00  0.00    +0.206 C 
ATOM     36  C   UNL     1      33.121 -14.124 -23.946  0.00  0.00    +0.051 C 
ENDBRANCH  34  35
ENDBRANCH  33  34
ENDBRANCH  25  28
ENDBRANCH  21  22
ENDBRANCH  19  21
ENDBRANCH   1  19
TORSDOF 11
ENDMDL
MODEL 5
REMARK VINA RESULT:     -12.9      2.893     12.024
REMARK  Name = 448384
REMARK  11 active torsions:
REMARK  status: ('A' for Active; 'I' for Inactive)
REMARK    1  A    between atoms: C_1  and  C_3
REMARK    2  A    between atoms: C_1  and  C_6
REMARK    3  A    between atoms: C_1  and  C_19
REMARK    4  A    between atoms: C_3  and  O_4
REMARK    5  A    between atoms: C_6  and  C_7
REMARK    6  A    between atoms: C_7  and  N_10
REMARK    7  A    between atoms: C_19  and  C_21
REMARK    8  A    between atoms: C_21  and  C_22
REMARK    9  A    between atoms: C_25  and  C_28
REMARK   10  A    between atoms: C_33  and  O_34
REMARK   11  A    between atoms: O_34  and  C_35
REMARK                            x       y       z     vdW  Elec       q    Type
REMARK                         _______ _______ _______ _____ _____    ______ ____
ROOT
ATOM      1  C   UNL     1      32.792 -13.221 -23.476  0.00  0.00    +0.108 C 
ENDROOT
BRANCH   1   3
ATOM      2  O   UNL     1      32.980 -13.688 -21.095  0.00  0.00    -0.250 OA
ATOM      3  C   UNL     1      32.343 -13.202 -22.022  0.00  0.00    +0.314 C 
BRANCH   3   4
ATOM      4  O   UNL     1      31.152 -12.578 -21.846  0.00  0.00    -0.480 OA
ATOM      5  H   UNL     1      30.786 -12.064 -22.539  0.00  0.00    +0.295 HD
ENDBRANCH   3   4
ENDBRANCH   1   3
BRANCH   1   6
ATOM      6  C   UNL     1      32.837 -11.785 -24.037  0.00  0.00    +0.034 C 
BRANCH   6   7
ATOM      7  C   UNL     1      33.735 -10.838 -23.242  0.00  0.00    +0.102 C 
BRANCH   7  10
ATOM      8  O   UNL     1      31.011  -9.895 -22.484  0.00  0.00    -0.269 OA
ATOM      9  O   UNL     1      35.132  -8.270 -23.842  0.00  0.00    -0.269 OA
ATOM     10  N   UNL     1      33.229  -9.497 -23.178  0.00  0.00    -0.223 N 
ATOM     11  C   UNL     1      31.933  -9.169 -22.807  0.00  0.00    +0.255 C 
ATOM     12  C   UNL     1      33.975  -8.366 -23.479  0.00  0.00    +0.255 C 
ATOM     13  C   UNL     1      31.849  -7.710 -22.867  0.00  0.00    +0.058 C 
ATOM     14  C   UNL     1      33.084  -7.225 -23.273  0.00  0.00    +0.058 C 
ATOM     15  C   UNL     1      30.788  -6.871 -22.594  0.00  0.00    +0.005 C 
ATOM     16  C   UNL     1      33.322  -5.875 -23.427  0.00  0.00    +0.005 C 
ATOM     17  C   UNL     1      31.007  -5.499 -22.743  0.00  0.00    +0.000 C 
ATOM     18  C   UNL     1      32.262  -5.006 -23.156  0.00  0.00    +0.000 C 
ENDBRANCH   7  10
ENDBRANCH   6   7
ENDBRANCH   1   6
BRANCH   1  19
ATOM     19  C   UNL     1      34.189 -13.870 -23.548  0.00  0.00    +0.080 C 
BRANCH  19  21
ATOM     20  O   UNL     1      34.123 -15.516 -25.316  0.00  0.00    -0.291 OA
ATOM     21  C   UNL     1      34.160 -15.287 -24.110  0.00  0.00    +0.174 C 
BRANCH  21  22
ATOM     22  C   UNL     1      34.167 -16.433 -23.154  0.00  0.00    +0.035 C 
ATOM     23  C   UNL     1      33.779 -17.703 -23.584  0.00  0.00    +0.003 C 
ATOM     24  C   UNL     1      34.563 -16.235 -21.832  0.00  0.00    +0.003 C 
ATOM     25  C   UNL     1      34.182 -18.575 -21.367  0.00  0.00    +0.000 C 
ATOM     26  C   UNL     1      33.786 -18.773 -22.690  0.00  0.00    +0.000 C 
ATOM     27  C   UNL     1      34.570 -17.306 -20.938  0.00  0.00    +0.000 C 
BRANCH  25  28
ATOM     28  C   UNL     1      34.189 -19.686 -20.439  0.00  0.00    +0.000 C 
ATOM     29  C   UNL     1      35.401 -20.190 -19.966  0.00  0.00    +0.003 C 
ATOM     30  C   UNL     1      32.986 -20.253 -20.020  0.00  0.00    +0.003 C 
ATOM     31  C   UNL     1      35.409 -21.262 -19.074  0.00  0.00    +0.037 C 
ATOM     32  C   UNL     1      32.994 -21.324 -19.127  0.00  0.00    +0.037 C 
ATOM     33  C   UNL     1      34.205 -21.829 -18.654  0.00  0.00    +0.139 C 
BRANCH  33  34
ATOM     34  O   UNL     1      34.214 -22.873 -17.781  0.00  0.00    -0.475 OA
BRANCH  34  35
ATOM     35  C   UNL     1      33.215 -22.876 -16.762  0.00  0.00    +0.206 C 
ATOM     36  C   UNL     1      33.892 -22.836 -15.408  0.00  0.00    +0.051 C 
ENDBRANCH  34  35
ENDBRANCH  33  34
ENDBRANCH  25  28
ENDBRANCH  21  22
ENDBRANCH  19  21
ENDBRANCH   1  19
TORSDOF 11
ENDMDL
MODEL 6
REMARK VINA RESULT:     -12.7      4.238      7.197
REMARK  Name = 448384
REMARK  11 active torsions:
REMARK  status: ('A' for Active; 'I' for Inactive)
REMARK    1  A    between atoms: C_1  and  C_3
REMARK    2  A    between atoms: C_1  and  C_6
REMARK    3  A    between atoms: C_1  and  C_19
REMARK    4  A    between atoms: C_3  and  O_4
REMARK    5  A    between atoms: C_6  and  C_7
REMARK    6  A    between atoms: C_7  and  N_10
REMARK    7  A    between atoms: C_19  and  C_21
REMARK    8  A    between atoms: C_21  and  C_22
REMARK    9  A    between atoms: C_25  and  C_28
REMARK   10  A    between atoms: C_33  and  O_34
REMARK   11  A    between atoms: O_34  and  C_35
REMARK                            x       y       z     vdW  Elec       q    Type
REMARK                         _______ _______ _______ _____ _____    ______ ____
ROOT
ATOM      1  C   UNL     1      35.940 -22.979 -15.953  0.00  0.00    +0.108 C 
ENDROOT
BRANCH   1   3
ATOM      2  O   UNL     1      37.153 -22.129 -14.022  0.00  0.00    -0.250 OA
ATOM      3  C   UNL     1      37.178 -22.594 -15.155  0.00  0.00    +0.314 C 
BRANCH   3   4
ATOM      4  O   UNL     1      38.332 -22.826 -15.829  0.00  0.00    -0.480 OA
ATOM      5  H   UNL     1      38.430 -22.520 -16.709  0.00  0.00    +0.295 HD
ENDBRANCH   3   4
ENDBRANCH   1   3
BRANCH   1   6
ATOM      6  C   UNL     1      34.836 -23.492 -15.006  0.00  0.00    +0.034 C 
BRANCH   6   7
ATOM      7  C   UNL     1      33.758 -22.454 -14.693  0.00  0.00    +0.102 C 
BRANCH   7  10
ATOM      8  O   UNL     1      32.439 -24.266 -12.727  0.00  0.00    -0.269 OA
ATOM      9  O   UNL     1      31.599 -22.064 -16.716  0.00  0.00    -0.269 OA
ATOM     10  N   UNL     1      32.428 -22.994 -14.713  0.00  0.00    -0.223 N 
ATOM     11  C   UNL     1      31.913 -23.833 -13.736  0.00  0.00    +0.255 C 
ATOM     12  C   UNL     1      31.499 -22.741 -15.711  0.00  0.00    +0.255 C 
ATOM     13  C   UNL     1      30.539 -24.132 -14.140  0.00  0.00    +0.058 C 
ATOM     14  C   UNL     1      30.288 -23.472 -15.334  0.00  0.00    +0.058 C 
ATOM     15  C   UNL     1      29.584 -24.914 -13.523  0.00  0.00    +0.005 C 
ATOM     16  C   UNL     1      29.070 -23.559 -15.974  0.00  0.00    +0.005 C 
ATOM     17  C   UNL     1      28.341 -25.016 -14.153  0.00  0.00    +0.000 C 
ATOM     18  C   UNL     1      28.087 -24.346 -15.368  0.00  0.00    +0.000 C 
ENDBRANCH   7  10
ENDBRANCH   6   7
ENDBRANCH   1   6
BRANCH   1  19
ATOM     19  C   UNL     1      35.451 -21.738 -16.724  0.00  0.00    +0.080 C 
BRANCH  19  21
ATOM     20  O   UNL     1      34.102 -23.179 -18.118  0.00  0.00    -0.291 OA
ATOM     21  C   UNL     1      34.650 -22.089 -17.974  0.00  0.00    +0.174 C 
BRANCH  21  22
ATOM     22  C   UNL     1      34.539 -21.072 -19.060  0.00  0.00    +0.035 C 
ATOM     23  C   UNL     1      33.287 -20.721 -19.563  0.00  0.00    +0.003 C 
ATOM     24  C   UNL     1      35.690 -20.472 -19.572  0.00  0.00    +0.003 C 
ATOM     25  C   UNL     1      34.335 -19.170 -21.090  0.00  0.00    +0.000 C 
ATOM     26  C   UNL     1      33.185 -19.770 -20.578  0.00  0.00    +0.000 C 
ATOM     27  C   UNL     1      35.588 -19.521 -20.588  0.00  0.00    +0.000 C 
BRANCH  25  28
ATOM     28  C   UNL     1      34.230 -18.184 -22.144  0.00  0.00    +0.000 C 
ATOM     29  C   UNL     1      33.722 -18.550 -23.392  0.00  0.00    +0.003 C 
ATOM     30  C   UNL     1      34.639 -16.871 -21.915  0.00  0.00    +0.003 C 
ATOM     31  C   UNL     1      33.623 -17.601 -24.409  0.00  0.00    +0.037 C 
ATOM     32  C   UNL     1      34.538 -15.922 -22.933  0.00  0.00    +0.037 C 
ATOM     33  C   UNL     1      34.031 -16.287 -24.180  0.00  0.00    +0.139 C 
BRANCH  33  34
ATOM     34  O   UNL     1      33.931 -15.361 -25.172  0.00  0.00    -0.475 OA
BRANCH  34  35
ATOM     35  C   UNL     1      33.087 -14.236 -24.929  0.00  0.00    +0.206 C 
ATOM     36  C   UNL     1      33.060 -13.363 -26.165  0.00  0.00    +0.051 C 
ENDBRANCH  34  35
ENDBRANCH  33  34
ENDBRANCH  25  28
ENDBRANCH  21  22
ENDBRANCH  19  21
ENDBRANCH   1  19
TORSDOF 11
ENDMDL
MODEL 7
REMARK VINA RESULT:     -12.7      4.250      7.157
REMARK  Name = 448384
REMARK  11 active torsions:
REMARK  status: ('A' for Active; 'I' for Inactive)
REMARK    1  A    between atoms: C_1  and  C_3
REMARK    2  A    between atoms: C_1  and  C_6
REMARK    3  A    between atoms: C_1  and  C_19
REMARK    4  A    between atoms: C_3  and  O_4
REMARK    5  A    between atoms: C_6  and  C_7
REMARK    6  A    between atoms: C_7  and  N_10
REMARK    7  A    between atoms: C_19  and  C_21
REMARK    8  A    between atoms: C_21  and  C_22
REMARK    9  A    between atoms: C_25  and  C_28
REMARK   10  A    between atoms: C_33  and  O_34
REMARK   11  A    between atoms: O_34  and  C_35
REMARK                            x       y       z     vdW  Elec       q    Type
REMARK                         _______ _______ _______ _____ _____    ______ ____
ROOT
ATOM      1  C   UNL     1      35.896 -23.046 -15.900  0.00  0.00    +0.108 C 
ENDROOT
BRANCH   1   3
ATOM      2  O   UNL     1      37.134 -22.347 -13.925  0.00  0.00    -0.250 OA
ATOM      3  C   UNL     1      37.142 -22.691 -15.101  0.00  0.00    +0.314 C 
BRANCH   3   4
ATOM      4  O   UNL     1      38.282 -22.801 -15.827  0.00  0.00    -0.480 OA
ATOM      5  H   UNL     1      38.701 -23.635 -15.918  0.00  0.00    +0.295 HD
ENDBRANCH   3   4
ENDBRANCH   1   3
BRANCH   1   6
ATOM      6  C   UNL     1      34.777 -23.529 -14.954  0.00  0.00    +0.034 C 
BRANCH   6   7
ATOM      7  C   UNL     1      33.711 -22.471 -14.667  0.00  0.00    +0.102 C 
BRANCH   7  10
ATOM      8  O   UNL     1      31.550 -22.029 -16.671  0.00  0.00    -0.269 OA
ATOM      9  O   UNL     1      32.371 -24.276 -12.703  0.00  0.00    -0.269 OA
ATOM     10  N   UNL     1      32.375 -22.994 -14.684  0.00  0.00    -0.223 N 
ATOM     11  C   UNL     1      31.445 -22.723 -15.676  0.00  0.00    +0.255 C 
ATOM     12  C   UNL     1      31.853 -23.835 -13.712  0.00  0.00    +0.255 C 
ATOM     13  C   UNL     1      30.234 -23.458 -15.311  0.00  0.00    +0.058 C 
ATOM     14  C   UNL     1      30.481 -24.131 -14.123  0.00  0.00    +0.058 C 
ATOM     15  C   UNL     1      29.016 -23.537 -15.955  0.00  0.00    +0.005 C 
ATOM     16  C   UNL     1      29.524 -24.917 -13.517  0.00  0.00    +0.005 C 
ATOM     17  C   UNL     1      28.031 -24.328 -15.359  0.00  0.00    +0.000 C 
ATOM     18  C   UNL     1      28.282 -25.011 -14.151  0.00  0.00    +0.000 C 
ENDBRANCH   7  10
ENDBRANCH   6   7
ENDBRANCH   1   6
BRANCH   1  19
ATOM     19  C   UNL     1      35.440 -21.794 -16.676  0.00  0.00    +0.080 C 
BRANCH  19  21
ATOM     20  O   UNL     1      34.049 -23.205 -18.060  0.00  0.00    -0.291 OA
ATOM     21  C   UNL     1      34.621 -22.128 -17.919  0.00  0.00    +0.174 C 
BRANCH  21  22
ATOM     22  C   UNL     1      34.525 -21.108 -19.004  0.00  0.00    +0.035 C 
ATOM     23  C   UNL     1      35.684 -20.532 -19.526  0.00  0.00    +0.003 C 
ATOM     24  C   UNL     1      33.276 -20.733 -19.498  0.00  0.00    +0.003 C 
ATOM     25  C   UNL     1      34.344 -19.204 -21.034  0.00  0.00    +0.000 C 
ATOM     26  C   UNL     1      35.593 -19.580 -20.540  0.00  0.00    +0.000 C 
ATOM     27  C   UNL     1      33.185 -19.780 -20.513  0.00  0.00    +0.000 C 
BRANCH  25  28
ATOM     28  C   UNL     1      34.248 -18.215 -22.086  0.00  0.00    +0.000 C 
ATOM     29  C   UNL     1      34.648 -16.900 -21.844  0.00  0.00    +0.003 C 
ATOM     30  C   UNL     1      33.755 -18.575 -23.341  0.00  0.00    +0.003 C 
ATOM     31  C   UNL     1      34.555 -15.946 -22.857  0.00  0.00    +0.037 C 
ATOM     32  C   UNL     1      33.663 -17.620 -24.353  0.00  0.00    +0.037 C 
ATOM     33  C   UNL     1      34.062 -16.306 -24.111  0.00  0.00    +0.139 C 
BRANCH  33  34
ATOM     34  O   UNL     1      33.974 -15.374 -25.100  0.00  0.00    -0.475 OA
BRANCH  34  35
ATOM     35  C   UNL     1      33.055 -14.300 -24.901  0.00  0.00    +0.206 C 
ATOM     36  C   UNL     1      33.048 -13.422 -26.135  0.00  0.00    +0.051 C 
ENDBRANCH  34  35
ENDBRANCH  33  34
ENDBRANCH  25  28
ENDBRANCH  21  22
ENDBRANCH  19  21
ENDBRANCH   1  19
TORSDOF 11
ENDMDL
MODEL 8
REMARK VINA RESULT:     -12.5      2.717     11.595
REMARK  Name = 448384
REMARK  11 active torsions:
REMARK  status: ('A' for Active; 'I' for Inactive)
REMARK    1  A    between atoms: C_1  and  C_3
REMARK    2  A    between atoms: C_1  and  C_6
REMARK    3  A    between atoms: C_1  and  C_19
REMARK    4  A    between atoms: C_3  and  O_4
REMARK    5  A    between atoms: C_6  and  C_7
REMARK    6  A    between atoms: C_7  and  N_10
REMARK    7  A    between atoms: C_19  and  C_21
REMARK    8  A    between atoms: C_21  and  C_22
REMARK    9  A    between atoms: C_25  and  C_28
REMARK   10  A    between atoms: C_33  and  O_34
REMARK   11  A    between atoms: O_34  and  C_35
REMARK                            x       y       z     vdW  Elec       q    Type
REMARK                         _______ _______ _______ _____ _____    ______ ____
ROOT
ATOM      1  C   UNL     1      32.869 -13.434 -22.763  0.00  0.00    +0.108 C 
ENDROOT
BRANCH   1   3
ATOM      2  O   UNL     1      32.020 -13.859 -20.522  0.00  0.00    -0.250 OA
ATOM      3  C   UNL     1      32.944 -13.505 -21.244  0.00  0.00    +0.314 C 
BRANCH   3   4
ATOM      4  O   UNL     1      34.156 -13.136 -20.758  0.00  0.00    -0.480 OA
ATOM      5  H   UNL     1      34.911 -13.661 -20.938  0.00  0.00    +0.295 HD
ENDBRANCH   3   4
ENDBRANCH   1   3
BRANCH   1   6
ATOM      6  C   UNL     1      32.505 -12.003 -23.210  0.00  0.00    +0.034 C 
BRANCH   6   7
ATOM      7  C   UNL     1      31.255 -11.442 -22.532  0.00  0.00    +0.102 C 
BRANCH   7  10
ATOM      8  O   UNL     1      31.753  -8.927 -24.052  0.00  0.00    -0.269 OA
ATOM      9  O   UNL     1      31.226 -10.464 -19.713  0.00  0.00    -0.269 OA
ATOM     10  N   UNL     1      31.431 -10.107 -22.036  0.00  0.00    -0.223 N 
ATOM     11  C   UNL     1      31.656  -9.000 -22.841  0.00  0.00    +0.255 C 
ATOM     12  C   UNL     1      31.394  -9.763 -20.693  0.00  0.00    +0.255 C 
ATOM     13  C   UNL     1      31.764  -7.855 -21.937  0.00  0.00    +0.058 C 
ATOM     14  C   UNL     1      31.605  -8.316 -20.638  0.00  0.00    +0.058 C 
ATOM     15  C   UNL     1      31.982  -6.522 -22.217  0.00  0.00    +0.005 C 
ATOM     16  C   UNL     1      31.657  -7.469 -19.552  0.00  0.00    +0.005 C 
ATOM     17  C   UNL     1      32.038  -5.644 -21.131  0.00  0.00    +0.000 C 
ATOM     18  C   UNL     1      31.878  -6.113 -19.811  0.00  0.00    +0.000 C 
ENDBRANCH   7  10
ENDBRANCH   6   7
ENDBRANCH   1   6
BRANCH   1  19
ATOM     19  C   UNL     1      34.239 -13.845 -23.339  0.00  0.00    +0.080 C 
BRANCH  19  21
ATOM     20  O   UNL     1      34.248 -15.438 -25.156  0.00  0.00    -0.291 OA
ATOM     21  C   UNL     1      34.236 -15.245 -23.943  0.00  0.00    +0.174 C 
BRANCH  21  22
ATOM     22  C   UNL     1      34.207 -16.419 -23.023  0.00  0.00    +0.035 C 
ATOM     23  C   UNL     1      34.603 -16.274 -21.693  0.00  0.00    +0.003 C 
ATOM     24  C   UNL     1      33.782 -17.662 -23.492  0.00  0.00    +0.003 C 
ATOM     25  C   UNL     1      34.150 -18.615 -21.303  0.00  0.00    +0.000 C 
ATOM     26  C   UNL     1      34.575 -17.372 -20.834  0.00  0.00    +0.000 C 
ATOM     27  C   UNL     1      33.754 -18.761 -22.633  0.00  0.00    +0.000 C 
BRANCH  25  28
ATOM     28  C   UNL     1      34.121 -19.755 -20.412  0.00  0.00    +0.000 C 
ATOM     29  C   UNL     1      32.898 -20.289 -20.004  0.00  0.00    +0.003 C 
ATOM     30  C   UNL     1      35.315 -20.318 -19.959  0.00  0.00    +0.003 C 
ATOM     31  C   UNL     1      32.870 -21.387 -19.144  0.00  0.00    +0.037 C 
ATOM     32  C   UNL     1      35.285 -21.415 -19.099  0.00  0.00    +0.037 C 
ATOM     33  C   UNL     1      34.063 -21.949 -18.691  0.00  0.00    +0.139 C 
BRANCH  33  34
ATOM     34  O   UNL     1      34.034 -23.022 -17.853  0.00  0.00    -0.475 OA
BRANCH  34  35
ATOM     35  C   UNL     1      33.260 -22.894 -16.661  0.00  0.00    +0.206 C 
ATOM     36  C   UNL     1      34.180 -22.999 -15.463  0.00  0.00    +0.051 C 
ENDBRANCH  34  35
ENDBRANCH  33  34
ENDBRANCH  25  28
ENDBRANCH  21  22
ENDBRANCH  19  21
ENDBRANCH   1  19
TORSDOF 11
ENDMDL
MODEL 9
REMARK VINA RESULT:     -12.3      2.743     11.400
REMARK  Name = 448384
REMARK  11 active torsions:
REMARK  status: ('A' for Active; 'I' for Inactive)
REMARK    1  A    between atoms: C_1  and  C_3
REMARK    2  A    between atoms: C_1  and  C_6
REMARK    3  A    between atoms: C_1  and  C_19
REMARK    4  A    between atoms: C_3  and  O_4
REMARK    5  A    between atoms: C_6  and  C_7
REMARK    6  A    between atoms: C_7  and  N_10
REMARK    7  A    between atoms: C_19  and  C_21
REMARK    8  A    between atoms: C_21  and  C_22
REMARK    9  A    between atoms: C_25  and  C_28
REMARK   10  A    between atoms: C_33  and  O_34
REMARK   11  A    between atoms: O_34  and  C_35
REMARK                            x       y       z     vdW  Elec       q    Type
REMARK                         _______ _______ _______ _____ _____    ______ ____
ROOT
ATOM      1  C   UNL     1      33.616 -13.178 -23.389  0.00  0.00    +0.108 C 
ENDROOT
BRANCH   1   3
ATOM      2  O   UNL     1      32.826 -12.071 -25.407  0.00  0.00    -0.250 OA
ATOM      3  C   UNL     1      33.479 -12.023 -24.371  0.00  0.00    +0.314 C 
BRANCH   3   4
ATOM      4  O   UNL     1      34.155 -10.915 -23.980  0.00  0.00    -0.480 OA
ATOM      5  H   UNL     1      34.452 -10.297 -24.619  0.00  0.00    +0.295 HD
ENDBRANCH   3   4
ENDBRANCH   1   3
BRANCH   1   6
ATOM      6  C   UNL     1      32.895 -12.840 -22.068  0.00  0.00    +0.034 C 
BRANCH   6   7
ATOM      7  C   UNL     1      31.544 -12.151 -22.260  0.00  0.00    +0.102 C 
BRANCH   7  10
ATOM      8  O   UNL     1      31.495 -11.246 -19.420  0.00  0.00    -0.269 OA
ATOM      9  O   UNL     1      31.496  -9.558 -23.735  0.00  0.00    -0.269 OA
ATOM     10  N   UNL     1      31.510 -10.815 -21.738  0.00  0.00    -0.223 N 
ATOM     11  C   UNL     1      31.492 -10.506 -20.387  0.00  0.00    +0.255 C 
ATOM     12  C   UNL     1      31.493  -9.671 -22.524  0.00  0.00    +0.255 C 
ATOM     13  C   UNL     1      31.471  -9.046 -20.303  0.00  0.00    +0.058 C 
ATOM     14  C   UNL     1      31.472  -8.541 -21.596  0.00  0.00    +0.058 C 
ATOM     15  C   UNL     1      31.451  -8.221 -19.197  0.00  0.00    +0.005 C 
ATOM     16  C   UNL     1      31.452  -7.186 -21.850  0.00  0.00    +0.005 C 
ATOM     17  C   UNL     1      31.432  -6.843 -19.431  0.00  0.00    +0.000 C 
ATOM     18  C   UNL     1      31.432  -6.330 -20.744  0.00  0.00    +0.000 C 
ENDBRANCH   7  10
ENDBRANCH   6   7
ENDBRANCH   1   6
BRANCH   1  19
ATOM     19  C   UNL     1      33.003 -14.439 -24.029  0.00  0.00    +0.080 C 
BRANCH  19  21
ATOM     20  O   UNL     1      34.764 -15.588 -25.221  0.00  0.00    -0.291 OA
ATOM     21  C   UNL     1      34.021 -15.555 -24.243  0.00  0.00    +0.174 C 
BRANCH  21  22
ATOM     22  C   UNL     1      34.105 -16.647 -23.231  0.00  0.00    +0.035 C 
ATOM     23  C   UNL     1      33.741 -17.949 -23.576  0.00  0.00    +0.003 C 
ATOM     24  C   UNL     1      34.549 -16.367 -21.938  0.00  0.00    +0.003 C 
ATOM     25  C   UNL     1      34.265 -18.689 -21.337  0.00  0.00    +0.000 C 
ATOM     26  C   UNL     1      33.820 -18.970 -22.630  0.00  0.00    +0.000 C 
ATOM     27  C   UNL     1      34.629 -17.388 -20.991  0.00  0.00    +0.000 C 
BRANCH  25  28
ATOM     28  C   UNL     1      34.346 -19.748 -20.354  0.00  0.00    +0.000 C 
ATOM     29  C   UNL     1      33.180 -20.346 -19.876  0.00  0.00    +0.003 C 
ATOM     30  C   UNL     1      35.590 -20.169 -19.882  0.00  0.00    +0.003 C 
ATOM     31  C   UNL     1      33.258 -21.365 -18.926  0.00  0.00    +0.037 C 
ATOM     32  C   UNL     1      35.667 -21.188 -18.934  0.00  0.00    +0.037 C 
ATOM     33  C   UNL     1      34.501 -21.786 -18.455  0.00  0.00    +0.139 C 
BRANCH  33  34
ATOM     34  O   UNL     1      34.576 -22.782 -17.531  0.00  0.00    -0.475 OA
BRANCH  34  35
ATOM     35  C   UNL     1      33.640 -22.742 -16.454  0.00  0.00    +0.206 C 
ATOM     36  C   UNL     1      34.389 -22.516 -15.158  0.00  0.00    +0.051 C 
ENDBRANCH  34  35
ENDBRANCH  33  34
ENDBRANCH  25  28
ENDBRANCH  21  22
ENDBRANCH  19  21
ENDBRANCH   1  19
TORSDOF 11
ENDMDL
