MODEL 1
REMARK VINA RESULT:     -12.6      0.000      0.000
REMARK  Name = 10275777
REMARK  5 active torsions:
REMARK  status: ('A' for Active; 'I' for Inactive)
REMARK    1  A    between atoms: C_1  and  N_19
REMARK    2  A    between atoms: C_2  and  C_11
REMARK    3  A    between atoms: C_5  and  O_34
REMARK    4  A    between atoms: C_20  and  C_22
REMARK    5  A    between atoms: C_23  and  C_30
REMARK                            x       y       z     vdW  Elec       q    Type
REMARK                         _______ _______ _______ _____ _____    ______ ____
ROOT
ATOM      1  C   UNL     1      36.204 -21.865 -16.687  0.00  0.00    +0.055 C 
ATOM      2  C   UNL     1      35.231 -22.618 -16.049  0.00  0.00    +0.070 C 
ATOM      3  C   UNL     1      37.540 -21.963 -16.331  0.00  0.00    +0.018 C 
ATOM      4  C   UNL     1      35.604 -23.492 -15.027  0.00  0.00    +0.043 C 
ATOM      5  C   UNL     1      36.944 -23.602 -14.658  0.00  0.00    +0.139 C 
ATOM      6  C   UNL     1      37.912 -22.837 -15.310  0.00  0.00    +0.038 C 
ENDROOT
BRANCH   2  11
ATOM      7 CL   UNL     1      27.082 -22.312 -15.546  0.00  0.00    -0.081 Cl
ATOM      8  O   UNL     1      33.514 -22.489 -17.613  0.00  0.00    -0.270 OA
ATOM      9  N   UNL     1      32.917 -22.523 -15.344  0.00  0.00    -0.266 N 
ATOM     10  N   UNL     1      30.835 -22.476 -14.223  0.00  0.00    -0.228 NA
ATOM     11  C   UNL     1      33.823 -22.530 -16.413  0.00  0.00    +0.252 C 
ATOM     12  C   UNL     1      31.502 -22.471 -15.390  0.00  0.00    +0.134 C 
ATOM     13  C   UNL     1      30.922 -22.421 -16.639  0.00  0.00    +0.035 C 
ATOM     14  C   UNL     1      29.533 -22.370 -16.695  0.00  0.00    +0.016 C 
ATOM     15  C   UNL     1      29.488 -22.426 -14.317  0.00  0.00    +0.112 C 
ATOM     16  C   UNL     1      28.795 -22.372 -15.516  0.00  0.00    +0.077 C 
ATOM     17  H   UNL     1      33.316 -22.561 -14.444  0.00  0.00    +0.157 HD
ENDBRANCH   2  11
BRANCH   1  19
ATOM     18  O   UNL     1      35.896 -22.344 -19.630  0.00  0.00    -0.270 OA
ATOM     19  N   UNL     1      35.849 -20.972 -17.727  0.00  0.00    -0.280 N 
ATOM     20  C   UNL     1      35.715 -21.237 -19.097  0.00  0.00    +0.249 C 
ATOM     21  H   UNL     1      35.674 -20.043 -17.452  0.00  0.00    +0.155 HD
BRANCH  20  22
ATOM     22  C   UNL     1      35.363 -20.100 -19.932  0.00  0.00    +0.054 C 
ATOM     23  C   UNL     1      34.697 -17.946 -21.516  0.00  0.00    +0.031 C 
ATOM     24  C   UNL     1      36.351 -19.209 -20.349  0.00  0.00    +0.005 C 
ATOM     25  C   UNL     1      34.037 -19.901 -20.317  0.00  0.00    +0.005 C 
ATOM     26  C   UNL     1      36.014 -18.118 -21.151  0.00  0.00    +0.003 C 
ATOM     27  C   UNL     1      33.700 -18.810 -21.119  0.00  0.00    +0.003 C 
BRANCH  23  30
ATOM     28  N   UNL     1      33.880 -16.987 -23.678  0.00  0.00    -0.290 N 
ATOM     29  N   UNL     1      34.479 -15.620 -21.803  0.00  0.00    -0.285 NA
ATOM     30  C   UNL     1      34.338 -16.783 -22.372  0.00  0.00    +0.123 C 
ATOM     31  C   UNL     1      33.596 -15.865 -24.569  0.00  0.00    +0.114 C 
ATOM     32  C   UNL     1      33.725 -18.310 -24.278  0.00  0.00    +0.114 C 
ATOM     33  H   UNL     1      34.262 -14.799 -22.300  0.00  0.00    +0.188 HD
ENDBRANCH  23  30
ENDBRANCH  20  22
ENDBRANCH   1  19
BRANCH   5  34
ATOM     34  O   UNL     1      37.308 -24.455 -13.662  0.00  0.00    -0.471 OA
ATOM     35  C   UNL     1      38.690 -24.799 -13.574  0.00  0.00    +0.252 C 
ENDBRANCH   5  34
TORSDOF 5
ENDMDL
MODEL 2
REMARK VINA RESULT:     -12.2      3.178      5.727
REMARK  Name = 10275777
REMARK  5 active torsions:
REMARK  status: ('A' for Active; 'I' for Inactive)
REMARK    1  A    between atoms: C_1  and  N_19
REMARK    2  A    between atoms: C_2  and  C_11
REMARK    3  A    between atoms: C_5  and  O_34
REMARK    4  A    between atoms: C_20  and  C_22
REMARK    5  A    between atoms: C_23  and  C_30
REMARK                            x       y       z     vdW  Elec       q    Type
REMARK                         _______ _______ _______ _____ _____    ______ ____
ROOT
ATOM      1  C   UNL     1      31.367 -22.810 -16.122  0.00  0.00    +0.055 C 
ATOM      2  C   UNL     1      32.118 -23.404 -15.122  0.00  0.00    +0.070 C 
ATOM      3  C   UNL     1      29.991 -22.969 -16.182  0.00  0.00    +0.018 C 
ATOM      4  C   UNL     1      31.478 -24.179 -14.155  0.00  0.00    +0.043 C 
ATOM      5  C   UNL     1      30.094 -24.350 -14.202  0.00  0.00    +0.139 C 
ATOM      6  C   UNL     1      29.351 -23.745 -15.216  0.00  0.00    +0.038 C 
ENDROOT
BRANCH   2  11
ATOM      7 CL   UNL     1      40.086 -25.040 -14.359  0.00  0.00    -0.081 Cl
ATOM      8  O   UNL     1      34.045 -22.100 -15.086  0.00  0.00    -0.270 OA
ATOM      9  N   UNL     1      34.301 -24.424 -14.892  0.00  0.00    -0.266 N 
ATOM     10  N   UNL     1      36.191 -25.823 -14.630  0.00  0.00    -0.228 NA
ATOM     11  C   UNL     1      33.564 -23.242 -15.041  0.00  0.00    +0.252 C 
ATOM     12  C   UNL     1      35.704 -24.577 -14.764  0.00  0.00    +0.134 C 
ATOM     13  C   UNL     1      36.459 -23.425 -14.785  0.00  0.00    +0.035 C 
ATOM     14  C   UNL     1      37.837 -23.563 -14.659  0.00  0.00    +0.016 C 
ATOM     15  C   UNL     1      37.534 -25.918 -14.510  0.00  0.00    +0.112 C 
ATOM     16  C   UNL     1      38.393 -24.831 -14.519  0.00  0.00    +0.077 C 
ATOM     17  H   UNL     1      33.776 -25.258 -14.873  0.00  0.00    +0.157 HD
ENDBRANCH   2  11
BRANCH   1  19
ATOM     18  O   UNL     1      33.172 -23.604 -18.380  0.00  0.00    -0.270 OA
ATOM     19  N   UNL     1      31.995 -22.017 -17.113  0.00  0.00    -0.280 N 
ATOM     20  C   UNL     1      32.835 -22.430 -18.157  0.00  0.00    +0.249 C 
ATOM     21  H   UNL     1      31.818 -21.050 -17.063  0.00  0.00    +0.155 HD
BRANCH  20  22
ATOM     22  C   UNL     1      33.356 -21.372 -19.009  0.00  0.00    +0.054 C 
ATOM     23  C   UNL     1      34.341 -19.366 -20.620  0.00  0.00    +0.031 C 
ATOM     24  C   UNL     1      32.478 -20.499 -19.651  0.00  0.00    +0.005 C 
ATOM     25  C   UNL     1      34.732 -21.230 -19.182  0.00  0.00    +0.005 C 
ATOM     26  C   UNL     1      32.977 -19.483 -20.466  0.00  0.00    +0.003 C 
ATOM     27  C   UNL     1      35.232 -20.214 -19.998  0.00  0.00    +0.003 C 
BRANCH  23  30
ATOM     28  N   UNL     1      34.364 -18.102 -22.780  0.00  0.00    -0.290 N 
ATOM     29  N   UNL     1      35.807 -17.553 -20.947  0.00  0.00    -0.285 NA
ATOM     30  C   UNL     1      34.873 -18.282 -21.489  0.00  0.00    +0.123 C 
ATOM     31  C   UNL     1      34.922 -17.101 -23.685  0.00  0.00    +0.114 C 
ATOM     32  C   UNL     1      33.308 -18.935 -23.350  0.00  0.00    +0.114 C 
ATOM     33  H   UNL     1      36.213 -16.815 -21.454  0.00  0.00    +0.188 HD
ENDBRANCH  23  30
ENDBRANCH  20  22
ENDBRANCH   1  19
BRANCH   5  34
ATOM     34  O   UNL     1      29.469 -25.106 -13.259  0.00  0.00    -0.471 OA
ATOM     35  C   UNL     1      28.221 -25.696 -13.622  0.00  0.00    +0.252 C 
ENDBRANCH   5  34
TORSDOF 5
ENDMDL
MODEL 3
REMARK VINA RESULT:     -12.2      1.012      1.575
REMARK  Name = 10275777
REMARK  5 active torsions:
REMARK  status: ('A' for Active; 'I' for Inactive)
REMARK    1  A    between atoms: C_1  and  N_19
REMARK    2  A    between atoms: C_2  and  C_11
REMARK    3  A    between atoms: C_5  and  O_34
REMARK    4  A    between atoms: C_20  and  C_22
REMARK    5  A    between atoms: C_23  and  C_30
REMARK                            x       y       z     vdW  Elec       q    Type
REMARK                         _______ _______ _______ _____ _____    ______ ____
ROOT
ATOM      1  C   UNL     1      36.048 -22.341 -16.436  0.00  0.00    +0.055 C 
ATOM      2  C   UNL     1      35.019 -22.915 -15.709  0.00  0.00    +0.070 C 
ATOM      3  C   UNL     1      37.367 -22.444 -16.025  0.00  0.00    +0.018 C 
ATOM      4  C   UNL     1      35.316 -23.612 -14.537  0.00  0.00    +0.043 C 
ATOM      5  C   UNL     1      36.639 -23.725 -14.109  0.00  0.00    +0.139 C 
ATOM      6  C   UNL     1      37.664 -23.141 -14.853  0.00  0.00    +0.038 C 
ENDROOT
BRANCH   2  11
ATOM      7 CL   UNL     1      26.882 -22.198 -15.533  0.00  0.00    -0.081 Cl
ATOM      8  O   UNL     1      33.354 -22.933 -17.334  0.00  0.00    -0.270 OA
ATOM      9  N   UNL     1      32.693 -22.626 -15.103  0.00  0.00    -0.266 N 
ATOM     10  N   UNL     1      30.584 -22.334 -14.072  0.00  0.00    -0.228 NA
ATOM     11  C   UNL     1      33.627 -22.820 -16.130  0.00  0.00    +0.252 C 
ATOM     12  C   UNL     1      31.284 -22.520 -15.205  0.00  0.00    +0.134 C 
ATOM     13  C   UNL     1      30.742 -22.620 -16.467  0.00  0.00    +0.035 C 
ATOM     14  C   UNL     1      29.359 -22.519 -16.578  0.00  0.00    +0.016 C 
ATOM     15  C   UNL     1      29.244 -22.241 -14.218  0.00  0.00    +0.112 C 
ATOM     16  C   UNL     1      28.589 -22.326 -15.436  0.00  0.00    +0.077 C 
ATOM     17  H   UNL     1      33.064 -22.554 -14.194  0.00  0.00    +0.157 HD
ENDBRANCH   2  11
BRANCH   1  19
ATOM     18  O   UNL     1      37.120 -19.721 -17.424  0.00  0.00    -0.270 OA
ATOM     19  N   UNL     1      35.770 -21.630 -17.629  0.00  0.00    -0.280 N 
ATOM     20  C   UNL     1      36.296 -20.402 -18.055  0.00  0.00    +0.249 C 
ATOM     21  H   UNL     1      35.124 -22.053 -18.239  0.00  0.00    +0.155 HD
BRANCH  20  22
ATOM     22  C   UNL     1      35.795 -19.905 -19.327  0.00  0.00    +0.054 C 
ATOM     23  C   UNL     1      34.844 -18.962 -21.735  0.00  0.00    +0.031 C 
ATOM     24  C   UNL     1      34.534 -20.293 -19.780  0.00  0.00    +0.005 C 
ATOM     25  C   UNL     1      36.575 -19.039 -20.094  0.00  0.00    +0.005 C 
ATOM     26  C   UNL     1      34.053 -19.815 -20.999  0.00  0.00    +0.003 C 
ATOM     27  C   UNL     1      36.093 -18.561 -21.313  0.00  0.00    +0.003 C 
BRANCH  23  30
ATOM     28  N   UNL     1      34.208 -17.075 -23.250  0.00  0.00    -0.290 N 
ATOM     29  N   UNL     1      34.032 -19.373 -23.906  0.00  0.00    -0.285 NA
ATOM     30  C   UNL     1      34.330 -18.451 -23.035  0.00  0.00    +0.123 C 
ATOM     31  C   UNL     1      33.632 -16.546 -24.484  0.00  0.00    +0.114 C 
ATOM     32  C   UNL     1      34.564 -16.070 -22.251  0.00  0.00    +0.114 C 
ATOM     33  H   UNL     1      33.686 -19.120 -24.791  0.00  0.00    +0.188 HD
ENDBRANCH  23  30
ENDBRANCH  20  22
ENDBRANCH   1  19
BRANCH   5  34
ATOM     34  O   UNL     1      36.929 -24.404 -12.966  0.00  0.00    -0.471 OA
ATOM     35  C   UNL     1      38.109 -25.206 -12.970  0.00  0.00    +0.252 C 
ENDBRANCH   5  34
TORSDOF 5
ENDMDL
MODEL 4
REMARK VINA RESULT:     -11.2      3.534      9.199
REMARK  Name = 10275777
REMARK  5 active torsions:
REMARK  status: ('A' for Active; 'I' for Inactive)
REMARK    1  A    between atoms: C_1  and  N_19
REMARK    2  A    between atoms: C_2  and  C_11
REMARK    3  A    between atoms: C_5  and  O_34
REMARK    4  A    between atoms: C_20  and  C_22
REMARK    5  A    between atoms: C_23  and  C_30
REMARK                            x       y       z     vdW  Elec       q    Type
REMARK                         _______ _______ _______ _____ _____    ______ ____
ROOT
ATOM      1  C   UNL     1      30.795 -23.561 -15.203  0.00  0.00    +0.055 C 
ATOM      2  C   UNL     1      30.648 -22.792 -16.346  0.00  0.00    +0.070 C 
ATOM      3  C   UNL     1      29.694 -24.020 -14.497  0.00  0.00    +0.018 C 
ATOM      4  C   UNL     1      29.366 -22.472 -16.794  0.00  0.00    +0.043 C 
ATOM      5  C   UNL     1      28.249 -22.926 -16.094  0.00  0.00    +0.139 C 
ATOM      6  C   UNL     1      28.413 -23.700 -14.945  0.00  0.00    +0.038 C 
ENDROOT
BRANCH   2  11
ATOM      7 CL   UNL     1      35.194 -19.045 -22.007  0.00  0.00    -0.081 Cl
ATOM      8  O   UNL     1      32.934 -22.650 -16.757  0.00  0.00    -0.270 OA
ATOM      9  N   UNL     1      31.495 -21.486 -18.199  0.00  0.00    -0.266 N 
ATOM     10  N   UNL     1      31.869 -20.137 -20.107  0.00  0.00    -0.228 NA
ATOM     11  C   UNL     1      31.794 -22.305 -17.103  0.00  0.00    +0.252 C 
ATOM     12  C   UNL     1      32.390 -20.892 -19.123  0.00  0.00    +0.134 C 
ATOM     13  C   UNL     1      33.732 -21.140 -18.937  0.00  0.00    +0.035 C 
ATOM     14  C   UNL     1      34.619 -20.562 -19.839  0.00  0.00    +0.016 C 
ATOM     15  C   UNL     1      32.760 -19.593 -20.964  0.00  0.00    +0.112 C 
ATOM     16  C   UNL     1      34.132 -19.772 -20.875  0.00  0.00    +0.077 C 
ATOM     17  H   UNL     1      30.539 -21.300 -18.348  0.00  0.00    +0.157 HD
ENDBRANCH   2  11
BRANCH   1  19
ATOM     18  O   UNL     1      32.138 -22.906 -12.604  0.00  0.00    -0.270 OA
ATOM     19  N   UNL     1      32.085 -23.899 -14.729  0.00  0.00    -0.280 N 
ATOM     20  C   UNL     1      32.678 -23.571 -13.502  0.00  0.00    +0.249 C 
ATOM     21  H   UNL     1      32.640 -24.434 -15.343  0.00  0.00    +0.155 HD
BRANCH  20  22
ATOM     22  C   UNL     1      34.041 -24.041 -13.309  0.00  0.00    +0.054 C 
ATOM     23  C   UNL     1      36.623 -24.930 -12.947  0.00  0.00    +0.031 C 
ATOM     24  C   UNL     1      34.714 -24.673 -14.354  0.00  0.00    +0.005 C 
ATOM     25  C   UNL     1      34.675 -23.860 -12.080  0.00  0.00    +0.005 C 
ATOM     26  C   UNL     1      36.022 -25.122 -14.171  0.00  0.00    +0.003 C 
ATOM     27  C   UNL     1      35.983 -24.309 -11.896  0.00  0.00    +0.003 C 
BRANCH  23  30
ATOM     28  N   UNL     1      39.009 -25.090 -13.686  0.00  0.00    -0.290 N 
ATOM     29  N   UNL     1      38.210 -26.111 -11.670  0.00  0.00    -0.285 NA
ATOM     30  C   UNL     1      38.019 -25.409 -12.751  0.00  0.00    +0.123 C 
ATOM     31  C   UNL     1      40.367 -25.613 -13.564  0.00  0.00    +0.114 C 
ATOM     32  C   UNL     1      38.757 -24.290 -14.882  0.00  0.00    +0.114 C 
ATOM     33  H   UNL     1      39.105 -26.466 -11.465  0.00  0.00    +0.188 HD
ENDBRANCH  23  30
ENDBRANCH  20  22
ENDBRANCH   1  19
BRANCH   5  34
ATOM     34  O   UNL     1      26.998 -22.614 -16.532  0.00  0.00    -0.471 OA
ATOM     35  C   UNL     1      26.222 -21.743 -15.711  0.00  0.00    +0.252 C 
ENDBRANCH   5  34
TORSDOF 5
ENDMDL
MODEL 5
REMARK VINA RESULT:     -11.1      2.591      7.725
REMARK  Name = 10275777
REMARK  5 active torsions:
REMARK  status: ('A' for Active; 'I' for Inactive)
REMARK    1  A    between atoms: C_1  and  N_19
REMARK    2  A    between atoms: C_2  and  C_11
REMARK    3  A    between atoms: C_5  and  O_34
REMARK    4  A    between atoms: C_20  and  C_22
REMARK    5  A    between atoms: C_23  and  C_30
REMARK                            x       y       z     vdW  Elec       q    Type
REMARK                         _______ _______ _______ _____ _____    ______ ____
ROOT
ATOM      1  C   UNL     1      35.092 -20.487 -19.524  0.00  0.00    +0.055 C 
ATOM      2  C   UNL     1      33.745 -20.374 -19.825  0.00  0.00    +0.070 C 
ATOM      3  C   UNL     1      36.066 -19.996 -20.378  0.00  0.00    +0.018 C 
ATOM      4  C   UNL     1      33.360 -19.752 -21.013  0.00  0.00    +0.043 C 
ATOM      5  C   UNL     1      34.328 -19.252 -21.884  0.00  0.00    +0.139 C 
ATOM      6  C   UNL     1      35.680 -19.374 -21.567  0.00  0.00    +0.038 C 
ENDROOT
BRANCH   2  11
ATOM      7 CL   UNL     1      29.936 -24.517 -13.901  0.00  0.00    -0.081 Cl
ATOM      8  O   UNL     1      31.534 -20.524 -19.114  0.00  0.00    -0.270 OA
ATOM      9  N   UNL     1      33.140 -21.771 -17.943  0.00  0.00    -0.266 N 
ATOM     10  N   UNL     1      33.004 -23.253 -16.104  0.00  0.00    -0.228 NA
ATOM     11  C   UNL     1      32.708 -20.881 -18.935  0.00  0.00    +0.252 C 
ATOM     12  C   UNL     1      32.366 -22.437 -16.961  0.00  0.00    +0.134 C 
ATOM     13  C   UNL     1      31.010 -22.193 -16.966  0.00  0.00    +0.035 C 
ATOM     14  C   UNL     1      30.241 -22.842 -16.007  0.00  0.00    +0.016 C 
ATOM     15  C   UNL     1      32.225 -23.868 -15.187  0.00  0.00    +0.112 C 
ATOM     16  C   UNL     1      30.852 -23.698 -15.096  0.00  0.00    +0.077 C 
ATOM     17  H   UNL     1      34.107 -21.958 -17.926  0.00  0.00    +0.157 HD
ENDBRANCH   2  11
BRANCH   1  19
ATOM     18  O   UNL     1      37.093 -19.609 -17.472  0.00  0.00    -0.270 OA
ATOM     19  N   UNL     1      35.506 -21.113 -18.323  0.00  0.00    -0.280 N 
ATOM     20  C   UNL     1      36.449 -20.666 -17.387  0.00  0.00    +0.249 C 
ATOM     21  H   UNL     1      35.076 -21.975 -18.119  0.00  0.00    +0.155 HD
BRANCH  20  22
ATOM     22  C   UNL     1      36.686 -21.548 -16.254  0.00  0.00    +0.054 C 
ATOM     23  C   UNL     1      37.136 -23.217 -14.109  0.00  0.00    +0.031 C 
ATOM     24  C   UNL     1      37.857 -22.303 -16.191  0.00  0.00    +0.005 C 
ATOM     25  C   UNL     1      35.742 -21.639 -15.231  0.00  0.00    +0.005 C 
ATOM     26  C   UNL     1      38.085 -23.147 -15.104  0.00  0.00    +0.003 C 
ATOM     27  C   UNL     1      35.970 -22.484 -14.145  0.00  0.00    +0.003 C 
BRANCH  23  30
ATOM     28  N   UNL     1      36.974 -25.456 -13.002  0.00  0.00    -0.290 N 
ATOM     29  N   UNL     1      37.985 -23.560 -11.940  0.00  0.00    -0.285 NA
ATOM     30  C   UNL     1      37.380 -24.118 -12.950  0.00  0.00    +0.123 C 
ATOM     31  C   UNL     1      37.125 -26.342 -11.851  0.00  0.00    +0.114 C 
ATOM     32  C   UNL     1      36.306 -26.048 -14.158  0.00  0.00    +0.114 C 
ATOM     33  H   UNL     1      38.184 -24.086 -11.133  0.00  0.00    +0.188 HD
ENDBRANCH  23  30
ENDBRANCH  20  22
ENDBRANCH   1  19
BRANCH   5  34
ATOM     34  O   UNL     1      33.952 -18.646 -23.043  0.00  0.00    -0.471 OA
ATOM     35  C   UNL     1      34.345 -17.286 -23.220  0.00  0.00    +0.252 C 
ENDBRANCH   5  34
TORSDOF 5
ENDMDL
