MODEL 1
REMARK VINA RESULT:     -12.8      0.000      0.000
REMARK  Name = 11979006
REMARK  7 active torsions:
REMARK  status: ('A' for Active; 'I' for Inactive)
REMARK    1  A    between atoms: C_1  and  N_2
REMARK    2  A    between atoms: C_1  and  C_22
REMARK    3  A    between atoms: C_3  and  N_9
REMARK    4  A    between atoms: C_4  and  O_18
REMARK    5  A    between atoms: C_10  and  C_14
REMARK    6  A    between atoms: N_21  and  C_25
REMARK    7  A    between atoms: C_28  and  N_32
REMARK                            x       y       z     vdW  Elec       q    Type
REMARK                         _______ _______ _______ _____ _____    ______ ____
ROOT
ATOM      1  C   UNL     1      34.966 -21.112 -19.988  0.00  0.00    +0.010 C 
ENDROOT
BRANCH   1   2
ATOM      2  N   UNL     1      34.728 -21.297 -18.565  0.00  0.00    +0.396 N 
ATOM      3  C   UNL     1      35.395 -22.034 -16.478  0.00  0.00    +0.076 C 
ATOM      4  C   UNL     1      34.103 -22.775 -16.830  0.00  0.00    +0.106 C 
ATOM      5  C   UNL     1      35.954 -21.605 -17.827  0.00  0.00    -0.054 C 
ATOM      6  C   UNL     1      33.815 -22.412 -18.288  0.00  0.00    -0.045 C 
ATOM      7  H   UNL     1      34.329 -20.409 -18.264  0.00  0.00    -0.079 HD
BRANCH   3   9
ATOM      8  O   UNL     1      35.155 -22.743 -13.759  0.00  0.00    -0.270 OA
ATOM      9  N   UNL     1      36.316 -22.854 -15.739  0.00  0.00    -0.302 N 
ATOM     10  C   UNL     1      36.127 -23.162 -14.389  0.00  0.00    +0.252 C 
ATOM     11  H   UNL     1      37.109 -23.211 -16.200  0.00  0.00    +0.150 HD
BRANCH  10  14
ATOM     12 CL   UNL     1      40.610 -26.204 -13.591  0.00  0.00    -0.075 Cl
ATOM     13  S   UNL     1      38.496 -24.444 -14.707  0.00  0.00    -0.071 S 
ATOM     14  C   UNL     1      37.139 -24.038 -13.781  0.00  0.00    +0.084 C 
ATOM     15  C   UNL     1      37.120 -24.576 -12.541  0.00  0.00    +0.012 C 
ATOM     16  C   UNL     1      38.282 -25.371 -12.321  0.00  0.00    +0.019 C 
ATOM     17  C   UNL     1      39.114 -25.385 -13.418  0.00  0.00    +0.087 C 
ENDBRANCH  10  14
ENDBRANCH   3   9
BRANCH   4  18
ATOM     18  O   UNL     1      33.056 -22.324 -15.980  0.00  0.00    -0.385 OA
ATOM     19  H   UNL     1      32.200 -22.578 -16.359  0.00  0.00    +0.210 HD
ENDBRANCH   4  18
ENDBRANCH   1   2
BRANCH   1  22
ATOM     20  O   UNL     1      32.969 -19.785 -20.252  0.00  0.00    -0.277 OA
ATOM     21  N   UNL     1      34.989 -19.049 -21.196  0.00  0.00    -0.284 N 
ATOM     22  C   UNL     1      34.167 -19.919 -20.483  0.00  0.00    +0.205 C 
ATOM     23  H   UNL     1      35.934 -19.316 -21.279  0.00  0.00    +0.155 HD
BRANCH  21  25
ATOM     24  F   UNL     1      34.196 -18.966 -23.856  0.00  0.00    -0.203 F 
ATOM     25  C   UNL     1      34.627 -17.829 -21.815  0.00  0.00    +0.078 C 
ATOM     26  C   UNL     1      34.237 -17.830 -23.144  0.00  0.00    +0.155 C 
ATOM     27  C   UNL     1      34.670 -16.659 -21.075  0.00  0.00    +0.018 C 
ATOM     28  C   UNL     1      33.919 -15.438 -23.021  0.00  0.00    +0.061 C 
ATOM     29  C   UNL     1      33.880 -16.626 -23.751  0.00  0.00    +0.046 C 
ATOM     30  C   UNL     1      34.315 -15.455 -21.682  0.00  0.00    +0.017 C 
BRANCH  28  32
ATOM     31  O   UNL     1      33.072 -15.140 -25.770  0.00  0.00    -0.269 OA
ATOM     32  N   UNL     1      33.549 -14.187 -23.652  0.00  0.00    -0.233 N 
ATOM     33  C   UNL     1      33.111 -14.179 -25.003  0.00  0.00    +0.257 C 
ATOM     34  C   UNL     1      33.642 -12.984 -22.950  0.00  0.00    +0.072 C 
ATOM     35  C   UNL     1      32.704 -12.853 -25.562  0.00  0.00    +0.059 C 
ATOM     36  C   UNL     1      33.303 -11.806 -23.483  0.00  0.00    +0.017 C 
ATOM     37  C   UNL     1      32.813 -11.743 -24.828  0.00  0.00    +0.006 C 
ENDBRANCH  28  32
ENDBRANCH  21  25
ENDBRANCH   1  22
TORSDOF 7
ENDMDL
MODEL 2
REMARK VINA RESULT:     -12.7      4.959     12.021
REMARK  Name = 11979006
REMARK  7 active torsions:
REMARK  status: ('A' for Active; 'I' for Inactive)
REMARK    1  A    between atoms: C_1  and  N_2
REMARK    2  A    between atoms: C_1  and  C_22
REMARK    3  A    between atoms: C_3  and  N_9
REMARK    4  A    between atoms: C_4  and  O_18
REMARK    5  A    between atoms: C_10  and  C_14
REMARK    6  A    between atoms: N_21  and  C_25
REMARK    7  A    between atoms: C_28  and  N_32
REMARK                            x       y       z     vdW  Elec       q    Type
REMARK                         _______ _______ _______ _____ _____    ______ ____
ROOT
ATOM      1  C   UNL     1      33.624 -20.652 -20.440  0.00  0.00    +0.010 C 
ENDROOT
BRANCH   1   2
ATOM      2  N   UNL     1      34.518 -19.510 -20.556  0.00  0.00    +0.396 N 
ATOM      3  C   UNL     1      34.964 -17.348 -21.243  0.00  0.00    +0.076 C 
ATOM      4  C   UNL     1      35.981 -18.262 -21.930  0.00  0.00    +0.106 C 
ATOM      5  C   UNL     1      33.808 -18.276 -20.896  0.00  0.00    -0.054 C 
ATOM      6  C   UNL     1      35.523 -19.687 -21.610  0.00  0.00    -0.045 C 
ATOM      7  H   UNL     1      34.954 -19.443 -19.637  0.00  0.00    -0.079 HD
BRANCH   3   9
ATOM      8  O   UNL     1      34.007 -14.854 -20.340  0.00  0.00    -0.270 OA
ATOM      9  N   UNL     1      34.555 -16.253 -22.079  0.00  0.00    -0.302 N 
ATOM     10  C   UNL     1      34.091 -15.044 -21.555  0.00  0.00    +0.252 C 
ATOM     11  H   UNL     1      34.604 -16.358 -23.056  0.00  0.00    +0.150 HD
BRANCH  10  14
ATOM     12 CL   UNL     1      32.564 -12.511 -26.164  0.00  0.00    -0.075 Cl
ATOM     13  S   UNL     1      33.295 -14.507 -24.091  0.00  0.00    -0.071 S 
ATOM     14  C   UNL     1      33.741 -14.007 -22.537  0.00  0.00    +0.084 C 
ATOM     15  C   UNL     1      33.732 -12.669 -22.350  0.00  0.00    +0.012 C 
ATOM     16  C   UNL     1      33.337 -11.998 -23.544  0.00  0.00    +0.019 C 
ATOM     17  C   UNL     1      33.069 -12.879 -24.567  0.00  0.00    +0.087 C 
ENDBRANCH  10  14
ENDBRANCH   3   9
BRANCH   4  18
ATOM     18  O   UNL     1      37.273 -18.015 -21.392  0.00  0.00    -0.385 OA
ATOM     19  H   UNL     1      37.618 -18.827 -20.991  0.00  0.00    +0.210 HD
ENDBRANCH   4  18
ENDBRANCH   1   2
BRANCH   1  22
ATOM     20  O   UNL     1      34.467 -22.839 -19.867  0.00  0.00    -0.277 OA
ATOM     21  N   UNL     1      34.507 -21.121 -18.268  0.00  0.00    -0.284 N 
ATOM     22  C   UNL     1      34.244 -21.685 -19.515  0.00  0.00    +0.205 C 
ATOM     23  H   UNL     1      34.265 -20.172 -18.162  0.00  0.00    +0.155 HD
BRANCH  21  25
ATOM     24  F   UNL     1      32.973 -22.681 -16.559  0.00  0.00    -0.203 F 
ATOM     25  C   UNL     1      35.080 -21.750 -17.138  0.00  0.00    +0.078 C 
ATOM     26  C   UNL     1      34.281 -22.521 -16.309  0.00  0.00    +0.155 C 
ATOM     27  C   UNL     1      36.432 -21.581 -16.885  0.00  0.00    +0.018 C 
ATOM     28  C   UNL     1      36.209 -22.979 -14.926  0.00  0.00    +0.061 C 
ATOM     29  C   UNL     1      34.849 -23.140 -15.196  0.00  0.00    +0.046 C 
ATOM     30  C   UNL     1      37.000 -22.199 -15.771  0.00  0.00    +0.017 C 
BRANCH  28  32
ATOM     31  O   UNL     1      37.263 -25.671 -14.866  0.00  0.00    -0.269 OA
ATOM     32  N   UNL     1      36.798 -23.622 -13.768  0.00  0.00    -0.233 N 
ATOM     33  C   UNL     1      37.318 -24.938 -13.879  0.00  0.00    +0.257 C 
ATOM     34  C   UNL     1      36.839 -22.964 -12.537  0.00  0.00    +0.072 C 
ATOM     35  C   UNL     1      37.951 -25.509 -12.649  0.00  0.00    +0.059 C 
ATOM     36  C   UNL     1      37.382 -23.509 -11.444  0.00  0.00    +0.017 C 
ATOM     37  C   UNL     1      37.961 -24.819 -11.507  0.00  0.00    +0.006 C 
ENDBRANCH  28  32
ENDBRANCH  21  25
ENDBRANCH   1  22
TORSDOF 7
ENDMDL
MODEL 3
REMARK VINA RESULT:     -12.5      4.918     11.962
REMARK  Name = 11979006
REMARK  7 active torsions:
REMARK  status: ('A' for Active; 'I' for Inactive)
REMARK    1  A    between atoms: C_1  and  N_2
REMARK    2  A    between atoms: C_1  and  C_22
REMARK    3  A    between atoms: C_3  and  N_9
REMARK    4  A    between atoms: C_4  and  O_18
REMARK    5  A    between atoms: C_10  and  C_14
REMARK    6  A    between atoms: N_21  and  C_25
REMARK    7  A    between atoms: C_28  and  N_32
REMARK                            x       y       z     vdW  Elec       q    Type
REMARK                         _______ _______ _______ _____ _____    ______ ____
ROOT
ATOM      1  C   UNL     1      33.725 -20.760 -20.529  0.00  0.00    +0.010 C 
ENDROOT
BRANCH   1   2
ATOM      2  N   UNL     1      34.564 -19.573 -20.601  0.00  0.00    +0.396 N 
ATOM      3  C   UNL     1      34.926 -17.385 -21.250  0.00  0.00    +0.076 C 
ATOM      4  C   UNL     1      36.011 -18.239 -21.908  0.00  0.00    +0.106 C 
ATOM      5  C   UNL     1      33.806 -18.373 -20.955  0.00  0.00    -0.054 C 
ATOM      6  C   UNL     1      35.614 -19.688 -21.620  0.00  0.00    -0.045 C 
ATOM      7  H   UNL     1      34.963 -19.496 -19.666  0.00  0.00    -0.079 HD
BRANCH   3   9
ATOM      8  O   UNL     1      34.127 -14.830 -20.363  0.00  0.00    -0.270 OA
ATOM      9  N   UNL     1      34.493 -16.301 -22.090  0.00  0.00    -0.302 N 
ATOM     10  C   UNL     1      34.112 -15.060 -21.573  0.00  0.00    +0.252 C 
ATOM     11  H   UNL     1      34.464 -16.438 -23.064  0.00  0.00    +0.150 HD
BRANCH  10  14
ATOM     12 CL   UNL     1      32.525 -12.607 -26.205  0.00  0.00    -0.075 Cl
ATOM     13  S   UNL     1      33.325 -14.564 -24.120  0.00  0.00    -0.071 S 
ATOM     14  C   UNL     1      33.724 -14.043 -22.561  0.00  0.00    +0.084 C 
ATOM     15  C   UNL     1      33.646 -12.706 -22.375  0.00  0.00    +0.012 C 
ATOM     16  C   UNL     1      33.235 -12.056 -23.574  0.00  0.00    +0.019 C 
ATOM     17  C   UNL     1      33.026 -12.949 -24.601  0.00  0.00    +0.087 C 
ENDBRANCH  10  14
ENDBRANCH   3   9
BRANCH   4  18
ATOM     18  O   UNL     1      37.270 -17.934 -21.322  0.00  0.00    -0.385 OA
ATOM     19  H   UNL     1      37.219 -18.062 -20.362  0.00  0.00    +0.210 HD
ENDBRANCH   4  18
ENDBRANCH   1   2
BRANCH   1  22
ATOM     20  O   UNL     1      32.493 -21.269 -18.518  0.00  0.00    -0.277 OA
ATOM     21  N   UNL     1      34.832 -21.466 -18.531  0.00  0.00    -0.284 N 
ATOM     22  C   UNL     1      33.581 -21.189 -19.079  0.00  0.00    +0.205 C 
ATOM     23  H   UNL     1      35.604 -21.351 -19.132  0.00  0.00    +0.155 HD
BRANCH  21  25
ATOM     24  F   UNL     1      37.060 -20.518 -17.171  0.00  0.00    -0.203 F 
ATOM     25  C   UNL     1      35.124 -21.893 -17.214  0.00  0.00    +0.078 C 
ATOM     26  C   UNL     1      36.245 -21.397 -16.570  0.00  0.00    +0.155 C 
ATOM     27  C   UNL     1      34.279 -22.801 -16.597  0.00  0.00    +0.018 C 
ATOM     28  C   UNL     1      35.689 -22.734 -14.636  0.00  0.00    +0.061 C 
ATOM     29  C   UNL     1      36.529 -21.820 -15.271  0.00  0.00    +0.046 C 
ATOM     30  C   UNL     1      34.564 -23.225 -15.299  0.00  0.00    +0.017 C 
BRANCH  28  32
ATOM     31  O   UNL     1      38.235 -23.772 -13.738  0.00  0.00    -0.269 OA
ATOM     32  N   UNL     1      35.986 -23.175 -13.287  0.00  0.00    -0.233 N 
ATOM     33  C   UNL     1      37.291 -23.628 -12.962  0.00  0.00    +0.257 C 
ATOM     34  C   UNL     1      34.990 -23.178 -12.308  0.00  0.00    +0.072 C 
ATOM     35  C   UNL     1      37.524 -24.019 -11.537  0.00  0.00    +0.059 C 
ATOM     36  C   UNL     1      35.216 -23.563 -11.048  0.00  0.00    +0.017 C 
ATOM     37  C   UNL     1      36.525 -23.989 -10.652  0.00  0.00    +0.006 C 
ENDBRANCH  28  32
ENDBRANCH  21  25
ENDBRANCH   1  22
TORSDOF 7
ENDMDL
MODEL 4
REMARK VINA RESULT:     -12.2      5.181     12.023
REMARK  Name = 11979006
REMARK  7 active torsions:
REMARK  status: ('A' for Active; 'I' for Inactive)
REMARK    1  A    between atoms: C_1  and  N_2
REMARK    2  A    between atoms: C_1  and  C_22
REMARK    3  A    between atoms: C_3  and  N_9
REMARK    4  A    between atoms: C_4  and  O_18
REMARK    5  A    between atoms: C_10  and  C_14
REMARK    6  A    between atoms: N_21  and  C_25
REMARK    7  A    between atoms: C_28  and  N_32
REMARK                            x       y       z     vdW  Elec       q    Type
REMARK                         _______ _______ _______ _____ _____    ______ ____
ROOT
ATOM      1  C   UNL     1      34.235 -19.503 -21.694  0.00  0.00    +0.010 C 
ENDROOT
BRANCH   1   2
ATOM      2  N   UNL     1      34.611 -18.186 -22.187  0.00  0.00    +0.396 N 
ATOM      3  C   UNL     1      34.467 -15.880 -22.118  0.00  0.00    +0.076 C 
ATOM      4  C   UNL     1      34.030 -16.321 -23.516  0.00  0.00    +0.106 C 
ATOM      5  C   UNL     1      34.251 -17.116 -21.256  0.00  0.00    -0.054 C 
ATOM      6  C   UNL     1      33.945 -17.847 -23.450  0.00  0.00    -0.045 C 
ATOM      7  H   UNL     1      35.622 -18.246 -22.306  0.00  0.00    -0.079 HD
BRANCH   3   9
ATOM      8  O   UNL     1      33.828 -13.583 -23.624  0.00  0.00    -0.270 OA
ATOM      9  N   UNL     1      33.727 -14.744 -21.643  0.00  0.00    -0.302 N 
ATOM     10  C   UNL     1      33.449 -13.639 -22.452  0.00  0.00    +0.252 C 
ATOM     11  H   UNL     1      33.405 -14.742 -20.713  0.00  0.00    +0.150 HD
BRANCH  10  14
ATOM     12 CL   UNL     1      30.803  -8.924 -21.586  0.00  0.00    -0.075 Cl
ATOM     13  S   UNL     1      32.393 -11.157 -22.727  0.00  0.00    -0.071 S 
ATOM     14  C   UNL     1      32.655 -12.569 -21.832  0.00  0.00    +0.084 C 
ATOM     15  C   UNL     1      32.093 -12.572 -20.603  0.00  0.00    +0.012 C 
ATOM     16  C   UNL     1      31.401 -11.349 -20.365  0.00  0.00    +0.019 C 
ATOM     17  C   UNL     1      31.484 -10.490 -21.439  0.00  0.00    +0.087 C 
ENDBRANCH  10  14
ENDBRANCH   3   9
BRANCH   4  18
ATOM     18  O   UNL     1      35.005 -15.910 -24.466  0.00  0.00    -0.385 OA
ATOM     19  H   UNL     1      35.756 -16.524 -24.444  0.00  0.00    +0.210 HD
ENDBRANCH   4  18
ENDBRANCH   1   2
BRANCH   1  22
ATOM     20  O   UNL     1      36.065 -19.233 -20.144  0.00  0.00    -0.277 OA
ATOM     21  N   UNL     1      34.380 -20.806 -19.695  0.00  0.00    -0.284 N 
ATOM     22  C   UNL     1      35.021 -19.812 -20.431  0.00  0.00    +0.205 C 
ATOM     23  H   UNL     1      33.543 -21.157 -20.077  0.00  0.00    +0.155 HD
BRANCH  21  25
ATOM     24  F   UNL     1      32.603 -22.220 -18.098  0.00  0.00    -0.203 F 
ATOM     25  C   UNL     1      34.790 -21.371 -18.464  0.00  0.00    +0.078 C 
ATOM     26  C   UNL     1      33.873 -22.068 -17.696  0.00  0.00    +0.155 C 
ATOM     27  C   UNL     1      36.103 -21.212 -18.054  0.00  0.00    +0.018 C 
ATOM     28  C   UNL     1      35.600 -22.472 -16.055  0.00  0.00    +0.061 C 
ATOM     29  C   UNL     1      34.281 -22.623 -16.483  0.00  0.00    +0.046 C 
ATOM     30  C   UNL     1      36.511 -21.765 -16.841  0.00  0.00    +0.017 C 
BRANCH  28  32
ATOM     31  O   UNL     1      35.641 -25.297 -15.438  0.00  0.00    -0.269 OA
ATOM     32  N   UNL     1      36.022 -23.048 -14.793  0.00  0.00    -0.233 N 
ATOM     33  C   UNL     1      36.034 -24.458 -14.629  0.00  0.00    +0.257 C 
ATOM     34  C   UNL     1      36.398 -22.225 -13.729  0.00  0.00    +0.072 C 
ATOM     35  C   UNL     1      36.529 -24.970 -13.313  0.00  0.00    +0.059 C 
ATOM     36  C   UNL     1      36.805 -22.708 -12.551  0.00  0.00    +0.017 C 
ATOM     37  C   UNL     1      36.879 -24.123 -12.342  0.00  0.00    +0.006 C 
ENDBRANCH  28  32
ENDBRANCH  21  25
ENDBRANCH   1  22
TORSDOF 7
ENDMDL
MODEL 5
REMARK VINA RESULT:     -12.1      3.513      5.881
REMARK  Name = 11979006
REMARK  7 active torsions:
REMARK  status: ('A' for Active; 'I' for Inactive)
REMARK    1  A    between atoms: C_1  and  N_2
REMARK    2  A    between atoms: C_1  and  C_22
REMARK    3  A    between atoms: C_3  and  N_9
REMARK    4  A    between atoms: C_4  and  O_18
REMARK    5  A    between atoms: C_10  and  C_14
REMARK    6  A    between atoms: N_21  and  C_25
REMARK    7  A    between atoms: C_28  and  N_32
REMARK                            x       y       z     vdW  Elec       q    Type
REMARK                         _______ _______ _______ _____ _____    ______ ____
ROOT
ATOM      1  C   UNL     1      33.526 -17.496 -24.256  0.00  0.00    +0.010 C 
ENDROOT
BRANCH   1   2
ATOM      2  N   UNL     1      34.408 -18.067 -23.249  0.00  0.00    +0.396 N 
ATOM      3  C   UNL     1      34.782 -19.441 -21.428  0.00  0.00    +0.076 C 
ATOM      4  C   UNL     1      35.162 -18.019 -21.010  0.00  0.00    +0.106 C 
ATOM      5  C   UNL     1      33.826 -19.240 -22.596  0.00  0.00    -0.054 C 
ATOM      6  C   UNL     1      34.709 -17.124 -22.165  0.00  0.00    -0.045 C 
ATOM      7  H   UNL     1      35.249 -18.314 -23.769  0.00  0.00    -0.079 HD
BRANCH   3   9
ATOM      8  O   UNL     1      36.180 -20.957 -19.505  0.00  0.00    -0.270 OA
ATOM      9  N   UNL     1      34.188 -20.190 -20.356  0.00  0.00    -0.302 N 
ATOM     10  C   UNL     1      34.950 -20.919 -19.439  0.00  0.00    +0.252 C 
ATOM     11  H   UNL     1      33.208 -20.190 -20.263  0.00  0.00    +0.150 HD
BRANCH  10  14
ATOM     12 CL   UNL     1      33.621 -23.410 -14.747  0.00  0.00    -0.075 Cl
ATOM     13  S   UNL     1      35.027 -22.019 -16.962  0.00  0.00    -0.071 S 
ATOM     14  C   UNL     1      34.199 -21.607 -18.379  0.00  0.00    +0.084 C 
ATOM     15  C   UNL     1      32.896 -21.963 -18.396  0.00  0.00    +0.012 C 
ATOM     16  C   UNL     1      32.537 -22.614 -17.180  0.00  0.00    +0.019 C 
ATOM     17  C   UNL     1      33.602 -22.710 -16.312  0.00  0.00    +0.087 C 
ENDBRANCH  10  14
ENDBRANCH   3   9
BRANCH   4  18
ATOM     18  O   UNL     1      36.570 -17.941 -20.833  0.00  0.00    -0.385 OA
ATOM     19  H   UNL     1      36.770 -17.787 -19.897  0.00  0.00    +0.210 HD
ENDBRANCH   4  18
ENDBRANCH   1   2
BRANCH   1  22
ATOM     20  O   UNL     1      34.719 -15.634 -25.222  0.00  0.00    -0.277 OA
ATOM     21  N   UNL     1      33.049 -15.242 -23.619  0.00  0.00    -0.284 N 
ATOM     22  C   UNL     1      33.857 -16.025 -24.441  0.00  0.00    +0.205 C 
ATOM     23  H   UNL     1      32.403 -15.727 -23.056  0.00  0.00    +0.155 HD
BRANCH  21  25
ATOM     24  F   UNL     1      33.734 -14.001 -21.232  0.00  0.00    -0.203 F 
ATOM     25  C   UNL     1      33.047 -13.832 -23.499  0.00  0.00    +0.078 C 
ATOM     26  C   UNL     1      33.395 -13.251 -22.291  0.00  0.00    +0.155 C 
ATOM     27  C   UNL     1      32.696 -13.062 -24.596  0.00  0.00    +0.018 C 
ATOM     28  C   UNL     1      33.041 -11.071 -23.271  0.00  0.00    +0.061 C 
ATOM     29  C   UNL     1      33.392 -11.861 -22.176  0.00  0.00    +0.046 C 
ATOM     30  C   UNL     1      32.692 -11.672 -24.481  0.00  0.00    +0.017 C 
BRANCH  28  32
ATOM     31  O   UNL     1      30.837  -9.482 -22.281  0.00  0.00    -0.269 OA
ATOM     32  N   UNL     1      33.037  -9.626 -23.151  0.00  0.00    -0.233 N 
ATOM     33  C   UNL     1      31.903  -8.965 -22.611  0.00  0.00    +0.257 C 
ATOM     34  C   UNL     1      34.133  -8.877 -23.584  0.00  0.00    +0.072 C 
ATOM     35  C   UNL     1      32.001  -7.478 -22.478  0.00  0.00    +0.059 C 
ATOM     36  C   UNL     1      34.183  -7.545 -23.484  0.00  0.00    +0.017 C 
ATOM     37  C   UNL     1      33.085  -6.827 -22.907  0.00  0.00    +0.006 C 
ENDBRANCH  28  32
ENDBRANCH  21  25
ENDBRANCH   1  22
TORSDOF 7
ENDMDL
MODEL 6
REMARK VINA RESULT:     -11.9      2.818      4.314
REMARK  Name = 11979006
REMARK  7 active torsions:
REMARK  status: ('A' for Active; 'I' for Inactive)
REMARK    1  A    between atoms: C_1  and  N_2
REMARK    2  A    between atoms: C_1  and  C_22
REMARK    3  A    between atoms: C_3  and  N_9
REMARK    4  A    between atoms: C_4  and  O_18
REMARK    5  A    between atoms: C_10  and  C_14
REMARK    6  A    between atoms: N_21  and  C_25
REMARK    7  A    between atoms: C_28  and  N_32
REMARK                            x       y       z     vdW  Elec       q    Type
REMARK                         _______ _______ _______ _____ _____    ______ ____
ROOT
ATOM      1  C   UNL     1      31.873 -23.549 -16.157  0.00  0.00    +0.010 C 
ENDROOT
BRANCH   1   2
ATOM      2  N   UNL     1      32.688 -23.116 -15.032  0.00  0.00    +0.396 N 
ATOM      3  C   UNL     1      34.733 -22.907 -13.974  0.00  0.00    +0.076 C 
ATOM      4  C   UNL     1      33.825 -23.724 -13.052  0.00  0.00    +0.106 C 
ATOM      5  C   UNL     1      34.116 -23.087 -15.354  0.00  0.00    -0.054 C 
ATOM      6  C   UNL     1      32.566 -24.008 -13.874  0.00  0.00    -0.045 C 
ATOM      7  H   UNL     1      32.339 -22.182 -14.819  0.00  0.00    -0.079 HD
BRANCH   3   9
ATOM      8  O   UNL     1      35.775 -25.213 -15.217  0.00  0.00    -0.270 OA
ATOM      9  N   UNL     1      36.102 -23.341 -13.925  0.00  0.00    -0.302 N 
ATOM     10  C   UNL     1      36.543 -24.500 -14.569  0.00  0.00    +0.252 C 
ATOM     11  H   UNL     1      36.752 -22.803 -13.419  0.00  0.00    +0.150 HD
BRANCH  10  14
ATOM     12 CL   UNL     1      41.298 -26.976 -13.454  0.00  0.00    -0.075 Cl
ATOM     13  S   UNL     1      38.430 -26.263 -13.745  0.00  0.00    -0.071 S 
ATOM     14  C   UNL     1      37.979 -24.795 -14.453  0.00  0.00    +0.084 C 
ATOM     15  C   UNL     1      39.010 -24.018 -14.852  0.00  0.00    +0.012 C 
ATOM     16  C   UNL     1      40.254 -24.651 -14.566  0.00  0.00    +0.019 C 
ATOM     17  C   UNL     1      40.084 -25.878 -13.964  0.00  0.00    +0.087 C 
ENDBRANCH  10  14
ENDBRANCH   3   9
BRANCH   4  18
ATOM     18  O   UNL     1      33.512 -22.954 -11.898  0.00  0.00    -0.385 OA
ATOM     19  H   UNL     1      34.301 -22.470 -11.609  0.00  0.00    +0.210 HD
ENDBRANCH   4  18
ENDBRANCH   1   2
BRANCH   1  22
ATOM     20  O   UNL     1      30.708 -21.738 -17.246  0.00  0.00    -0.277 OA
ATOM     21  N   UNL     1      32.910 -22.252 -17.878  0.00  0.00    -0.284 N 
ATOM     22  C   UNL     1      31.733 -22.405 -17.148  0.00  0.00    +0.205 C 
ATOM     23  H   UNL     1      33.639 -22.879 -17.662  0.00  0.00    +0.155 HD
BRANCH  21  25
ATOM     24  F   UNL     1      35.512 -21.699 -18.673  0.00  0.00    -0.203 F 
ATOM     25  C   UNL     1      33.181 -21.303 -18.892  0.00  0.00    +0.078 C 
ATOM     26  C   UNL     1      34.492 -21.056 -19.260  0.00  0.00    +0.155 C 
ATOM     27  C   UNL     1      32.124 -20.642 -19.496  0.00  0.00    +0.018 C 
ATOM     28  C   UNL     1      33.703 -19.444 -20.878  0.00  0.00    +0.061 C 
ATOM     29  C   UNL     1      34.756 -20.120 -20.260  0.00  0.00    +0.046 C 
ATOM     30  C   UNL     1      32.387 -19.705 -20.495  0.00  0.00    +0.017 C 
BRANCH  28  32
ATOM     31  O   UNL     1      34.965 -16.874 -20.469  0.00  0.00    -0.269 OA
ATOM     32  N   UNL     1      33.977 -18.471 -21.917  0.00  0.00    -0.233 N 
ATOM     33  C   UNL     1      34.641 -17.259 -21.592  0.00  0.00    +0.257 C 
ATOM     34  C   UNL     1      33.574 -18.707 -23.233  0.00  0.00    +0.072 C 
ATOM     35  C   UNL     1      34.926 -16.332 -22.731  0.00  0.00    +0.059 C 
ATOM     36  C   UNL     1      33.813 -17.846 -24.228  0.00  0.00    +0.017 C 
ATOM     37  C   UNL     1      34.517 -16.626 -23.967  0.00  0.00    +0.006 C 
ENDBRANCH  28  32
ENDBRANCH  21  25
ENDBRANCH   1  22
TORSDOF 7
ENDMDL
MODEL 7
REMARK VINA RESULT:     -11.4      4.163      6.705
REMARK  Name = 11979006
REMARK  7 active torsions:
REMARK  status: ('A' for Active; 'I' for Inactive)
REMARK    1  A    between atoms: C_1  and  N_2
REMARK    2  A    between atoms: C_1  and  C_22
REMARK    3  A    between atoms: C_3  and  N_9
REMARK    4  A    between atoms: C_4  and  O_18
REMARK    5  A    between atoms: C_10  and  C_14
REMARK    6  A    between atoms: N_21  and  C_25
REMARK    7  A    between atoms: C_28  and  N_32
REMARK                            x       y       z     vdW  Elec       q    Type
REMARK                         _______ _______ _______ _____ _____    ______ ____
ROOT
ATOM      1  C   UNL     1      33.653 -16.420 -24.030  0.00  0.00    +0.010 C 
ENDROOT
BRANCH   1   2
ATOM      2  N   UNL     1      34.498 -17.331 -23.273  0.00  0.00    +0.396 N 
ATOM      3  C   UNL     1      34.772 -19.040 -21.741  0.00  0.00    +0.076 C 
ATOM      4  C   UNL     1      35.538 -17.826 -21.209  0.00  0.00    +0.106 C 
ATOM      5  C   UNL     1      33.744 -18.441 -22.690  0.00  0.00    -0.054 C 
ATOM      6  C   UNL     1      35.162 -16.672 -22.142  0.00  0.00    -0.045 C 
ATOM      7  H   UNL     1      35.177 -17.664 -23.957  0.00  0.00    -0.079 HD
BRANCH   3   9
ATOM      8  O   UNL     1      36.132 -20.739 -19.947  0.00  0.00    -0.270 OA
ATOM      9  N   UNL     1      34.165 -19.811 -20.691  0.00  0.00    -0.302 N 
ATOM     10  C   UNL     1      34.909 -20.633 -19.840  0.00  0.00    +0.252 C 
ATOM     11  H   UNL     1      33.191 -19.759 -20.566  0.00  0.00    +0.150 HD
BRANCH  10  14
ATOM     12 CL   UNL     1      30.814 -22.596 -16.780  0.00  0.00    -0.075 Cl
ATOM     13  S   UNL     1      32.461 -21.226 -18.835  0.00  0.00    -0.071 S 
ATOM     14  C   UNL     1      34.149 -21.333 -18.794  0.00  0.00    +0.084 C 
ATOM     15  C   UNL     1      34.644 -22.071 -17.776  0.00  0.00    +0.012 C 
ATOM     16  C   UNL     1      33.587 -22.587 -16.971  0.00  0.00    +0.019 C 
ATOM     17  C   UNL     1      32.349 -22.204 -17.436  0.00  0.00    +0.087 C 
ENDBRANCH  10  14
ENDBRANCH   3   9
BRANCH   4  18
ATOM     18  O   UNL     1      36.934 -18.088 -21.267  0.00  0.00    -0.385 OA
ATOM     19  H   UNL     1      37.409 -17.265 -21.461  0.00  0.00    +0.210 HD
ENDBRANCH   4  18
ENDBRANCH   1   2
BRANCH   1  22
ATOM     20  O   UNL     1      34.957 -14.543 -23.257  0.00  0.00    -0.277 OA
ATOM     21  N   UNL     1      32.622 -14.355 -23.407  0.00  0.00    -0.284 N 
ATOM     22  C   UNL     1      33.850 -15.004 -23.517  0.00  0.00    +0.205 C 
ATOM     23  H   UNL     1      31.829 -14.880 -23.665  0.00  0.00    +0.155 HD
BRANCH  21  25
ATOM     24  F   UNL     1      33.240 -12.174 -25.009  0.00  0.00    -0.203 F 
ATOM     25  C   UNL     1      32.380 -13.032 -22.969  0.00  0.00    +0.078 C 
ATOM     26  C   UNL     1      32.702 -11.970 -23.798  0.00  0.00    +0.155 C 
ATOM     27  C   UNL     1      31.824 -12.827 -21.716  0.00  0.00    +0.018 C 
ATOM     28  C   UNL     1      31.904 -10.444 -22.104  0.00  0.00    +0.061 C 
ATOM     29  C   UNL     1      32.462 -10.667 -23.362  0.00  0.00    +0.046 C 
ATOM     30  C   UNL     1      31.585 -11.524 -21.281  0.00  0.00    +0.017 C 
BRANCH  28  32
ATOM     31  O   UNL     1      31.512  -9.646 -19.352  0.00  0.00    -0.269 OA
ATOM     32  N   UNL     1      31.655  -9.089 -21.651  0.00  0.00    -0.233 N 
ATOM     33  C   UNL     1      31.519  -8.820 -20.264  0.00  0.00    +0.257 C 
ATOM     34  C   UNL     1      31.527  -8.047 -22.572  0.00  0.00    +0.072 C 
ATOM     35  C   UNL     1      31.312  -7.389 -19.881  0.00  0.00    +0.059 C 
ATOM     36  C   UNL     1      31.309  -6.780 -22.206  0.00  0.00    +0.017 C 
ATOM     37  C   UNL     1      31.206  -6.443 -20.816  0.00  0.00    +0.006 C 
ENDBRANCH  28  32
ENDBRANCH  21  25
ENDBRANCH   1  22
TORSDOF 7
ENDMDL
MODEL 8
REMARK VINA RESULT:     -11.4      4.685      6.852
REMARK  Name = 11979006
REMARK  7 active torsions:
REMARK  status: ('A' for Active; 'I' for Inactive)
REMARK    1  A    between atoms: C_1  and  N_2
REMARK    2  A    between atoms: C_1  and  C_22
REMARK    3  A    between atoms: C_3  and  N_9
REMARK    4  A    between atoms: C_4  and  O_18
REMARK    5  A    between atoms: C_10  and  C_14
REMARK    6  A    between atoms: N_21  and  C_25
REMARK    7  A    between atoms: C_28  and  N_32
REMARK                            x       y       z     vdW  Elec       q    Type
REMARK                         _______ _______ _______ _____ _____    ______ ____
ROOT
ATOM      1  C   UNL     1      36.027 -23.272 -15.428  0.00  0.00    +0.010 C 
ENDROOT
BRANCH   1   2
ATOM      2  N   UNL     1      34.785 -23.803 -14.887  0.00  0.00    +0.396 N 
ATOM      3  C   UNL     1      32.476 -23.891 -14.825  0.00  0.00    +0.076 C 
ATOM      4  C   UNL     1      32.952 -23.478 -13.430  0.00  0.00    +0.106 C 
ATOM      5  C   UNL     1      33.632 -23.509 -15.738  0.00  0.00    -0.054 C 
ATOM      6  C   UNL     1      34.456 -23.235 -13.573  0.00  0.00    -0.045 C 
ATOM      7  H   UNL     1      34.951 -24.807 -14.825  0.00  0.00    -0.079 HD
BRANCH   3   9
ATOM      8  O   UNL     1      29.882 -24.830 -14.242  0.00  0.00    -0.270 OA
ATOM      9  N   UNL     1      31.246 -23.248 -15.199  0.00  0.00    -0.302 N 
ATOM     10  C   UNL     1      29.995 -23.777 -14.872  0.00  0.00    +0.252 C 
ATOM     11  H   UNL     1      31.286 -22.404 -15.704  0.00  0.00    +0.150 HD
BRANCH  10  14
ATOM     12 CL   UNL     1      25.931 -21.648 -17.861  0.00  0.00    -0.075 Cl
ATOM     13  S   UNL     1      28.275 -23.184 -16.883  0.00  0.00    -0.071 S 
ATOM     14  C   UNL     1      28.830 -22.988 -15.297  0.00  0.00    +0.084 C 
ATOM     15  C   UNL     1      28.128 -22.099 -14.559  0.00  0.00    +0.012 C 
ATOM     16  C   UNL     1      27.067 -21.537 -15.327  0.00  0.00    +0.019 C 
ATOM     17  C   UNL     1      27.033 -22.040 -16.608  0.00  0.00    +0.087 C 
ENDBRANCH  10  14
ENDBRANCH   3   9
BRANCH   4  18
ATOM     18  O   UNL     1      32.695 -24.534 -12.514  0.00  0.00    -0.385 OA
ATOM     19  H   UNL     1      33.530 -24.970 -12.281  0.00  0.00    +0.210 HD
ENDBRANCH   4  18
ENDBRANCH   1   2
BRANCH   1  22
ATOM     20  O   UNL     1      35.676 -20.895 -15.649  0.00  0.00    -0.277 OA
ATOM     21  N   UNL     1      35.570 -22.269 -17.550  0.00  0.00    -0.284 N 
ATOM     22  C   UNL     1      35.737 -21.993 -16.194  0.00  0.00    +0.205 C 
ATOM     23  H   UNL     1      35.658 -23.214 -17.814  0.00  0.00    +0.155 HD
BRANCH  21  25
ATOM     24  F   UNL     1      32.995 -21.963 -18.540  0.00  0.00    -0.203 F 
ATOM     25  C   UNL     1      35.289 -21.353 -18.591  0.00  0.00    +0.078 C 
ATOM     26  C   UNL     1      33.991 -21.229 -19.057  0.00  0.00    +0.155 C 
ATOM     27  C   UNL     1      36.322 -20.598 -19.121  0.00  0.00    +0.018 C 
ATOM     28  C   UNL     1      34.747 -19.557 -20.629  0.00  0.00    +0.061 C 
ATOM     29  C   UNL     1      33.718 -20.325 -20.083  0.00  0.00    +0.046 C 
ATOM     30  C   UNL     1      36.049 -19.694 -20.148  0.00  0.00    +0.017 C 
BRANCH  28  32
ATOM     31  O   UNL     1      35.011 -16.683 -20.441  0.00  0.00    -0.269 OA
ATOM     32  N   UNL     1      34.462 -18.618 -21.696  0.00  0.00    -0.233 N 
ATOM     33  C   UNL     1      34.671 -17.229 -21.490  0.00  0.00    +0.257 C 
ATOM     34  C   UNL     1      33.962 -19.067 -22.920  0.00  0.00    +0.072 C 
ATOM     35  C   UNL     1      34.397 -16.336 -22.658  0.00  0.00    +0.059 C 
ATOM     36  C   UNL     1      33.694 -18.243 -23.938  0.00  0.00    +0.017 C 
ATOM     37  C   UNL     1      33.927 -16.836 -23.802  0.00  0.00    +0.006 C 
ENDBRANCH  28  32
ENDBRANCH  21  25
ENDBRANCH   1  22
TORSDOF 7
ENDMDL
MODEL 9
REMARK VINA RESULT:     -11.0      4.930      8.381
REMARK  Name = 11979006
REMARK  7 active torsions:
REMARK  status: ('A' for Active; 'I' for Inactive)
REMARK    1  A    between atoms: C_1  and  N_2
REMARK    2  A    between atoms: C_1  and  C_22
REMARK    3  A    between atoms: C_3  and  N_9
REMARK    4  A    between atoms: C_4  and  O_18
REMARK    5  A    between atoms: C_10  and  C_14
REMARK    6  A    between atoms: N_21  and  C_25
REMARK    7  A    between atoms: C_28  and  N_32
REMARK                            x       y       z     vdW  Elec       q    Type
REMARK                         _______ _______ _______ _____ _____    ______ ____
ROOT
ATOM      1  C   UNL     1      33.412 -14.252 -24.575  0.00  0.00    +0.010 C 
ENDROOT
BRANCH   1   2
ATOM      2  N   UNL     1      34.001 -14.489 -23.265  0.00  0.00    +0.396 N 
ATOM      3  C   UNL     1      34.640 -15.911 -21.559  0.00  0.00    +0.076 C 
ATOM      4  C   UNL     1      33.636 -14.917 -20.970  0.00  0.00    +0.106 C 
ATOM      5  C   UNL     1      34.343 -15.896 -23.052  0.00  0.00    -0.054 C 
ATOM      6  C   UNL     1      33.092 -14.136 -22.168  0.00  0.00    -0.045 C 
ATOM      7  H   UNL     1      34.834 -13.901 -23.260  0.00  0.00    -0.079 HD
BRANCH   3   9
ATOM      8  O   UNL     1      36.661 -17.875 -21.483  0.00  0.00    -0.270 OA
ATOM      9  N   UNL     1      34.514 -17.224 -20.988  0.00  0.00    -0.302 N 
ATOM     10  C   UNL     1      35.565 -18.144 -20.989  0.00  0.00    +0.252 C 
ATOM     11  H   UNL     1      33.656 -17.485 -20.583  0.00  0.00    +0.150 HD
BRANCH  10  14
ATOM     12 CL   UNL     1      33.010 -22.566 -19.012  0.00  0.00    -0.075 Cl
ATOM     13  S   UNL     1      33.690 -19.976 -20.295  0.00  0.00    -0.071 S 
ATOM     14  C   UNL     1      35.292 -19.435 -20.340  0.00  0.00    +0.084 C 
ATOM     15  C   UNL     1      36.186 -20.265 -19.757  0.00  0.00    +0.012 C 
ATOM     16  C   UNL     1      35.532 -21.420 -19.237  0.00  0.00    +0.019 C 
ATOM     17  C   UNL     1      34.174 -21.390 -19.462  0.00  0.00    +0.087 C 
ENDBRANCH  10  14
ENDBRANCH   3   9
BRANCH   4  18
ATOM     18  O   UNL     1      34.308 -14.051 -20.065  0.00  0.00    -0.385 OA
ATOM     19  H   UNL     1      34.576 -13.243 -20.530  0.00  0.00    +0.210 HD
ENDBRANCH   4  18
ENDBRANCH   1   2
BRANCH   1  22
ATOM     20  O   UNL     1      32.285 -12.392 -25.620  0.00  0.00    -0.277 OA
ATOM     21  N   UNL     1      32.987 -12.222 -23.385  0.00  0.00    -0.284 N 
ATOM     22  C   UNL     1      32.823 -12.852 -24.618  0.00  0.00    +0.205 C 
ATOM     23  H   UNL     1      33.442 -12.747 -22.687  0.00  0.00    +0.155 HD
BRANCH  21  25
ATOM     24  F   UNL     1      30.792 -11.814 -21.735  0.00  0.00    -0.203 F 
ATOM     25  C   UNL     1      32.577 -10.918 -23.020  0.00  0.00    +0.078 C 
ATOM     26  C   UNL     1      31.476 -10.757 -22.195  0.00  0.00    +0.155 C 
ATOM     27  C   UNL     1      33.288  -9.829 -23.498  0.00  0.00    +0.018 C 
ATOM     28  C   UNL     1      31.779  -8.362 -22.310  0.00  0.00    +0.061 C 
ATOM     29  C   UNL     1      31.075  -9.470 -21.837  0.00  0.00    +0.046 C 
ATOM     30  C   UNL     1      32.886  -8.542 -23.141  0.00  0.00    +0.017 C 
BRANCH  28  32
ATOM     31  O   UNL     1      32.501  -7.005 -19.860  0.00  0.00    -0.269 OA
ATOM     32  N   UNL     1      31.361  -7.025 -21.939  0.00  0.00    -0.233 N 
ATOM     33  C   UNL     1      31.817  -6.453 -20.722  0.00  0.00    +0.257 C 
ATOM     34  C   UNL     1      30.493  -6.301 -22.759  0.00  0.00    +0.072 C 
ATOM     35  C   UNL     1      31.376  -5.053 -20.439  0.00  0.00    +0.059 C 
ATOM     36  C   UNL     1      30.087  -5.061 -22.466  0.00  0.00    +0.017 C 
ATOM     37  C   UNL     1      30.550  -4.418 -21.273  0.00  0.00    +0.006 C 
ENDBRANCH  28  32
ENDBRANCH  21  25
ENDBRANCH   1  22
TORSDOF 7
ENDMDL
