MODEL 1
REMARK VINA RESULT:     -11.9      0.000      0.000
REMARK  Name = 66440
REMARK  7 active torsions:
REMARK  status: ('A' for Active; 'I' for Inactive)
REMARK    1  A    between atoms: C_5  and  O_21
REMARK    2  A    between atoms: C_18  and  O_19
REMARK    3  A    between atoms: O_21  and  C_23
REMARK    4  A    between atoms: C_23  and  C_24
REMARK    5  A    between atoms: C_24  and  C_25
REMARK    6  A    between atoms: C_25  and  C_27
REMARK    7  A    between atoms: C_27  and  O_28
REMARK                            x       y       z     vdW  Elec       q    Type
REMARK                         _______ _______ _______ _____ _____    ______ ____
ROOT
ATOM      1  C   UNL     1      35.652 -22.670 -15.404  0.00  0.00    +0.037 C 
ATOM      2  C   UNL     1      34.552 -23.106 -16.394  0.00  0.00    +0.004 C 
ATOM      3  C   UNL     1      34.200 -22.000 -17.388  0.00  0.00    +0.004 C 
ATOM      4  C   UNL     1      35.470 -21.659 -18.225  0.00  0.00    +0.022 C 
ATOM      5  C   UNL     1      35.719 -23.939 -14.532  0.00  0.00    +0.169 C 
ATOM      6  C   UNL     1      36.924 -22.372 -16.207  0.00  0.00    +0.004 C 
ATOM      7  C   UNL     1      33.463 -23.673 -15.487  0.00  0.00    +0.004 C 
ATOM      8  C   UNL     1      36.675 -21.323 -17.307  0.00  0.00    +0.004 C 
ATOM      9  C   UNL     1      34.243 -24.335 -14.336  0.00  0.00    +0.044 C 
ATOM     10  C   UNL     1      33.071 -22.402 -18.338  0.00  0.00    +0.005 C 
ATOM     11  C   UNL     1      35.293 -21.438 -14.536  0.00  0.00    +0.004 C 
ATOM     12  C   UNL     1      35.162 -20.617 -19.297  0.00  0.00    -0.026 C 
ATOM     13  C   UNL     1      32.674 -21.210 -19.203  0.00  0.00    +0.026 C 
ATOM     14  C   UNL     1      33.844 -20.449 -19.776  0.00  0.00    -0.023 C 
ATOM     15  C   UNL     1      36.188 -19.865 -19.897  0.00  0.00    -0.001 C 
ATOM     16  C   UNL     1      33.581 -19.509 -20.789  0.00  0.00    +0.032 C 
ATOM     17  C   UNL     1      35.915 -18.942 -20.908  0.00  0.00    +0.036 C 
ATOM     18  C   UNL     1      34.610 -18.760 -21.351  0.00  0.00    +0.133 C 
ENDROOT
BRANCH  18  19
ATOM     19  O   UNL     1      34.341 -17.859 -22.334  0.00  0.00    -0.506 OA
ATOM     20  H   UNL     1      33.739 -17.159 -22.175  0.00  0.00    +0.292 HD
ENDBRANCH  18  19
BRANCH   5  21
ATOM     21  O   UNL     1      36.373 -23.728 -13.297  0.00  0.00    -0.452 OA
BRANCH  21  23
ATOM     22  O   UNL     1      36.160 -25.169 -11.508  0.00  0.00    -0.250 OA
ATOM     23  C   UNL     1      36.678 -24.854 -12.571  0.00  0.00    +0.317 C 
BRANCH  23  24
ATOM     24  C   UNL     1      37.752 -25.640 -13.291  0.00  0.00    +0.121 C 
BRANCH  24  25
ATOM     25  C   UNL     1      38.986 -24.806 -13.617  0.00  0.00    +0.121 C 
BRANCH  25  27
ATOM     26  O   UNL     1      40.820 -26.374 -13.749  0.00  0.00    -0.250 OA
ATOM     27  C   UNL     1      40.034 -25.632 -14.322  0.00  0.00    +0.314 C 
BRANCH  27  28
ATOM     28  O   UNL     1      39.997 -25.481 -15.670  0.00  0.00    -0.480 OA
ATOM     29  H   UNL     1      39.972 -24.623 -16.045  0.00  0.00    +0.295 HD
ENDBRANCH  27  28
ENDBRANCH  25  27
ENDBRANCH  24  25
ENDBRANCH  23  24
ENDBRANCH  21  23
ENDBRANCH   5  21
TORSDOF 7
ENDMDL
MODEL 2
REMARK VINA RESULT:     -11.5      1.244      2.603
REMARK  Name = 66440
REMARK  7 active torsions:
REMARK  status: ('A' for Active; 'I' for Inactive)
REMARK    1  A    between atoms: C_5  and  O_21
REMARK    2  A    between atoms: C_18  and  O_19
REMARK    3  A    between atoms: O_21  and  C_23
REMARK    4  A    between atoms: C_23  and  C_24
REMARK    5  A    between atoms: C_24  and  C_25
REMARK    6  A    between atoms: C_25  and  C_27
REMARK    7  A    between atoms: C_27  and  O_28
REMARK                            x       y       z     vdW  Elec       q    Type
REMARK                         _______ _______ _______ _____ _____    ______ ____
ROOT
ATOM      1  C   UNL     1      35.556 -22.392 -15.781  0.00  0.00    +0.037 C 
ATOM      2  C   UNL     1      34.513 -22.846 -16.824  0.00  0.00    +0.004 C 
ATOM      3  C   UNL     1      34.173 -21.736 -17.818  0.00  0.00    +0.004 C 
ATOM      4  C   UNL     1      35.468 -21.348 -18.595  0.00  0.00    +0.022 C 
ATOM      5  C   UNL     1      35.621 -23.671 -14.923  0.00  0.00    +0.169 C 
ATOM      6  C   UNL     1      36.853 -22.046 -16.523  0.00  0.00    +0.004 C 
ATOM      7  C   UNL     1      33.403 -23.455 -15.974  0.00  0.00    +0.004 C 
ATOM      8  C   UNL     1      36.622 -20.989 -17.620  0.00  0.00    +0.004 C 
ATOM      9  C   UNL     1      34.150 -24.111 -14.798  0.00  0.00    +0.044 C 
ATOM     10  C   UNL     1      33.099 -22.157 -18.823  0.00  0.00    +0.005 C 
ATOM     11  C   UNL     1      35.124 -21.183 -14.914  0.00  0.00    +0.004 C 
ATOM     12  C   UNL     1      35.177 -20.300 -19.666  0.00  0.00    -0.026 C 
ATOM     13  C   UNL     1      32.705 -20.965 -19.689  0.00  0.00    +0.026 C 
ATOM     14  C   UNL     1      33.877 -20.163 -20.200  0.00  0.00    -0.023 C 
ATOM     15  C   UNL     1      36.206 -19.510 -20.210  0.00  0.00    -0.001 C 
ATOM     16  C   UNL     1      33.631 -19.216 -21.211  0.00  0.00    +0.032 C 
ATOM     17  C   UNL     1      35.950 -18.581 -21.220  0.00  0.00    +0.036 C 
ATOM     18  C   UNL     1      34.662 -18.430 -21.718  0.00  0.00    +0.133 C 
ENDROOT
BRANCH  18  19
ATOM     19  O   UNL     1      34.410 -17.523 -22.700  0.00  0.00    -0.506 OA
ATOM     20  H   UNL     1      34.841 -16.692 -22.692  0.00  0.00    +0.292 HD
ENDBRANCH  18  19
BRANCH   5  21
ATOM     21  O   UNL     1      36.214 -23.458 -13.657  0.00  0.00    -0.452 OA
BRANCH  21  23
ATOM     22  O   UNL     1      38.131 -24.633 -14.172  0.00  0.00    -0.250 OA
ATOM     23  C   UNL     1      37.305 -24.239 -13.360  0.00  0.00    +0.317 C 
BRANCH  23  24
ATOM     24  C   UNL     1      37.322 -24.536 -11.876  0.00  0.00    +0.121 C 
BRANCH  24  25
ATOM     25  C   UNL     1      36.557 -23.506 -11.053  0.00  0.00    +0.121 C 
BRANCH  25  27
ATOM     26  O   UNL     1      35.096 -24.136  -9.233  0.00  0.00    -0.250 OA
ATOM     27  C   UNL     1      35.318 -24.109 -10.436  0.00  0.00    +0.314 C 
BRANCH  27  28
ATOM     28  O   UNL     1      34.461 -24.603 -11.364  0.00  0.00    -0.480 OA
ATOM     29  H   UNL     1      34.617 -24.450 -12.275  0.00  0.00    +0.295 HD
ENDBRANCH  27  28
ENDBRANCH  25  27
ENDBRANCH  24  25
ENDBRANCH  23  24
ENDBRANCH  21  23
ENDBRANCH   5  21
TORSDOF 7
ENDMDL
MODEL 3
REMARK VINA RESULT:     -10.9      1.646      8.831
REMARK  Name = 66440
REMARK  7 active torsions:
REMARK  status: ('A' for Active; 'I' for Inactive)
REMARK    1  A    between atoms: C_5  and  O_21
REMARK    2  A    between atoms: C_18  and  O_19
REMARK    3  A    between atoms: O_21  and  C_23
REMARK    4  A    between atoms: C_23  and  C_24
REMARK    5  A    between atoms: C_24  and  C_25
REMARK    6  A    between atoms: C_25  and  C_27
REMARK    7  A    between atoms: C_27  and  O_28
REMARK                            x       y       z     vdW  Elec       q    Type
REMARK                         _______ _______ _______ _____ _____    ______ ____
ROOT
ATOM      1  C   UNL     1      34.633 -21.079 -19.193  0.00  0.00    +0.037 C 
ATOM      2  C   UNL     1      33.659 -21.349 -18.028  0.00  0.00    +0.004 C 
ATOM      3  C   UNL     1      34.163 -22.454 -17.101  0.00  0.00    +0.004 C 
ATOM      4  C   UNL     1      35.518 -22.003 -16.477  0.00  0.00    +0.022 C 
ATOM      5  C   UNL     1      33.827 -20.003 -19.947  0.00  0.00    +0.169 C 
ATOM      6  C   UNL     1      35.961 -20.592 -18.601  0.00  0.00    +0.004 C 
ATOM      7  C   UNL     1      32.311 -21.512 -18.723  0.00  0.00    +0.004 C 
ATOM      8  C   UNL     1      36.533 -21.591 -17.577  0.00  0.00    +0.004 C 
ATOM      9  C   UNL     1      32.378 -20.526 -19.904  0.00  0.00    +0.044 C 
ATOM     10  C   UNL     1      33.178 -22.770 -15.973  0.00  0.00    +0.005 C 
ATOM     11  C   UNL     1      34.899 -22.297 -20.114  0.00  0.00    +0.004 C 
ATOM     12  C   UNL     1      36.034 -23.031 -15.473  0.00  0.00    -0.026 C 
ATOM     13  C   UNL     1      33.673 -23.972 -15.175  0.00  0.00    +0.026 C 
ATOM     14  C   UNL     1      35.142 -23.923 -14.838  0.00  0.00    -0.023 C 
ATOM     15  C   UNL     1      37.387 -23.057 -15.089  0.00  0.00    -0.001 C 
ATOM     16  C   UNL     1      35.627 -24.841 -13.889  0.00  0.00    +0.032 C 
ATOM     17  C   UNL     1      37.853 -23.968 -14.138  0.00  0.00    +0.036 C 
ATOM     18  C   UNL     1      36.975 -24.864 -13.542  0.00  0.00    +0.133 C 
ENDROOT
BRANCH  18  19
ATOM     19  O   UNL     1      37.427 -25.753 -12.618  0.00  0.00    -0.506 OA
ATOM     20  H   UNL     1      38.324 -25.734 -12.349  0.00  0.00    +0.292 HD
ENDBRANCH  18  19
BRANCH   5  21
ATOM     21  O   UNL     1      34.274 -19.805 -21.273  0.00  0.00    -0.452 OA
BRANCH  21  23
ATOM     22  O   UNL     1      35.026 -17.691 -20.740  0.00  0.00    -0.250 OA
ATOM     23  C   UNL     1      34.774 -18.558 -21.565  0.00  0.00    +0.317 C 
BRANCH  23  24
ATOM     24  C   UNL     1      34.962 -18.429 -23.061  0.00  0.00    +0.121 C 
BRANCH  24  25
ATOM     25  C   UNL     1      33.812 -17.701 -23.746  0.00  0.00    +0.121 C 
BRANCH  25  27
ATOM     26  O   UNL     1      33.903 -15.772 -25.200  0.00  0.00    -0.250 OA
ATOM     27  C   UNL     1      34.208 -16.298 -24.137  0.00  0.00    +0.314 C 
BRANCH  27  28
ATOM     28  O   UNL     1      34.923 -15.669 -23.171  0.00  0.00    -0.480 OA
ATOM     29  H   UNL     1      35.644 -15.118 -23.405  0.00  0.00    +0.295 HD
ENDBRANCH  27  28
ENDBRANCH  25  27
ENDBRANCH  24  25
ENDBRANCH  23  24
ENDBRANCH  21  23
ENDBRANCH   5  21
TORSDOF 7
ENDMDL
MODEL 4
REMARK VINA RESULT:     -10.6      3.541     10.218
REMARK  Name = 66440
REMARK  7 active torsions:
REMARK  status: ('A' for Active; 'I' for Inactive)
REMARK    1  A    between atoms: C_5  and  O_21
REMARK    2  A    between atoms: C_18  and  O_19
REMARK    3  A    between atoms: O_21  and  C_23
REMARK    4  A    between atoms: C_23  and  C_24
REMARK    5  A    between atoms: C_24  and  C_25
REMARK    6  A    between atoms: C_25  and  C_27
REMARK    7  A    between atoms: C_27  and  O_28
REMARK                            x       y       z     vdW  Elec       q    Type
REMARK                         _______ _______ _______ _____ _____    ______ ____
ROOT
ATOM      1  C   UNL     1      34.401 -18.667 -21.317  0.00  0.00    +0.037 C 
ATOM      2  C   UNL     1      35.483 -19.653 -20.830  0.00  0.00    +0.004 C 
ATOM      3  C   UNL     1      35.163 -20.223 -19.449  0.00  0.00    +0.004 C 
ATOM      4  C   UNL     1      33.821 -21.012 -19.533  0.00  0.00    +0.022 C 
ATOM      5  C   UNL     1      35.036 -18.240 -22.654  0.00  0.00    +0.169 C 
ATOM      6  C   UNL     1      33.080 -19.436 -21.448  0.00  0.00    +0.004 C 
ATOM      7  C   UNL     1      36.784 -18.883 -21.040  0.00  0.00    +0.004 C 
ATOM      8  C   UNL     1      32.690 -20.133 -20.130  0.00  0.00    +0.004 C 
ATOM      9  C   UNL     1      36.529 -18.060 -22.316  0.00  0.00    +0.044 C 
ATOM     10  C   UNL     1      36.258 -21.159 -18.933  0.00  0.00    +0.005 C 
ATOM     11  C   UNL     1      34.187 -17.434 -20.403  0.00  0.00    +0.004 C 
ATOM     12  C   UNL     1      33.488 -21.679 -18.201  0.00  0.00    -0.026 C 
ATOM     13  C   UNL     1      35.947 -21.577 -17.499  0.00  0.00    +0.026 C 
ATOM     14  C   UNL     1      34.510 -21.976 -17.273  0.00  0.00    -0.023 C 
ATOM     15  C   UNL     1      32.178 -22.095 -17.904  0.00  0.00    -0.001 C 
ATOM     16  C   UNL     1      34.192 -22.623 -16.065  0.00  0.00    +0.032 C 
ATOM     17  C   UNL     1      31.878 -22.745 -16.705  0.00  0.00    +0.036 C 
ATOM     18  C   UNL     1      32.884 -23.004 -15.782  0.00  0.00    +0.133 C 
ENDROOT
BRANCH  18  19
ATOM     19  O   UNL     1      32.594 -23.634 -14.612  0.00  0.00    -0.506 OA
ATOM     20  H   UNL     1      31.720 -23.616 -14.275  0.00  0.00    +0.292 HD
ENDBRANCH  18  19
BRANCH   5  21
ATOM     21  O   UNL     1      34.472 -17.056 -23.182  0.00  0.00    -0.452 OA
BRANCH  21  23
ATOM     22  O   UNL     1      33.340 -18.272 -24.782  0.00  0.00    -0.250 OA
ATOM     23  C   UNL     1      33.699 -17.203 -24.309  0.00  0.00    +0.317 C 
BRANCH  23  24
ATOM     24  C   UNL     1      33.363 -15.838 -24.869  0.00  0.00    +0.121 C 
BRANCH  24  25
ATOM     25  C   UNL     1      33.443 -14.728 -23.828  0.00  0.00    +0.121 C 
BRANCH  25  27
ATOM     26  O   UNL     1      33.089 -12.337 -23.841  0.00  0.00    -0.250 OA
ATOM     27  C   UNL     1      32.917 -13.424 -24.377  0.00  0.00    +0.314 C 
BRANCH  27  28
ATOM     28  O   UNL     1      32.248 -13.582 -25.547  0.00  0.00    -0.480 OA
ATOM     29  H   UNL     1      32.372 -12.969 -26.245  0.00  0.00    +0.295 HD
ENDBRANCH  27  28
ENDBRANCH  25  27
ENDBRANCH  24  25
ENDBRANCH  23  24
ENDBRANCH  21  23
ENDBRANCH   5  21
TORSDOF 7
ENDMDL
MODEL 5
REMARK VINA RESULT:      -9.6      3.260      5.253
REMARK  Name = 66440
REMARK  7 active torsions:
REMARK  status: ('A' for Active; 'I' for Inactive)
REMARK    1  A    between atoms: C_5  and  O_21
REMARK    2  A    between atoms: C_18  and  O_19
REMARK    3  A    between atoms: O_21  and  C_23
REMARK    4  A    between atoms: C_23  and  C_24
REMARK    5  A    between atoms: C_24  and  C_25
REMARK    6  A    between atoms: C_25  and  C_27
REMARK    7  A    between atoms: C_27  and  O_28
REMARK                            x       y       z     vdW  Elec       q    Type
REMARK                         _______ _______ _______ _____ _____    ______ ____
ROOT
ATOM      1  C   UNL     1      35.701 -23.426 -14.552  0.00  0.00    +0.037 C 
ATOM      2  C   UNL     1      34.923 -22.398 -15.398  0.00  0.00    +0.004 C 
ATOM      3  C   UNL     1      33.505 -22.871 -15.717  0.00  0.00    +0.004 C 
ATOM      4  C   UNL     1      32.727 -23.055 -14.379  0.00  0.00    +0.022 C 
ATOM      5  C   UNL     1      37.059 -22.702 -14.468  0.00  0.00    +0.169 C 
ATOM      6  C   UNL     1      34.975 -23.588 -13.211  0.00  0.00    +0.004 C 
ATOM      7  C   UNL     1      35.881 -22.081 -16.542  0.00  0.00    +0.004 C 
ATOM      8  C   UNL     1      33.498 -23.985 -13.404  0.00  0.00    +0.004 C 
ATOM      9  C   UNL     1      37.275 -22.151 -15.891  0.00  0.00    +0.044 C 
ATOM     10  C   UNL     1      32.742 -21.885 -16.603  0.00  0.00    +0.005 C 
ATOM     11  C   UNL     1      35.873 -24.817 -15.213  0.00  0.00    +0.004 C 
ATOM     12  C   UNL     1      31.274 -23.446 -14.633  0.00  0.00    -0.026 C 
ATOM     13  C   UNL     1      31.395 -22.481 -17.000  0.00  0.00    +0.026 C 
ATOM     14  C   UNL     1      30.650 -23.129 -15.860  0.00  0.00    -0.023 C 
ATOM     15  C   UNL     1      30.496 -24.048 -13.627  0.00  0.00    -0.001 C 
ATOM     16  C   UNL     1      29.300 -23.465 -16.067  0.00  0.00    +0.032 C 
ATOM     17  C   UNL     1      29.154 -24.368 -13.843  0.00  0.00    +0.036 C 
ATOM     18  C   UNL     1      28.556 -24.081 -15.064  0.00  0.00    +0.133 C 
ENDROOT
BRANCH  18  19
ATOM     19  O   UNL     1      27.251 -24.395 -15.277  0.00  0.00    -0.506 OA
ATOM     20  H   UNL     1      26.587 -23.745 -15.157  0.00  0.00    +0.292 HD
ENDBRANCH  18  19
BRANCH   5  21
ATOM     21  O   UNL     1      38.117 -23.551 -14.070  0.00  0.00    -0.452 OA
BRANCH  21  23
ATOM     22  O   UNL     1      38.178 -23.008 -11.829  0.00  0.00    -0.250 OA
ATOM     23  C   UNL     1      38.191 -23.838 -12.728  0.00  0.00    +0.317 C 
BRANCH  23  24
ATOM     24  C   UNL     1      38.291 -25.336 -12.538  0.00  0.00    +0.121 C 
BRANCH  24  25
ATOM     25  C   UNL     1      38.513 -26.090 -13.844  0.00  0.00    +0.121 C 
BRANCH  25  27
ATOM     26  O   UNL     1      40.912 -26.328 -13.670  0.00  0.00    -0.250 OA
ATOM     27  C   UNL     1      39.941 -25.958 -14.316  0.00  0.00    +0.314 C 
BRANCH  27  28
ATOM     28  O   UNL     1      40.033 -25.402 -15.550  0.00  0.00    -0.480 OA
ATOM     29  H   UNL     1      39.398 -25.609 -16.207  0.00  0.00    +0.295 HD
ENDBRANCH  27  28
ENDBRANCH  25  27
ENDBRANCH  24  25
ENDBRANCH  23  24
ENDBRANCH  21  23
ENDBRANCH   5  21
TORSDOF 7
ENDMDL
MODEL 6
REMARK VINA RESULT:      -9.0      8.151     12.516
REMARK  Name = 66440
REMARK  7 active torsions:
REMARK  status: ('A' for Active; 'I' for Inactive)
REMARK    1  A    between atoms: C_5  and  O_21
REMARK    2  A    between atoms: C_18  and  O_19
REMARK    3  A    between atoms: O_21  and  C_23
REMARK    4  A    between atoms: C_23  and  C_24
REMARK    5  A    between atoms: C_24  and  C_25
REMARK    6  A    between atoms: C_25  and  C_27
REMARK    7  A    between atoms: C_27  and  O_28
REMARK                            x       y       z     vdW  Elec       q    Type
REMARK                         _______ _______ _______ _____ _____    ______ ____
ROOT
ATOM      1  C   UNL     1      33.298 -12.807 -21.887  0.00  0.00    +0.037 C 
ATOM      2  C   UNL     1      31.968 -12.319 -21.277  0.00  0.00    +0.004 C 
ATOM      3  C   UNL     1      31.900 -10.795 -21.189  0.00  0.00    +0.004 C 
ATOM      4  C   UNL     1      31.994 -10.207 -22.630  0.00  0.00    +0.022 C 
ATOM      5  C   UNL     1      33.080 -14.328 -21.774  0.00  0.00    +0.169 C 
ATOM      6  C   UNL     1      33.389 -12.273 -23.322  0.00  0.00    +0.004 C 
ATOM      7  C   UNL     1      31.834 -13.150 -20.005  0.00  0.00    +0.004 C 
ATOM      8  C   UNL     1      33.248 -10.740 -23.373  0.00  0.00    +0.004 C 
ATOM      9  C   UNL     1      32.446 -14.511 -20.382  0.00  0.00    +0.044 C 
ATOM     10  C   UNL     1      30.608 -10.302 -20.535  0.00  0.00    +0.005 C 
ATOM     11  C   UNL     1      34.566 -12.385 -21.102  0.00  0.00    +0.004 C 
ATOM     12  C   UNL     1      31.847  -8.687 -22.617  0.00  0.00    -0.026 C 
ATOM     13  C   UNL     1      30.667  -8.789 -20.348  0.00  0.00    +0.026 C 
ATOM     14  C   UNL     1      31.180  -8.040 -21.553  0.00  0.00    -0.023 C 
ATOM     15  C   UNL     1      32.287  -7.905 -23.700  0.00  0.00    -0.001 C 
ATOM     16  C   UNL     1      31.021  -6.643 -21.572  0.00  0.00    +0.032 C 
ATOM     17  C   UNL     1      32.114  -6.519 -23.711  0.00  0.00    +0.036 C 
ATOM     18  C   UNL     1      31.486  -5.887 -22.644  0.00  0.00    +0.133 C 
ENDROOT
BRANCH  18  19
ATOM     19  O   UNL     1      31.320  -4.537 -22.651  0.00  0.00    -0.506 OA
ATOM     20  H   UNL     1      30.752  -4.132 -22.027  0.00  0.00    +0.292 HD
ENDBRANCH  18  19
BRANCH   5  21
ATOM     21  O   UNL     1      34.276 -15.070 -21.907  0.00  0.00    -0.452 OA
BRANCH  21  23
ATOM     22  O   UNL     1      34.201 -15.455 -24.180  0.00  0.00    -0.250 OA
ATOM     23  C   UNL     1      34.386 -15.847 -23.036  0.00  0.00    +0.317 C 
BRANCH  23  24
ATOM     24  C   UNL     1      34.768 -17.257 -22.641  0.00  0.00    +0.121 C 
BRANCH  24  25
ATOM     25  C   UNL     1      35.117 -17.390 -21.163  0.00  0.00    +0.121 C 
BRANCH  25  27
ATOM     26  O   UNL     1      36.258 -19.293 -20.205  0.00  0.00    -0.250 OA
ATOM     27  C   UNL     1      36.281 -18.329 -20.959  0.00  0.00    +0.314 C 
BRANCH  27  28
ATOM     28  O   UNL     1      37.355 -18.002 -21.720  0.00  0.00    -0.480 OA
ATOM     29  H   UNL     1      37.461 -18.382 -22.570  0.00  0.00    +0.295 HD
ENDBRANCH  27  28
ENDBRANCH  25  27
ENDBRANCH  24  25
ENDBRANCH  23  24
ENDBRANCH  21  23
ENDBRANCH   5  21
TORSDOF 7
ENDMDL
MODEL 7
REMARK VINA RESULT:      -8.9     10.204     14.719
REMARK  Name = 66440
REMARK  7 active torsions:
REMARK  status: ('A' for Active; 'I' for Inactive)
REMARK    1  A    between atoms: C_5  and  O_21
REMARK    2  A    between atoms: C_18  and  O_19
REMARK    3  A    between atoms: O_21  and  C_23
REMARK    4  A    between atoms: C_23  and  C_24
REMARK    5  A    between atoms: C_24  and  C_25
REMARK    6  A    between atoms: C_25  and  C_27
REMARK    7  A    between atoms: C_27  and  O_28
REMARK                            x       y       z     vdW  Elec       q    Type
REMARK                         _______ _______ _______ _____ _____    ______ ____
ROOT
ATOM      1  C   UNL     1      31.503 -10.742 -21.573  0.00  0.00    +0.037 C 
ATOM      2  C   UNL     1      32.284  -9.904 -22.606  0.00  0.00    +0.004 C 
ATOM      3  C   UNL     1      31.695  -8.504 -22.777  0.00  0.00    +0.004 C 
ATOM      4  C   UNL     1      31.780  -7.756 -21.412  0.00  0.00    +0.022 C 
ATOM      5  C   UNL     1      32.283 -12.066 -21.685  0.00  0.00    +0.169 C 
ATOM      6  C   UNL     1      31.612 -10.043 -20.212  0.00  0.00    +0.004 C 
ATOM      7  C   UNL     1      32.379 -10.830 -23.815  0.00  0.00    +0.004 C 
ATOM      8  C   UNL     1      31.122  -8.583 -20.276  0.00  0.00    +0.004 C 
ATOM      9  C   UNL     1      32.514 -12.235 -23.199  0.00  0.00    +0.044 C 
ATOM     10  C   UNL     1      32.428  -7.684 -23.840  0.00  0.00    +0.005 C 
ATOM     11  C   UNL     1      30.008 -10.966 -21.915  0.00  0.00    +0.004 C 
ATOM     12  C   UNL     1      31.283  -6.319 -21.538  0.00  0.00    -0.026 C 
ATOM     13  C   UNL     1      31.704  -6.360 -24.062  0.00  0.00    +0.026 C 
ATOM     14  C   UNL     1      31.294  -5.663 -22.788  0.00  0.00    -0.023 C 
ATOM     15  C   UNL     1      30.887  -5.584 -20.405  0.00  0.00    -0.001 C 
ATOM     16  C   UNL     1      30.865  -4.327 -22.883  0.00  0.00    +0.032 C 
ATOM     17  C   UNL     1      30.473  -4.255 -20.511  0.00  0.00    +0.036 C 
ATOM     18  C   UNL     1      30.457  -3.627 -21.751  0.00  0.00    +0.133 C 
ENDROOT
BRANCH  18  19
ATOM     19  O   UNL     1      30.050  -2.334 -21.857  0.00  0.00    -0.506 OA
ATOM     20  H   UNL     1      30.567  -1.718 -22.338  0.00  0.00    +0.292 HD
ENDBRANCH  18  19
BRANCH   5  21
ATOM     21  O   UNL     1      31.587 -13.167 -21.135  0.00  0.00    -0.452 OA
BRANCH  21  23
ATOM     22  O   UNL     1      31.815 -14.459 -19.238  0.00  0.00    -0.250 OA
ATOM     23  C   UNL     1      32.287 -13.942 -20.242  0.00  0.00    +0.317 C 
BRANCH  23  24
ATOM     24  C   UNL     1      33.727 -14.053 -20.692  0.00  0.00    +0.121 C 
BRANCH  24  25
ATOM     25  C   UNL     1      34.149 -15.485 -20.999  0.00  0.00    +0.121 C 
BRANCH  25  27
ATOM     26  O   UNL     1      34.619 -14.706 -23.238  0.00  0.00    -0.250 OA
ATOM     27  C   UNL     1      34.616 -15.623 -22.427  0.00  0.00    +0.314 C 
BRANCH  27  28
ATOM     28  O   UNL     1      35.057 -16.874 -22.714  0.00  0.00    -0.480 OA
ATOM     29  H   UNL     1      34.443 -17.552 -22.919  0.00  0.00    +0.295 HD
ENDBRANCH  27  28
ENDBRANCH  25  27
ENDBRANCH  24  25
ENDBRANCH  23  24
ENDBRANCH  21  23
ENDBRANCH   5  21
TORSDOF 7
ENDMDL
