MODEL 1
REMARK VINA RESULT:     -12.0      0.000      0.000
REMARK  Name = 6323454
REMARK  1 active torsions:
REMARK  status: ('A' for Active; 'I' for Inactive)
REMARK    1  A    between atoms: C_18  and  O_22
REMARK                            x       y       z     vdW  Elec       q    Type
REMARK                         _______ _______ _______ _____ _____    ______ ____
ROOT
ATOM      1  O   UNL     1      33.717 -24.037 -13.643  0.00  0.00    -0.350 OA
ATOM      2  O   UNL     1      36.833 -22.397 -13.846  0.00  0.00    -0.445 OA
ATOM      3  O   UNL     1      37.190 -21.884 -16.566  0.00  0.00    -0.287 OA
ATOM      4  O   UNL     1      37.762 -22.389 -11.736  0.00  0.00    -0.250 OA
ATOM      5  O   UNL     1      32.002 -22.819 -17.360  0.00  0.00    -0.287 OA
ATOM      6  C   UNL     1      34.740 -23.125 -13.305  0.00  0.00    +0.171 C 
ATOM      7  C   UNL     1      35.766 -23.148 -14.410  0.00  0.00    +0.221 C 
ATOM      8  C   UNL     1      35.132 -22.641 -15.669  0.00  0.00    +0.060 C 
ATOM      9  C   UNL     1      32.957 -23.565 -14.788  0.00  0.00    +0.141 C 
ATOM     10  C   UNL     1      33.815 -22.862 -15.849  0.00  0.00    +0.046 C 
ATOM     11  C   UNL     1      35.615 -23.471 -12.127  0.00  0.00    +0.143 C 
ATOM     12  C   UNL     1      36.861 -22.699 -12.499  0.00  0.00    +0.320 C 
ATOM     13  C   UNL     1      35.978 -21.995 -16.702  0.00  0.00    +0.195 C 
ATOM     14  C   UNL     1      33.158 -22.484 -17.132  0.00  0.00    +0.197 C 
ATOM     15  C   UNL     1      31.824 -22.681 -14.256  0.00  0.00    +0.037 C 
ATOM     16  C   UNL     1      35.306 -21.488 -17.912  0.00  0.00    +0.045 C 
ATOM     17  C   UNL     1      33.948 -21.724 -18.118  0.00  0.00    +0.075 C 
ATOM     18  C   UNL     1      33.326 -21.245 -19.278  0.00  0.00    +0.137 C 
ATOM     19  C   UNL     1      36.046 -20.776 -18.864  0.00  0.00    +0.003 C 
ATOM     20  C   UNL     1      34.065 -20.533 -20.224  0.00  0.00    +0.037 C 
ATOM     21  C   UNL     1      35.422 -20.299 -20.018  0.00  0.00    +0.003 C 
ENDROOT
BRANCH  18  22
ATOM     22  O   UNL     1      32.001 -21.434 -19.539  0.00  0.00    -0.505 OA
ATOM     23  H   UNL     1      31.694 -21.438 -20.424  0.00  0.00    +0.292 HD
ENDBRANCH  18  22
TORSDOF 1
ENDMDL
MODEL 2
REMARK VINA RESULT:     -11.1      1.695      6.126
REMARK  Name = 6323454
REMARK  1 active torsions:
REMARK  status: ('A' for Active; 'I' for Inactive)
REMARK    1  A    between atoms: C_18  and  O_22
REMARK                            x       y       z     vdW  Elec       q    Type
REMARK                         _______ _______ _______ _____ _____    ______ ____
ROOT
ATOM      1  O   UNL     1      36.444 -21.911 -17.975  0.00  0.00    -0.350 OA
ATOM      2  O   UNL     1      33.405 -20.814 -19.392  0.00  0.00    -0.445 OA
ATOM      3  O   UNL     1      31.429 -22.209 -18.001  0.00  0.00    -0.287 OA
ATOM      4  O   UNL     1      33.916 -19.429 -21.163  0.00  0.00    -0.250 OA
ATOM      5  O   UNL     1      35.012 -23.420 -14.244  0.00  0.00    -0.287 OA
ATOM      6  C   UNL     1      35.489 -21.004 -18.483  0.00  0.00    +0.171 C 
ATOM      7  C   UNL     1      34.190 -21.748 -18.661  0.00  0.00    +0.221 C 
ATOM      8  C   UNL     1      33.696 -22.188 -17.317  0.00  0.00    +0.060 C 
ATOM      9  C   UNL     1      36.116 -22.302 -16.614  0.00  0.00    +0.141 C 
ATOM     10  C   UNL     1      34.610 -22.469 -16.367  0.00  0.00    +0.046 C 
ATOM     11  C   UNL     1      35.696 -20.496 -19.888  0.00  0.00    +0.143 C 
ATOM     12  C   UNL     1      34.267 -20.160 -20.250  0.00  0.00    +0.320 C 
ATOM     13  C   UNL     1      32.242 -22.378 -17.101  0.00  0.00    +0.195 C 
ATOM     14  C   UNL     1      34.181 -23.021 -15.051  0.00  0.00    +0.197 C 
ATOM     15  C   UNL     1      36.766 -21.283 -15.673  0.00  0.00    +0.037 C 
ATOM     16  C   UNL     1      31.801 -22.786 -15.754  0.00  0.00    +0.045 C 
ATOM     17  C   UNL     1      32.736 -23.095 -14.768  0.00  0.00    +0.075 C 
ATOM     18  C   UNL     1      32.302 -23.491 -13.497  0.00  0.00    +0.137 C 
ATOM     19  C   UNL     1      30.432 -22.873 -15.474  0.00  0.00    +0.003 C 
ATOM     20  C   UNL     1      30.937 -23.574 -13.218  0.00  0.00    +0.037 C 
ATOM     21  C   UNL     1      30.004 -23.266 -14.206  0.00  0.00    +0.003 C 
ENDROOT
BRANCH  18  22
ATOM     22  O   UNL     1      33.162 -23.800 -12.485  0.00  0.00    -0.505 OA
ATOM     23  H   UNL     1      33.120 -23.331 -11.675  0.00  0.00    +0.292 HD
ENDBRANCH  18  22
TORSDOF 1
ENDMDL
MODEL 3
REMARK VINA RESULT:     -11.0      2.114      5.875
REMARK  Name = 6323454
REMARK  1 active torsions:
REMARK  status: ('A' for Active; 'I' for Inactive)
REMARK    1  A    between atoms: C_18  and  O_22
REMARK                            x       y       z     vdW  Elec       q    Type
REMARK                         _______ _______ _______ _____ _____    ______ ____
ROOT
ATOM      1  O   UNL     1      31.565 -22.602 -14.598  0.00  0.00    -0.350 OA
ATOM      2  O   UNL     1      33.757 -22.478 -17.359  0.00  0.00    -0.445 OA
ATOM      3  O   UNL     1      36.310 -22.673 -16.248  0.00  0.00    -0.287 OA
ATOM      4  O   UNL     1      32.490 -22.082 -19.245  0.00  0.00    -0.250 OA
ATOM      5  O   UNL     1      34.133 -24.409 -11.702  0.00  0.00    -0.287 OA
ATOM      6  C   UNL     1      32.068 -22.897 -15.884  0.00  0.00    +0.171 C 
ATOM      7  C   UNL     1      33.466 -22.339 -15.974  0.00  0.00    +0.221 C 
ATOM      8  C   UNL     1      34.339 -23.059 -14.993  0.00  0.00    +0.060 C 
ATOM      9  C   UNL     1      32.272 -23.358 -13.578  0.00  0.00    +0.141 C 
ATOM     10  C   UNL     1      33.773 -23.514 -13.857  0.00  0.00    +0.046 C 
ATOM     11  C   UNL     1      31.428 -22.195 -17.055  0.00  0.00    +0.143 C 
ATOM     12  C   UNL     1      32.578 -22.238 -18.037  0.00  0.00    +0.320 C 
ATOM     13  C   UNL     1      35.793 -23.173 -15.257  0.00  0.00    +0.195 C 
ATOM     14  C   UNL     1      34.614 -24.133 -12.794  0.00  0.00    +0.197 C 
ATOM     15  C   UNL     1      31.551 -24.700 -13.417  0.00  0.00    +0.037 C 
ATOM     16  C   UNL     1      36.608 -23.913 -14.276  0.00  0.00    +0.045 C 
ATOM     17  C   UNL     1      36.038 -24.375 -13.090  0.00  0.00    +0.075 C 
ATOM     18  C   UNL     1      36.828 -25.067 -12.163  0.00  0.00    +0.137 C 
ATOM     19  C   UNL     1      37.964 -24.140 -14.537  0.00  0.00    +0.003 C 
ATOM     20  C   UNL     1      38.179 -25.295 -12.427  0.00  0.00    +0.037 C 
ATOM     21  C   UNL     1      38.746 -24.832 -13.611  0.00  0.00    +0.003 C 
ENDROOT
BRANCH  18  22
ATOM     22  O   UNL     1      36.334 -25.552 -10.988  0.00  0.00    -0.505 OA
ATOM     23  H   UNL     1      36.839 -26.158 -10.483  0.00  0.00    +0.292 HD
ENDBRANCH  18  22
TORSDOF 1
ENDMDL
MODEL 4
REMARK VINA RESULT:     -10.9      1.878      4.466
REMARK  Name = 6323454
REMARK  1 active torsions:
REMARK  status: ('A' for Active; 'I' for Inactive)
REMARK    1  A    between atoms: C_18  and  O_22
REMARK                            x       y       z     vdW  Elec       q    Type
REMARK                         _______ _______ _______ _____ _____    ______ ____
ROOT
ATOM      1  O   UNL     1      32.626 -23.730 -12.773  0.00  0.00    -0.350 OA
ATOM      2  O   UNL     1      30.101 -24.006 -15.221  0.00  0.00    -0.445 OA
ATOM      3  O   UNL     1      30.912 -22.298 -17.274  0.00  0.00    -0.287 OA
ATOM      4  O   UNL     1      28.432 -25.345 -14.361  0.00  0.00    -0.250 OA
ATOM      5  O   UNL     1      35.811 -22.198 -15.173  0.00  0.00    -0.287 OA
ATOM      6  C   UNL     1      31.691 -24.359 -13.624  0.00  0.00    +0.171 C 
ATOM      7  C   UNL     1      31.187 -23.328 -14.602  0.00  0.00    +0.221 C 
ATOM      8  C   UNL     1      32.327 -22.882 -15.466  0.00  0.00    +0.060 C 
ATOM      9  C   UNL     1      33.831 -23.370 -13.501  0.00  0.00    +0.141 C 
ATOM     10  C   UNL     1      33.564 -22.883 -14.932  0.00  0.00    +0.046 C 
ATOM     11  C   UNL     1      30.386 -24.801 -13.011  0.00  0.00    +0.143 C 
ATOM     12  C   UNL     1      29.507 -24.777 -14.241  0.00  0.00    +0.320 C 
ATOM     13  C   UNL     1      32.052 -22.381 -16.834  0.00  0.00    +0.195 C 
ATOM     14  C   UNL     1      34.717 -22.340 -15.706  0.00  0.00    +0.197 C 
ATOM     15  C   UNL     1      34.778 -24.574 -13.447  0.00  0.00    +0.037 C 
ATOM     16  C   UNL     1      33.207 -21.979 -17.657  0.00  0.00    +0.045 C 
ATOM     17  C   UNL     1      34.490 -21.959 -17.112  0.00  0.00    +0.075 C 
ATOM     18  C   UNL     1      35.576 -21.564 -17.903  0.00  0.00    +0.137 C 
ATOM     19  C   UNL     1      33.006 -21.602 -18.990  0.00  0.00    +0.003 C 
ATOM     20  C   UNL     1      35.375 -21.193 -19.233  0.00  0.00    +0.037 C 
ATOM     21  C   UNL     1      34.092 -21.211 -19.775  0.00  0.00    +0.003 C 
ENDROOT
BRANCH  18  22
ATOM     22  O   UNL     1      36.857 -21.530 -17.436  0.00  0.00    -0.505 OA
ATOM     23  H   UNL     1      37.106 -20.888 -16.800  0.00  0.00    +0.292 HD
ENDBRANCH  18  22
TORSDOF 1
ENDMDL
MODEL 5
REMARK VINA RESULT:     -10.5      6.303      9.667
REMARK  Name = 6323454
REMARK  1 active torsions:
REMARK  status: ('A' for Active; 'I' for Inactive)
REMARK    1  A    between atoms: C_18  and  O_22
REMARK                            x       y       z     vdW  Elec       q    Type
REMARK                         _______ _______ _______ _____ _____    ______ ____
ROOT
ATOM      1  O   UNL     1      34.324 -19.172 -23.963  0.00  0.00    -0.350 OA
ATOM      2  O   UNL     1      34.458 -18.228 -20.567  0.00  0.00    -0.445 OA
ATOM      3  O   UNL     1      34.677 -15.446 -20.612  0.00  0.00    -0.287 OA
ATOM      4  O   UNL     1      34.522 -20.156 -19.304  0.00  0.00    -0.250 OA
ATOM      5  O   UNL     1      33.115 -15.466 -25.709  0.00  0.00    -0.287 OA
ATOM      6  C   UNL     1      33.975 -19.154 -22.595  0.00  0.00    +0.171 C 
ATOM      7  C   UNL     1      34.688 -17.992 -21.951  0.00  0.00    +0.221 C 
ATOM      8  C   UNL     1      34.172 -16.717 -22.546  0.00  0.00    +0.060 C 
ATOM      9  C   UNL     1      33.756 -18.030 -24.659  0.00  0.00    +0.141 C 
ATOM     10  C   UNL     1      33.758 -16.739 -23.828  0.00  0.00    +0.046 C 
ATOM     11  C   UNL     1      34.484 -20.284 -21.736  0.00  0.00    +0.143 C 
ATOM     12  C   UNL     1      34.490 -19.597 -20.389  0.00  0.00    +0.320 C 
ATOM     13  C   UNL     1      34.211 -15.471 -21.744  0.00  0.00    +0.195 C 
ATOM     14  C   UNL     1      33.346 -15.478 -24.506  0.00  0.00    +0.197 C 
ATOM     15  C   UNL     1      32.357 -18.430 -25.138  0.00  0.00    +0.037 C 
ATOM     16  C   UNL     1      33.668 -14.247 -22.362  0.00  0.00    +0.045 C 
ATOM     17  C   UNL     1      33.252 -14.252 -23.692  0.00  0.00    +0.075 C 
ATOM     18  C   UNL     1      32.749 -13.079 -24.269  0.00  0.00    +0.137 C 
ATOM     19  C   UNL     1      33.585 -13.072 -21.606  0.00  0.00    +0.003 C 
ATOM     20  C   UNL     1      32.663 -11.909 -23.512  0.00  0.00    +0.037 C 
ATOM     21  C   UNL     1      33.081 -11.905 -22.184  0.00  0.00    +0.003 C 
ENDROOT
BRANCH  18  22
ATOM     22  O   UNL     1      32.318 -13.016 -25.560  0.00  0.00    -0.505 OA
ATOM     23  H   UNL     1      31.843 -12.265 -25.860  0.00  0.00    +0.292 HD
ENDBRANCH  18  22
TORSDOF 1
ENDMDL
MODEL 6
REMARK VINA RESULT:     -10.4      2.030      5.047
REMARK  Name = 6323454
REMARK  1 active torsions:
REMARK  status: ('A' for Active; 'I' for Inactive)
REMARK    1  A    between atoms: C_18  and  O_22
REMARK                            x       y       z     vdW  Elec       q    Type
REMARK                         _______ _______ _______ _____ _____    ______ ____
ROOT
ATOM      1  O   UNL     1      36.103 -23.615 -14.283  0.00  0.00    -0.350 OA
ATOM      2  O   UNL     1      35.078 -21.492 -16.907  0.00  0.00    -0.445 OA
ATOM      3  O   UNL     1      32.451 -22.258 -17.455  0.00  0.00    -0.287 OA
ATOM      4  O   UNL     1      36.901 -20.231 -17.543  0.00  0.00    -0.250 OA
ATOM      5  O   UNL     1      32.290 -24.827 -12.787  0.00  0.00    -0.287 OA
ATOM      6  C   UNL     1      35.936 -22.413 -15.004  0.00  0.00    +0.171 C 
ATOM      7  C   UNL     1      34.970 -22.679 -16.131  0.00  0.00    +0.221 C 
ATOM      8  C   UNL     1      33.633 -23.024 -15.551  0.00  0.00    +0.060 C 
ATOM      9  C   UNL     1      34.885 -23.970 -13.575  0.00  0.00    +0.141 C 
ATOM     10  C   UNL     1      33.603 -23.653 -14.359  0.00  0.00    +0.046 C 
ATOM     11  C   UNL     1      37.121 -21.906 -15.788  0.00  0.00    +0.143 C 
ATOM     12  C   UNL     1      36.401 -21.098 -16.844  0.00  0.00    +0.320 C 
ATOM     13  C   UNL     1      32.404 -22.744 -16.332  0.00  0.00    +0.195 C 
ATOM     14  C   UNL     1      32.309 -24.124 -13.790  0.00  0.00    +0.197 C 
ATOM     15  C   UNL     1      34.931 -23.286 -12.206  0.00  0.00    +0.037 C 
ATOM     16  C   UNL     1      31.110 -23.077 -15.710  0.00  0.00    +0.045 C 
ATOM     17  C   UNL     1      31.066 -23.742 -14.485  0.00  0.00    +0.075 C 
ATOM     18  C   UNL     1      29.829 -24.061 -13.911  0.00  0.00    +0.137 C 
ATOM     19  C   UNL     1      29.922 -22.732 -16.363  0.00  0.00    +0.003 C 
ATOM     20  C   UNL     1      28.645 -23.713 -14.562  0.00  0.00    +0.037 C 
ATOM     21  C   UNL     1      28.691 -23.050 -15.787  0.00  0.00    +0.003 C 
ENDROOT
BRANCH  18  22
ATOM     22  O   UNL     1      29.713 -24.702 -12.713  0.00  0.00    -0.505 OA
ATOM     23  H   UNL     1      29.532 -24.212 -11.935  0.00  0.00    +0.292 HD
ENDBRANCH  18  22
TORSDOF 1
ENDMDL
MODEL 7
REMARK VINA RESULT:     -10.2      1.295      2.105
REMARK  Name = 6323454
REMARK  1 active torsions:
REMARK  status: ('A' for Active; 'I' for Inactive)
REMARK    1  A    between atoms: C_18  and  O_22
REMARK                            x       y       z     vdW  Elec       q    Type
REMARK                         _______ _______ _______ _____ _____    ______ ____
ROOT
ATOM      1  O   UNL     1      32.647 -23.676 -16.033  0.00  0.00    -0.350 OA
ATOM      2  O   UNL     1      35.782 -22.352 -15.105  0.00  0.00    -0.445 OA
ATOM      3  O   UNL     1      36.857 -21.343 -17.475  0.00  0.00    -0.287 OA
ATOM      4  O   UNL     1      36.130 -22.862 -12.883  0.00  0.00    -0.250 OA
ATOM      5  O   UNL     1      32.016 -21.570 -19.695  0.00  0.00    -0.287 OA
ATOM      6  C   UNL     1      33.589 -22.958 -15.264  0.00  0.00    +0.171 C 
ATOM      7  C   UNL     1      34.864 -22.864 -16.063  0.00  0.00    +0.221 C 
ATOM      8  C   UNL     1      34.604 -22.052 -17.296  0.00  0.00    +0.060 C 
ATOM      9  C   UNL     1      32.234 -22.909 -17.196  0.00  0.00    +0.141 C 
ATOM     10  C   UNL     1      33.370 -22.099 -17.835  0.00  0.00    +0.046 C 
ATOM     11  C   UNL     1      34.110 -23.621 -14.014  0.00  0.00    +0.143 C 
ATOM     12  C   UNL     1      35.445 -22.920 -13.892  0.00  0.00    +0.320 C 
ATOM     13  C   UNL     1      35.718 -21.302 -17.923  0.00  0.00    +0.195 C 
ATOM     14  C   UNL     1      33.088 -21.406 -19.124  0.00  0.00    +0.197 C 
ATOM     15  C   UNL     1      31.044 -22.040 -16.776  0.00  0.00    +0.037 C 
ATOM     16  C   UNL     1      35.409 -20.497 -19.118  0.00  0.00    +0.045 C 
ATOM     17  C   UNL     1      34.141 -20.548 -19.696  0.00  0.00    +0.075 C 
ATOM     18  C   UNL     1      33.865 -19.786 -20.838  0.00  0.00    +0.137 C 
ATOM     19  C   UNL     1      36.403 -19.687 -19.681  0.00  0.00    +0.003 C 
ATOM     20  C   UNL     1      34.857 -18.977 -21.395  0.00  0.00    +0.037 C 
ATOM     21  C   UNL     1      36.123 -18.928 -20.818  0.00  0.00    +0.003 C 
ENDROOT
BRANCH  18  22
ATOM     22  O   UNL     1      32.646 -19.784 -21.449  0.00  0.00    -0.505 OA
ATOM     23  H   UNL     1      32.372 -20.527 -21.949  0.00  0.00    +0.292 HD
ENDBRANCH  18  22
TORSDOF 1
ENDMDL
MODEL 8
REMARK VINA RESULT:     -10.0      1.294      6.457
REMARK  Name = 6323454
REMARK  1 active torsions:
REMARK  status: ('A' for Active; 'I' for Inactive)
REMARK    1  A    between atoms: C_18  and  O_22
REMARK                            x       y       z     vdW  Elec       q    Type
REMARK                         _______ _______ _______ _____ _____    ______ ____
ROOT
ATOM      1  O   UNL     1      35.975 -21.234 -18.954  0.00  0.00    -0.350 OA
ATOM      2  O   UNL     1      32.456 -21.426 -18.797  0.00  0.00    -0.445 OA
ATOM      3  O   UNL     1      31.934 -23.172 -16.683  0.00  0.00    -0.287 OA
ATOM      4  O   UNL     1      31.607 -20.230 -20.576  0.00  0.00    -0.250 OA
ATOM      5  O   UNL     1      36.959 -22.557 -15.014  0.00  0.00    -0.287 OA
ATOM      6  C   UNL     1      34.638 -20.779 -18.949  0.00  0.00    +0.171 C 
ATOM      7  C   UNL     1      33.759 -21.929 -18.527  0.00  0.00    +0.221 C 
ATOM      8  C   UNL     1      34.094 -22.301 -17.115  0.00  0.00    +0.060 C 
ATOM      9  C   UNL     1      36.437 -21.503 -17.603  0.00  0.00    +0.141 C 
ATOM     10  C   UNL     1      35.362 -22.120 -16.696  0.00  0.00    +0.046 C 
ATOM     11  C   UNL     1      34.015 -20.447 -20.282  0.00  0.00    +0.143 C 
ATOM     12  C   UNL     1      32.558 -20.660 -19.942  0.00  0.00    +0.320 C 
ATOM     13  C   UNL     1      33.057 -22.927 -16.260  0.00  0.00    +0.195 C 
ATOM     14  C   UNL     1      35.779 -22.580 -15.342  0.00  0.00    +0.197 C 
ATOM     15  C   UNL     1      37.013 -20.198 -17.044  0.00  0.00    +0.037 C 
ATOM     16  C   UNL     1      33.425 -23.251 -14.870  0.00  0.00    +0.045 C 
ATOM     17  C   UNL     1      34.736 -23.084 -14.429  0.00  0.00    +0.075 C 
ATOM     18  C   UNL     1      35.073 -23.407 -13.108  0.00  0.00    +0.137 C 
ATOM     19  C   UNL     1      32.449 -23.743 -13.995  0.00  0.00    +0.003 C 
ATOM     20  C   UNL     1      34.098 -23.894 -12.237  0.00  0.00    +0.037 C 
ATOM     21  C   UNL     1      32.789 -24.062 -12.680  0.00  0.00    +0.003 C 
ENDROOT
BRANCH  18  22
ATOM     22  O   UNL     1      36.334 -23.260 -12.610  0.00  0.00    -0.505 OA
ATOM     23  H   UNL     1      36.919 -23.993 -12.594  0.00  0.00    +0.292 HD
ENDBRANCH  18  22
TORSDOF 1
ENDMDL
MODEL 9
REMARK VINA RESULT:      -9.9      7.347     10.666
REMARK  Name = 6323454
REMARK  1 active torsions:
REMARK  status: ('A' for Active; 'I' for Inactive)
REMARK    1  A    between atoms: C_18  and  O_22
REMARK                            x       y       z     vdW  Elec       q    Type
REMARK                         _______ _______ _______ _____ _____    ______ ____
ROOT
ATOM      1  O   UNL     1      34.910 -16.607 -24.163  0.00  0.00    -0.350 OA
ATOM      2  O   UNL     1      34.377 -17.208 -20.729  0.00  0.00    -0.445 OA
ATOM      3  O   UNL     1      33.896 -14.687 -19.632  0.00  0.00    -0.287 OA
ATOM      4  O   UNL     1      34.762 -19.448 -20.339  0.00  0.00    -0.250 OA
ATOM      5  O   UNL     1      33.042 -12.784 -24.538  0.00  0.00    -0.287 OA
ATOM      6  C   UNL     1      34.399 -17.240 -23.010  0.00  0.00    +0.171 C 
ATOM      7  C   UNL     1      34.712 -16.364 -21.823  0.00  0.00    +0.221 C 
ATOM      8  C   UNL     1      33.972 -15.069 -21.969  0.00  0.00    +0.060 C 
ATOM      9  C   UNL     1      34.167 -15.394 -24.463  0.00  0.00    +0.141 C 
ATOM     10  C   UNL     1      33.742 -14.609 -23.214  0.00  0.00    +0.046 C 
ATOM     11  C   UNL     1      35.063 -18.522 -22.572  0.00  0.00    +0.143 C 
ATOM     12  C   UNL     1      34.728 -18.492 -21.098  0.00  0.00    +0.320 C 
ATOM     13  C   UNL     1      33.598 -14.303 -20.756  0.00  0.00    +0.195 C 
ATOM     14  C   UNL     1      33.115 -13.272 -23.417  0.00  0.00    +0.197 C 
ATOM     15  C   UNL     1      32.984 -15.787 -25.353  0.00  0.00    +0.037 C 
ATOM     16  C   UNL     1      32.848 -13.048 -20.948  0.00  0.00    +0.045 C 
ATOM     17  C   UNL     1      32.616 -12.553 -22.230  0.00  0.00    +0.075 C 
ATOM     18  C   UNL     1      31.912 -11.354 -22.397  0.00  0.00    +0.137 C 
ATOM     19  C   UNL     1      32.379 -12.347 -19.831  0.00  0.00    +0.003 C 
ATOM     20  C   UNL     1      31.442 -10.658 -21.282  0.00  0.00    +0.037 C 
ATOM     21  C   UNL     1      31.676 -11.154 -20.001  0.00  0.00    +0.003 C 
ENDROOT
BRANCH  18  22
ATOM     22  O   UNL     1      31.644 -10.817 -23.621  0.00  0.00    -0.505 OA
ATOM     23  H   UNL     1      31.393  -9.917 -23.693  0.00  0.00    +0.292 HD
ENDBRANCH  18  22
TORSDOF 1
ENDMDL
