MODEL 1
REMARK VINA RESULT:     -12.8      0.000      0.000
REMARK  Name = 53338808
REMARK  2 active torsions:
REMARK  status: ('A' for Active; 'I' for Inactive)
REMARK    1  A    between atoms: C_3  and  C_15
REMARK    2  A    between atoms: C_5  and  C_23
REMARK                            x       y       z     vdW  Elec       q    Type
REMARK                         _______ _______ _______ _____ _____    ______ ____
ROOT
ATOM      1  N   UNL     1      31.076 -23.234 -15.656  0.00  0.00    -0.228 N 
ATOM      2  N   UNL     1      31.630 -22.575 -16.711  0.00  0.00    -0.165 NA
ATOM      3  C   UNL     1      33.279 -23.408 -15.366  0.00  0.00    +0.056 A 
ATOM      4  C   UNL     1      32.068 -23.753 -14.818  0.00  0.00    +0.086 A 
ATOM      5  C   UNL     1      32.946 -22.688 -16.524  0.00  0.00    +0.104 A 
ATOM      6  C   UNL     1      31.660 -24.475 -13.662  0.00  0.00    +0.019 C 
ATOM      7  C   UNL     1      29.715 -23.409 -15.383  0.00  0.00    +0.100 C 
ATOM      8  C   UNL     1      30.348 -24.638 -13.408  0.00  0.00    +0.003 C 
ATOM      9  C   UNL     1      29.334 -24.091 -14.292  0.00  0.00    +0.021 C 
ENDROOT
BRANCH   3  15
ATOM     10  N   UNL     1      35.178 -24.807 -15.395  0.00  0.00    -0.146 NA
ATOM     11  N   UNL     1      38.071 -24.756 -13.302  0.00  0.00    -0.257 N 
ATOM     12  N   UNL     1      36.362 -25.213 -14.959  0.00  0.00    -0.129 NA
ATOM     13  N   UNL     1      38.313 -23.902 -12.290  0.00  0.00    -0.157 NA
ATOM     14  N   UNL     1      37.013 -22.083 -11.424  0.00  0.00    -0.341 N 
ATOM     15  C   UNL     1      34.552 -23.755 -14.804  0.00  0.00    +0.106 C 
ATOM     16  C   UNL     1      35.055 -23.029 -13.734  0.00  0.00    +0.027 C 
ATOM     17  C   UNL     1      36.298 -23.459 -13.278  0.00  0.00    +0.071 A 
ATOM     18  C   UNL     1      36.880 -24.533 -13.925  0.00  0.00    +0.180 A 
ATOM     19  C   UNL     1      37.231 -23.116 -12.280  0.00  0.00    +0.148 A 
ATOM     20  H   UNL     1      38.693 -25.471 -13.566  0.00  0.00    +0.191 HD
ATOM     21  H   UNL     1      37.684 -21.866 -10.735  0.00  0.00    +0.144 HD
ATOM     22  H   UNL     1      36.187 -21.553 -11.490  0.00  0.00    +0.144 HD
ENDBRANCH   3  15
BRANCH   5  23
ATOM     23  C   UNL     1      33.857 -22.095 -17.470  0.00  0.00    +0.019 C 
ATOM     24  C   UNL     1      33.411 -21.758 -18.748  0.00  0.00    +0.002 C 
ATOM     25  C   UNL     1      35.183 -21.858 -17.109  0.00  0.00    +0.002 C 
ATOM     26  C   UNL     1      34.292 -21.183 -19.664  0.00  0.00    +0.000 C 
ATOM     27  C   UNL     1      36.063 -21.283 -18.025  0.00  0.00    +0.000 C 
ATOM     28  C   UNL     1      35.618 -20.946 -19.303  0.00  0.00    +0.000 C 
ENDBRANCH   5  23
TORSDOF 2
ENDMDL
MODEL 2
REMARK VINA RESULT:     -12.3      0.987      1.739
REMARK  Name = 53338808
REMARK  2 active torsions:
REMARK  status: ('A' for Active; 'I' for Inactive)
REMARK    1  A    between atoms: C_3  and  C_15
REMARK    2  A    between atoms: C_5  and  C_23
REMARK                            x       y       z     vdW  Elec       q    Type
REMARK                         _______ _______ _______ _____ _____    ______ ____
ROOT
ATOM      1  N   UNL     1      31.205 -23.374 -15.488  0.00  0.00    -0.228 N 
ATOM      2  N   UNL     1      31.792 -22.758 -16.551  0.00  0.00    -0.165 NA
ATOM      3  C   UNL     1      33.390 -23.406 -15.052  0.00  0.00    +0.056 A 
ATOM      4  C   UNL     1      32.166 -23.780 -14.557  0.00  0.00    +0.086 A 
ATOM      5  C   UNL     1      33.097 -22.786 -16.276  0.00  0.00    +0.104 A 
ATOM      6  C   UNL     1      31.720 -24.443 -13.379  0.00  0.00    +0.019 C 
ATOM      7  C   UNL     1      29.840 -23.606 -15.288  0.00  0.00    +0.100 C 
ATOM      8  C   UNL     1      30.405 -24.661 -13.195  0.00  0.00    +0.003 C 
ATOM      9  C   UNL     1      29.423 -24.232 -14.176  0.00  0.00    +0.021 C 
ENDROOT
BRANCH   3  15
ATOM     10  N   UNL     1      35.064 -22.641 -13.576  0.00  0.00    -0.146 NA
ATOM     11  N   UNL     1      38.077 -24.245 -12.529  0.00  0.00    -0.257 N 
ATOM     12  N   UNL     1      36.205 -22.754 -12.912  0.00  0.00    -0.129 NA
ATOM     13  N   UNL     1      38.514 -25.460 -12.912  0.00  0.00    -0.157 NA
ATOM     14  N   UNL     1      37.553 -27.078 -14.397  0.00  0.00    -0.341 N 
ATOM     15  C   UNL     1      34.640 -23.644 -14.390  0.00  0.00    +0.106 C 
ATOM     16  C   UNL     1      35.319 -24.835 -14.605  0.00  0.00    +0.027 C 
ATOM     17  C   UNL     1      36.517 -24.950 -13.905  0.00  0.00    +0.071 A 
ATOM     18  C   UNL     1      36.889 -23.894 -13.094  0.00  0.00    +0.180 A 
ATOM     19  C   UNL     1      37.561 -25.884 -13.749  0.00  0.00    +0.148 A 
ATOM     20  H   UNL     1      38.569 -23.667 -11.903  0.00  0.00    +0.191 HD
ATOM     21  H   UNL     1      38.297 -27.712 -14.269  0.00  0.00    +0.144 HD
ATOM     22  H   UNL     1      36.807 -27.310 -14.995  0.00  0.00    +0.144 HD
ENDBRANCH   3  15
BRANCH   5  23
ATOM     23  C   UNL     1      34.036 -22.208 -17.205  0.00  0.00    +0.019 C 
ATOM     24  C   UNL     1      33.650 -21.960 -18.521  0.00  0.00    +0.002 C 
ATOM     25  C   UNL     1      35.330 -21.898 -16.786  0.00  0.00    +0.002 C 
ATOM     26  C   UNL     1      34.559 -21.401 -19.420  0.00  0.00    +0.000 C 
ATOM     27  C   UNL     1      36.238 -21.338 -17.685  0.00  0.00    +0.000 C 
ATOM     28  C   UNL     1      35.852 -21.090 -19.002  0.00  0.00    +0.000 C 
ENDBRANCH   5  23
TORSDOF 2
ENDMDL
MODEL 3
REMARK VINA RESULT:     -12.1      0.981      4.488
REMARK  Name = 53338808
REMARK  2 active torsions:
REMARK  status: ('A' for Active; 'I' for Inactive)
REMARK    1  A    between atoms: C_3  and  C_15
REMARK    2  A    between atoms: C_5  and  C_23
REMARK                            x       y       z     vdW  Elec       q    Type
REMARK                         _______ _______ _______ _____ _____    ______ ____
ROOT
ATOM      1  N   UNL     1      32.676 -21.667 -18.083  0.00  0.00    -0.228 N 
ATOM      2  N   UNL     1      31.596 -22.055 -17.351  0.00  0.00    -0.165 NA
ATOM      3  C   UNL     1      33.512 -22.821 -16.371  0.00  0.00    +0.056 A 
ATOM      4  C   UNL     1      33.862 -22.125 -17.501  0.00  0.00    +0.086 A 
ATOM      5  C   UNL     1      32.112 -22.743 -16.332  0.00  0.00    +0.104 A 
ATOM      6  C   UNL     1      35.091 -21.806 -18.142  0.00  0.00    +0.019 C 
ATOM      7  C   UNL     1      32.677 -20.912 -19.262  0.00  0.00    +0.100 C 
ATOM      8  C   UNL     1      35.082 -21.080 -19.276  0.00  0.00    +0.003 C 
ATOM      9  C   UNL     1      33.839 -20.613 -19.864  0.00  0.00    +0.021 C 
ENDROOT
BRANCH   3  15
ATOM     10  N   UNL     1      34.695 -24.765 -15.746  0.00  0.00    -0.146 NA
ATOM     11  N   UNL     1      37.025 -25.250 -13.084  0.00  0.00    -0.257 N 
ATOM     12  N   UNL     1      35.545 -25.448 -14.994  0.00  0.00    -0.129 NA
ATOM     13  N   UNL     1      37.426 -24.326 -12.191  0.00  0.00    -0.157 NA
ATOM     14  N   UNL     1      36.825 -22.019 -11.941  0.00  0.00    -0.341 N 
ATOM     15  C   UNL     1      34.447 -23.454 -15.486  0.00  0.00    +0.106 C 
ATOM     16  C   UNL     1      35.026 -22.723 -14.457  0.00  0.00    +0.027 C 
ATOM     17  C   UNL     1      35.918 -23.445 -13.669  0.00  0.00    +0.071 A 
ATOM     18  C   UNL     1      36.125 -24.774 -13.989  0.00  0.00    +0.180 A 
ATOM     19  C   UNL     1      36.749 -23.230 -12.551  0.00  0.00    +0.148 A 
ATOM     20  H   UNL     1      37.350 -26.179 -13.084  0.00  0.00    +0.191 HD
ATOM     21  H   UNL     1      37.415 -21.897 -11.161  0.00  0.00    +0.144 HD
ATOM     22  H   UNL     1      36.292 -21.263 -12.276  0.00  0.00    +0.144 HD
ENDBRANCH   3  15
BRANCH   5  23
ATOM     23  C   UNL     1      31.237 -23.314 -15.338  0.00  0.00    +0.019 C 
ATOM     24  C   UNL     1      30.264 -24.239 -15.717  0.00  0.00    +0.002 C 
ATOM     25  C   UNL     1      31.364 -22.943 -14.000  0.00  0.00    +0.002 C 
ATOM     26  C   UNL     1      29.418 -24.792 -14.756  0.00  0.00    +0.000 C 
ATOM     27  C   UNL     1      30.518 -23.497 -13.039  0.00  0.00    +0.000 C 
ATOM     28  C   UNL     1      29.545 -24.421 -13.418  0.00  0.00    +0.000 C 
ENDBRANCH   5  23
TORSDOF 2
ENDMDL
MODEL 4
REMARK VINA RESULT:     -11.3      2.275      5.371
REMARK  Name = 53338808
REMARK  2 active torsions:
REMARK  status: ('A' for Active; 'I' for Inactive)
REMARK    1  A    between atoms: C_3  and  C_15
REMARK    2  A    between atoms: C_5  and  C_23
REMARK                            x       y       z     vdW  Elec       q    Type
REMARK                         _______ _______ _______ _____ _____    ______ ____
ROOT
ATOM      1  N   UNL     1      31.591 -24.094 -14.132  0.00  0.00    -0.228 N 
ATOM      2  N   UNL     1      32.790 -24.474 -13.613  0.00  0.00    -0.165 NA
ATOM      3  C   UNL     1      33.123 -23.239 -15.506  0.00  0.00    +0.056 A 
ATOM      4  C   UNL     1      31.770 -23.336 -15.293  0.00  0.00    +0.086 A 
ATOM      5  C   UNL     1      33.695 -23.955 -14.444  0.00  0.00    +0.104 A 
ATOM      6  C   UNL     1      30.612 -22.856 -15.967  0.00  0.00    +0.019 C 
ATOM      7  C   UNL     1      30.317 -24.383 -13.630  0.00  0.00    +0.100 C 
ATOM      8  C   UNL     1      29.391 -23.140 -15.476  0.00  0.00    +0.003 C 
ATOM      9  C   UNL     1      29.227 -23.929 -14.268  0.00  0.00    +0.021 C 
ENDROOT
BRANCH   3  15
ATOM     10  N   UNL     1      35.078 -22.438 -16.556  0.00  0.00    -0.146 NA
ATOM     11  N   UNL     1      35.435 -20.611 -19.603  0.00  0.00    -0.257 N 
ATOM     12  N   UNL     1      35.738 -21.811 -17.519  0.00  0.00    -0.129 NA
ATOM     13  N   UNL     1      34.443 -20.217 -20.423  0.00  0.00    -0.157 NA
ATOM     14  N   UNL     1      32.070 -20.523 -20.277  0.00  0.00    -0.341 N 
ATOM     15  C   UNL     1      33.723 -22.535 -16.602  0.00  0.00    +0.106 C 
ATOM     16  C   UNL     1      32.921 -22.014 -17.609  0.00  0.00    +0.027 C 
ATOM     17  C   UNL     1      33.619 -21.356 -18.618  0.00  0.00    +0.071 A 
ATOM     18  C   UNL     1      34.995 -21.295 -18.511  0.00  0.00    +0.180 A 
ATOM     19  C   UNL     1      33.340 -20.673 -19.819  0.00  0.00    +0.148 A 
ATOM     20  H   UNL     1      36.386 -20.423 -19.776  0.00  0.00    +0.191 HD
ATOM     21  H   UNL     1      31.905 -20.041 -21.120  0.00  0.00    +0.144 HD
ATOM     22  H   UNL     1      31.315 -20.895 -19.767  0.00  0.00    +0.144 HD
ENDBRANCH   3  15
BRANCH   5  23
ATOM     23  C   UNL     1      35.100 -24.164 -14.194  0.00  0.00    +0.019 C 
ATOM     24  C   UNL     1      35.802 -23.275 -13.381  0.00  0.00    +0.002 C 
ATOM     25  C   UNL     1      35.755 -25.254 -14.765  0.00  0.00    +0.002 C 
ATOM     26  C   UNL     1      37.161 -23.477 -13.138  0.00  0.00    +0.000 C 
ATOM     27  C   UNL     1      37.114 -25.457 -14.522  0.00  0.00    +0.000 C 
ATOM     28  C   UNL     1      37.816 -24.568 -13.709  0.00  0.00    +0.000 C 
ENDBRANCH   5  23
TORSDOF 2
ENDMDL
MODEL 5
REMARK VINA RESULT:     -11.2      2.161      6.311
REMARK  Name = 53338808
REMARK  2 active torsions:
REMARK  status: ('A' for Active; 'I' for Inactive)
REMARK    1  A    between atoms: C_3  and  C_15
REMARK    2  A    between atoms: C_5  and  C_23
REMARK                            x       y       z     vdW  Elec       q    Type
REMARK                         _______ _______ _______ _____ _____    ______ ____
ROOT
ATOM      1  N   UNL     1      35.116 -22.001 -17.289  0.00  0.00    -0.228 N 
ATOM      2  N   UNL     1      35.919 -22.405 -16.267  0.00  0.00    -0.165 NA
ATOM      3  C   UNL     1      33.756 -22.997 -15.832  0.00  0.00    +0.056 A 
ATOM      4  C   UNL     1      33.785 -22.354 -17.044  0.00  0.00    +0.086 A 
ATOM      5  C   UNL     1      35.092 -22.998 -15.405  0.00  0.00    +0.104 A 
ATOM      6  C   UNL     1      32.808 -22.005 -18.018  0.00  0.00    +0.019 C 
ATOM      7  C   UNL     1      35.497 -21.326 -18.453  0.00  0.00    +0.100 C 
ATOM      8  C   UNL     1      33.185 -21.354 -19.134  0.00  0.00    +0.003 C 
ATOM      9  C   UNL     1      34.573 -20.998 -19.370  0.00  0.00    +0.021 C 
ENDROOT
BRANCH   3  15
ATOM     10  N   UNL     1      32.766 -24.195 -14.057  0.00  0.00    -0.146 NA
ATOM     11  N   UNL     1      29.330 -24.978 -13.480  0.00  0.00    -0.257 N 
ATOM     12  N   UNL     1      31.739 -24.719 -13.404  0.00  0.00    -0.129 NA
ATOM     13  N   UNL     1      28.288 -24.639 -14.263  0.00  0.00    -0.157 NA
ATOM     14  N   UNL     1      28.202 -23.407 -16.318  0.00  0.00    -0.341 N 
ATOM     15  C   UNL     1      32.569 -23.519 -15.219  0.00  0.00    +0.106 C 
ATOM     16  C   UNL     1      31.334 -23.314 -15.821  0.00  0.00    +0.027 C 
ATOM     17  C   UNL     1      30.258 -23.866 -15.131  0.00  0.00    +0.071 A 
ATOM     18  C   UNL     1      30.529 -24.539 -13.955  0.00  0.00    +0.180 A 
ATOM     19  C   UNL     1      28.859 -23.963 -15.266  0.00  0.00    +0.148 A 
ATOM     20  H   UNL     1      29.235 -25.492 -12.647  0.00  0.00    +0.191 HD
ATOM     21  H   UNL     1      27.223 -23.491 -16.386  0.00  0.00    +0.144 HD
ATOM     22  H   UNL     1      28.704 -22.923 -17.012  0.00  0.00    +0.144 HD
ENDBRANCH   3  15
BRANCH   5  23
ATOM     23  C   UNL     1      35.613 -23.555 -14.181  0.00  0.00    +0.019 C 
ATOM     24  C   UNL     1      36.100 -24.861 -14.162  0.00  0.00    +0.002 C 
ATOM     25  C   UNL     1      35.630 -22.787 -13.017  0.00  0.00    +0.002 C 
ATOM     26  C   UNL     1      36.605 -25.400 -12.979  0.00  0.00    +0.000 C 
ATOM     27  C   UNL     1      36.135 -23.326 -11.833  0.00  0.00    +0.000 C 
ATOM     28  C   UNL     1      36.622 -24.633 -11.815  0.00  0.00    +0.000 C 
ENDBRANCH   5  23
TORSDOF 2
ENDMDL
MODEL 6
REMARK VINA RESULT:     -11.0      2.382      4.796
REMARK  Name = 53338808
REMARK  2 active torsions:
REMARK  status: ('A' for Active; 'I' for Inactive)
REMARK    1  A    between atoms: C_3  and  C_15
REMARK    2  A    between atoms: C_5  and  C_23
REMARK                            x       y       z     vdW  Elec       q    Type
REMARK                         _______ _______ _______ _____ _____    ______ ____
ROOT
ATOM      1  N   UNL     1      31.469 -24.164 -13.668  0.00  0.00    -0.228 N 
ATOM      2  N   UNL     1      32.673 -24.390 -13.074  0.00  0.00    -0.165 NA
ATOM      3  C   UNL     1      32.989 -23.440 -15.128  0.00  0.00    +0.056 A 
ATOM      4  C   UNL     1      31.638 -23.581 -14.928  0.00  0.00    +0.086 A 
ATOM      5  C   UNL     1      33.570 -23.952 -13.958  0.00  0.00    +0.104 A 
ATOM      6  C   UNL     1      30.474 -23.277 -15.688  0.00  0.00    +0.019 C 
ATOM      7  C   UNL     1      30.200 -24.447 -13.150  0.00  0.00    +0.100 C 
ATOM      8  C   UNL     1      29.258 -23.553 -15.182  0.00  0.00    +0.003 C 
ATOM      9  C   UNL     1      29.104 -24.158 -13.870  0.00  0.00    +0.021 C 
ENDROOT
BRANCH   3  15
ATOM     10  N   UNL     1      32.982 -23.227 -17.477  0.00  0.00    -0.146 NA
ATOM     11  N   UNL     1      35.159 -21.351 -19.596  0.00  0.00    -0.257 N 
ATOM     12  N   UNL     1      33.442 -22.764 -18.630  0.00  0.00    -0.129 NA
ATOM     13  N   UNL     1      36.198 -20.589 -19.205  0.00  0.00    -0.157 NA
ATOM     14  N   UNL     1      37.068 -20.121 -17.021  0.00  0.00    -0.341 N 
ATOM     15  C   UNL     1      33.579 -22.877 -16.307  0.00  0.00    +0.106 C 
ATOM     16  C   UNL     1      34.681 -22.040 -16.196  0.00  0.00    +0.027 C 
ATOM     17  C   UNL     1      35.162 -21.556 -17.409  0.00  0.00    +0.071 A 
ATOM     18  C   UNL     1      34.507 -21.949 -18.561  0.00  0.00    +0.180 A 
ATOM     19  C   UNL     1      36.195 -20.717 -17.874  0.00  0.00    +0.148 A 
ATOM     20  H   UNL     1      34.896 -21.464 -20.538  0.00  0.00    +0.191 HD
ATOM     21  H   UNL     1      37.781 -19.539 -17.374  0.00  0.00    +0.144 HD
ATOM     22  H   UNL     1      36.990 -20.269 -16.052  0.00  0.00    +0.144 HD
ENDBRANCH   3  15
BRANCH   5  23
ATOM     23  C   UNL     1      34.977 -24.040 -13.654  0.00  0.00    +0.019 C 
ATOM     24  C   UNL     1      35.770 -24.990 -14.296  0.00  0.00    +0.002 C 
ATOM     25  C   UNL     1      35.543 -23.175 -12.718  0.00  0.00    +0.002 C 
ATOM     26  C   UNL     1      37.131 -25.074 -14.002  0.00  0.00    +0.000 C 
ATOM     27  C   UNL     1      36.904 -23.259 -12.425  0.00  0.00    +0.000 C 
ATOM     28  C   UNL     1      37.698 -24.209 -13.067  0.00  0.00    +0.000 C 
ENDBRANCH   5  23
TORSDOF 2
ENDMDL
MODEL 7
REMARK VINA RESULT:     -10.8      2.264      5.813
REMARK  Name = 53338808
REMARK  2 active torsions:
REMARK  status: ('A' for Active; 'I' for Inactive)
REMARK    1  A    between atoms: C_3  and  C_15
REMARK    2  A    between atoms: C_5  and  C_23
REMARK                            x       y       z     vdW  Elec       q    Type
REMARK                         _______ _______ _______ _____ _____    ______ ____
ROOT
ATOM      1  N   UNL     1      34.499 -23.902 -12.359  0.00  0.00    -0.228 N 
ATOM      2  N   UNL     1      33.141 -23.970 -12.409  0.00  0.00    -0.165 NA
ATOM      3  C   UNL     1      33.960 -23.350 -14.449  0.00  0.00    +0.056 A 
ATOM      4  C   UNL     1      35.023 -23.523 -13.599  0.00  0.00    +0.086 A 
ATOM      5  C   UNL     1      32.834 -23.638 -13.663  0.00  0.00    +0.104 A 
ATOM      6  C   UNL     1      36.436 -23.404 -13.722  0.00  0.00    +0.019 C 
ATOM      7  C   UNL     1      35.324 -24.161 -11.258  0.00  0.00    +0.100 C 
ATOM      8  C   UNL     1      37.221 -23.655 -12.658  0.00  0.00    +0.003 C 
ATOM      9  C   UNL     1      36.656 -24.048 -11.379  0.00  0.00    +0.021 C 
ENDROOT
BRANCH   3  15
ATOM     10  N   UNL     1      33.213 -23.572 -16.676  0.00  0.00    -0.146 NA
ATOM     11  N   UNL     1      34.346 -21.916 -19.629  0.00  0.00    -0.257 N 
ATOM     12  N   UNL     1      33.230 -23.285 -17.969  0.00  0.00    -0.129 NA
ATOM     13  N   UNL     1      35.329 -20.999 -19.708  0.00  0.00    -0.157 NA
ATOM     14  N   UNL     1      36.739 -20.059 -18.012  0.00  0.00    -0.341 N 
ATOM     15  C   UNL     1      34.076 -22.959 -15.824  0.00  0.00    +0.106 C 
ATOM     16  C   UNL     1      35.024 -22.014 -16.195  0.00  0.00    +0.027 C 
ATOM     17  C   UNL     1      35.039 -21.716 -17.555  0.00  0.00    +0.071 A 
ATOM     18  C   UNL     1      34.133 -22.374 -18.365  0.00  0.00    +0.180 A 
ATOM     19  C   UNL     1      35.747 -20.882 -18.443  0.00  0.00    +0.148 A 
ATOM     20  H   UNL     1      33.831 -22.224 -20.410  0.00  0.00    +0.191 HD
ATOM     21  H   UNL     1      37.217 -19.487 -18.656  0.00  0.00    +0.144 HD
ATOM     22  H   UNL     1      36.980 -20.034 -17.059  0.00  0.00    +0.144 HD
ENDBRANCH   3  15
BRANCH   5  23
ATOM     23  C   UNL     1      31.454 -23.605 -14.078  0.00  0.00    +0.019 C 
ATOM     24  C   UNL     1      30.719 -24.788 -14.149  0.00  0.00    +0.002 C 
ATOM     25  C   UNL     1      30.853 -22.390 -14.407  0.00  0.00    +0.002 C 
ATOM     26  C   UNL     1      29.383 -24.757 -14.549  0.00  0.00    +0.000 C 
ATOM     27  C   UNL     1      29.517 -22.359 -14.807  0.00  0.00    +0.000 C 
ATOM     28  C   UNL     1      28.782 -23.542 -14.878  0.00  0.00    +0.000 C 
ENDBRANCH   5  23
TORSDOF 2
ENDMDL
MODEL 8
REMARK VINA RESULT:     -10.8      2.444      6.315
REMARK  Name = 53338808
REMARK  2 active torsions:
REMARK  status: ('A' for Active; 'I' for Inactive)
REMARK    1  A    between atoms: C_3  and  C_15
REMARK    2  A    between atoms: C_5  and  C_23
REMARK                            x       y       z     vdW  Elec       q    Type
REMARK                         _______ _______ _______ _____ _____    ______ ____
ROOT
ATOM      1  N   UNL     1      35.069 -21.469 -18.272  0.00  0.00    -0.228 N 
ATOM      2  N   UNL     1      35.711 -22.045 -17.219  0.00  0.00    -0.165 NA
ATOM      3  C   UNL     1      33.453 -22.293 -16.977  0.00  0.00    +0.056 A 
ATOM      4  C   UNL     1      33.683 -21.609 -18.145  0.00  0.00    +0.086 A 
ATOM      5  C   UNL     1      34.733 -22.532 -16.455  0.00  0.00    +0.104 A 
ATOM      6  C   UNL     1      32.857 -21.060 -19.166  0.00  0.00    +0.019 C 
ATOM      7  C   UNL     1      35.647 -20.813 -19.364  0.00  0.00    +0.100 C 
ATOM      8  C   UNL     1      33.422 -20.431 -20.213  0.00  0.00    +0.003 C 
ATOM      9  C   UNL     1      34.864 -20.297 -20.326  0.00  0.00    +0.021 C 
ENDROOT
BRANCH   3  15
ATOM     10  N   UNL     1      31.110 -22.180 -17.225  0.00  0.00    -0.146 NA
ATOM     11  N   UNL     1      28.538 -23.574 -15.178  0.00  0.00    -0.257 N 
ATOM     12  N   UNL     1      29.863 -22.444 -16.864  0.00  0.00    -0.129 NA
ATOM     13  N   UNL     1      28.710 -24.300 -14.057  0.00  0.00    -0.157 NA
ATOM     14  N   UNL     1      30.707 -24.995 -12.927  0.00  0.00    -0.341 N 
ATOM     15  C   UNL     1      32.152 -22.640 -16.484  0.00  0.00    +0.106 C 
ATOM     16  C   UNL     1      32.032 -23.398 -15.327  0.00  0.00    +0.027 C 
ATOM     17  C   UNL     1      30.720 -23.672 -14.951  0.00  0.00    +0.071 A 
ATOM     18  C   UNL     1      29.708 -23.175 -15.750  0.00  0.00    +0.180 A 
ATOM     19  C   UNL     1      30.040 -24.356 -13.924  0.00  0.00    +0.148 A 
ATOM     20  H   UNL     1      27.653 -23.353 -15.548  0.00  0.00    +0.191 HD
ATOM     21  H   UNL     1      30.204 -25.466 -12.222  0.00  0.00    +0.144 HD
ATOM     22  H   UNL     1      31.690 -24.988 -12.909  0.00  0.00    +0.144 HD
ENDBRANCH   3  15
BRANCH   5  23
ATOM     23  C   UNL     1      35.057 -23.221 -15.231  0.00  0.00    +0.019 C 
ATOM     24  C   UNL     1      35.078 -22.523 -14.024  0.00  0.00    +0.002 C 
ATOM     25  C   UNL     1      35.347 -24.585 -15.253  0.00  0.00    +0.002 C 
ATOM     26  C   UNL     1      35.390 -23.190 -12.838  0.00  0.00    +0.000 C 
ATOM     27  C   UNL     1      35.659 -25.251 -14.068  0.00  0.00    +0.000 C 
ATOM     28  C   UNL     1      35.681 -24.553 -12.861  0.00  0.00    +0.000 C 
ENDBRANCH   5  23
TORSDOF 2
ENDMDL
MODEL 9
REMARK VINA RESULT:     -10.5      2.293      6.096
REMARK  Name = 53338808
REMARK  2 active torsions:
REMARK  status: ('A' for Active; 'I' for Inactive)
REMARK    1  A    between atoms: C_3  and  C_15
REMARK    2  A    between atoms: C_5  and  C_23
REMARK                            x       y       z     vdW  Elec       q    Type
REMARK                         _______ _______ _______ _____ _____    ______ ____
ROOT
ATOM      1  N   UNL     1      35.593 -24.453 -13.162  0.00  0.00    -0.228 N 
ATOM      2  N   UNL     1      34.242 -24.295 -13.105  0.00  0.00    -0.165 NA
ATOM      3  C   UNL     1      35.070 -23.233 -14.951  0.00  0.00    +0.056 A 
ATOM      4  C   UNL     1      36.122 -23.810 -14.285  0.00  0.00    +0.086 A 
ATOM      5  C   UNL     1      33.945 -23.565 -14.181  0.00  0.00    +0.104 A 
ATOM      6  C   UNL     1      37.528 -23.877 -14.496  0.00  0.00    +0.019 C 
ATOM      7  C   UNL     1      36.405 -25.150 -12.260  0.00  0.00    +0.100 C 
ATOM      8  C   UNL     1      38.301 -24.548 -13.623  0.00  0.00    +0.003 C 
ATOM      9  C   UNL     1      37.731 -25.211 -12.462  0.00  0.00    +0.021 C 
ENDROOT
BRANCH   3  15
ATOM     10  N   UNL     1      36.404 -21.887 -16.356  0.00  0.00    -0.146 NA
ATOM     11  N   UNL     1      35.601 -20.379 -19.491  0.00  0.00    -0.257 N 
ATOM     12  N   UNL     1      36.632 -21.165 -17.443  0.00  0.00    -0.129 NA
ATOM     13  N   UNL     1      34.426 -20.462 -20.143  0.00  0.00    -0.157 NA
ATOM     14  N   UNL     1      32.391 -21.595 -19.575  0.00  0.00    -0.341 N 
ATOM     15  C   UNL     1      35.195 -22.475 -16.162  0.00  0.00    +0.106 C 
ATOM     16  C   UNL     1      34.119 -22.390 -17.036  0.00  0.00    +0.027 C 
ATOM     17  C   UNL     1      34.363 -21.630 -18.177  0.00  0.00    +0.071 A 
ATOM     18  C   UNL     1      35.615 -21.060 -18.312  0.00  0.00    +0.180 A 
ATOM     19  C   UNL     1      33.676 -21.223 -19.338  0.00  0.00    +0.148 A 
ATOM     20  H   UNL     1      36.374 -19.876 -19.834  0.00  0.00    +0.191 HD
ATOM     21  H   UNL     1      31.936 -21.296 -20.396  0.00  0.00    +0.144 HD
ATOM     22  H   UNL     1      31.914 -22.162 -18.928  0.00  0.00    +0.144 HD
ENDBRANCH   3  15
BRANCH   5  23
ATOM     23  C   UNL     1      32.575 -23.200 -14.442  0.00  0.00    +0.019 C 
ATOM     24  C   UNL     1      31.858 -22.465 -13.498  0.00  0.00    +0.002 C 
ATOM     25  C   UNL     1      31.967 -23.580 -15.638  0.00  0.00    +0.002 C 
ATOM     26  C   UNL     1      30.533 -22.111 -13.750  0.00  0.00    +0.000 C 
ATOM     27  C   UNL     1      30.642 -23.226 -15.890  0.00  0.00    +0.000 C 
ATOM     28  C   UNL     1      29.925 -22.491 -14.946  0.00  0.00    +0.000 C 
ENDBRANCH   5  23
TORSDOF 2
ENDMDL
