MODEL 1
REMARK VINA RESULT:     -11.3      0.000      0.000
REMARK  Name = 11326715
REMARK  9 active torsions:
REMARK  status: ('A' for Active; 'I' for Inactive)
REMARK    1  A    between atoms: N_2  and  C_5
REMARK    2  A    between atoms: C_3  and  C_17
REMARK    3  A    between atoms: C_7  and  C_14
REMARK    4  A    between atoms: C_9  and  C_16
REMARK    5  A    between atoms: C_17  and  O_19
REMARK    6  A    between atoms: C_17  and  C_21
REMARK    7  A    between atoms: C_21  and  O_22
REMARK    8  A    between atoms: O_22  and  C_23
REMARK    9  A    between atoms: C_28  and  C_30
REMARK                            x       y       z     vdW  Elec       q    Type
REMARK                         _______ _______ _______ _____ _____    ______ ____
ROOT
ATOM      1  O   UNL     1      33.166 -19.616 -20.614  0.00  0.00    -0.272 OA
ATOM      2  N   UNL     1      35.293 -20.227 -19.847  0.00  0.00    -0.282 N 
ATOM      3  C   UNL     1      34.393 -19.584 -20.690  0.00  0.00    +0.254 C 
ATOM      4  H   UNL     1      36.246 -20.096 -20.050  0.00  0.00    +0.155 HD
ENDROOT
BRANCH   2   5
ATOM      5  C   UNL     1      34.998 -21.047 -18.732  0.00  0.00    +0.050 C 
ATOM      6  C   UNL     1      35.987 -21.301 -17.797  0.00  0.00    +0.019 C 
ATOM      7  C   UNL     1      35.696 -22.109 -16.698  0.00  0.00    +0.082 C 
ATOM      8  C   UNL     1      33.725 -21.580 -18.601  0.00  0.00    +0.015 C 
ATOM      9  C   UNL     1      34.420 -22.652 -16.550  0.00  0.00    +0.072 C 
ATOM     10  C   UNL     1      33.434 -22.387 -17.501  0.00  0.00    +0.011 C 
BRANCH   7  14
ATOM     11  F   UNL     1      36.558 -21.775 -14.492  0.00  0.00    -0.166 F 
ATOM     12  F   UNL     1      36.946 -23.697 -15.419  0.00  0.00    -0.166 F 
ATOM     13  F   UNL     1      37.994 -21.923 -16.117  0.00  0.00    -0.166 F 
ATOM     14  C   UNL     1      36.776 -22.372 -15.699  0.00  0.00    +0.419 C 
ENDBRANCH   7  14
BRANCH   9  16
ATOM     15  N   UNL     1      33.834 -24.158 -14.525  0.00  0.00    -0.191 NA
ATOM     16  C   UNL     1      34.096 -23.484 -15.432  0.00  0.00    +0.100 C 
ENDBRANCH   9  16
ENDBRANCH   2   5
BRANCH   3  17
ATOM     17  C   UNL     1      35.089 -18.775 -21.801  0.00  0.00    +0.197 C 
ATOM     18  C   UNL     1      36.522 -18.418 -21.401  0.00  0.00    +0.043 C 
BRANCH  17  19
ATOM     19  O   UNL     1      35.155 -19.606 -22.961  0.00  0.00    -0.375 OA
ATOM     20  H   UNL     1      34.275 -19.668 -23.365  0.00  0.00    +0.211 HD
ENDBRANCH  17  19
BRANCH  17  21
ATOM     21  C   UNL     1      34.306 -17.515 -22.190  0.00  0.00    +0.241 C 
BRANCH  21  22
ATOM     22  O   UNL     1      34.672 -16.413 -21.365  0.00  0.00    -0.472 OA
BRANCH  22  23
ATOM     23  C   UNL     1      34.185 -15.186 -21.729  0.00  0.00    +0.139 C 
ATOM     24  C   UNL     1      34.175 -14.816 -23.070  0.00  0.00    +0.038 C 
ATOM     25  C   UNL     1      33.705 -14.318 -20.752  0.00  0.00    +0.038 C 
ATOM     26  C   UNL     1      33.680 -13.566 -23.439  0.00  0.00    +0.013 C 
ATOM     27  C   UNL     1      33.210 -13.068 -21.122  0.00  0.00    +0.013 C 
ATOM     28  C   UNL     1      33.198 -12.691 -22.466  0.00  0.00    +0.069 C 
BRANCH  28  30
ATOM     29  N   UNL     1      32.278 -10.369 -23.153  0.00  0.00    -0.191 NA
ATOM     30  C   UNL     1      32.691 -11.410 -22.844  0.00  0.00    +0.100 C 
ENDBRANCH  28  30
ENDBRANCH  22  23
ENDBRANCH  21  22
ENDBRANCH  17  21
ENDBRANCH   3  17
TORSDOF 9
ENDMDL
MODEL 2
REMARK VINA RESULT:     -11.2      4.117      9.746
REMARK  Name = 11326715
REMARK  9 active torsions:
REMARK  status: ('A' for Active; 'I' for Inactive)
REMARK    1  A    between atoms: N_2  and  C_5
REMARK    2  A    between atoms: C_3  and  C_17
REMARK    3  A    between atoms: C_7  and  C_14
REMARK    4  A    between atoms: C_9  and  C_16
REMARK    5  A    between atoms: C_17  and  O_19
REMARK    6  A    between atoms: C_17  and  C_21
REMARK    7  A    between atoms: C_21  and  O_22
REMARK    8  A    between atoms: O_22  and  C_23
REMARK    9  A    between atoms: C_28  and  C_30
REMARK                            x       y       z     vdW  Elec       q    Type
REMARK                         _______ _______ _______ _____ _____    ______ ____
ROOT
ATOM      1  O   UNL     1      34.789 -16.608 -20.330  0.00  0.00    -0.272 OA
ATOM      2  N   UNL     1      34.747 -16.191 -22.634  0.00  0.00    -0.282 N 
ATOM      3  C   UNL     1      35.031 -16.932 -21.492  0.00  0.00    +0.254 C 
ATOM      4  H   UNL     1      35.008 -16.597 -23.491  0.00  0.00    +0.155 HD
ENDROOT
BRANCH   2   5
ATOM      5  C   UNL     1      34.127 -14.920 -22.709  0.00  0.00    +0.050 C 
ATOM      6  C   UNL     1      33.416 -14.449 -21.619  0.00  0.00    +0.019 C 
ATOM      7  C   UNL     1      32.805 -13.196 -21.692  0.00  0.00    +0.082 C 
ATOM      8  C   UNL     1      34.244 -14.177 -23.873  0.00  0.00    +0.015 C 
ATOM      9  C   UNL     1      32.914 -12.435 -22.856  0.00  0.00    +0.072 C 
ATOM     10  C   UNL     1      33.634 -12.925 -23.946  0.00  0.00    +0.011 C 
BRANCH   7  14
ATOM     11  F   UNL     1      32.652 -11.670 -19.858  0.00  0.00    -0.166 F 
ATOM     12  F   UNL     1      30.793 -12.247 -20.815  0.00  0.00    -0.166 F 
ATOM     13  F   UNL     1      31.858 -13.672 -19.564  0.00  0.00    -0.166 F 
ATOM     14  C   UNL     1      32.041 -12.703 -20.506  0.00  0.00    +0.419 C 
ENDBRANCH   7  14
BRANCH   9  16
ATOM     15  N   UNL     1      31.796 -10.105 -23.038  0.00  0.00    -0.191 NA
ATOM     16  C   UNL     1      32.296 -11.148 -22.957  0.00  0.00    +0.100 C 
ENDBRANCH   9  16
ENDBRANCH   2   5
BRANCH   3  17
ATOM     17  C   UNL     1      35.715 -18.275 -21.806  0.00  0.00    +0.197 C 
ATOM     18  C   UNL     1      35.035 -18.972 -22.987  0.00  0.00    +0.043 C 
BRANCH  17  19
ATOM     19  O   UNL     1      37.062 -17.994 -22.185  0.00  0.00    -0.375 OA
ATOM     20  H   UNL     1      37.540 -17.622 -21.427  0.00  0.00    +0.211 HD
ENDBRANCH  17  19
BRANCH  17  21
ATOM     21  C   UNL     1      35.771 -19.206 -20.589  0.00  0.00    +0.241 C 
BRANCH  21  22
ATOM     22  O   UNL     1      34.719 -20.167 -20.634  0.00  0.00    -0.472 OA
BRANCH  22  23
ATOM     23  C   UNL     1      34.489 -20.879 -19.487  0.00  0.00    +0.139 C 
ATOM     24  C   UNL     1      33.215 -21.370 -19.223  0.00  0.00    +0.038 C 
ATOM     25  C   UNL     1      35.532 -21.102 -18.593  0.00  0.00    +0.038 C 
ATOM     26  C   UNL     1      32.980 -22.093 -18.054  0.00  0.00    +0.013 C 
ATOM     27  C   UNL     1      35.297 -21.826 -17.424  0.00  0.00    +0.013 C 
ATOM     28  C   UNL     1      34.021 -22.321 -17.154  0.00  0.00    +0.069 C 
BRANCH  28  30
ATOM     29  N   UNL     1      33.584 -23.664 -14.983  0.00  0.00    -0.191 NA
ATOM     30  C   UNL     1      33.780 -23.062 -15.956  0.00  0.00    +0.100 C 
ENDBRANCH  28  30
ENDBRANCH  22  23
ENDBRANCH  21  22
ENDBRANCH  17  21
ENDBRANCH   3  17
TORSDOF 9
ENDMDL
MODEL 3
REMARK VINA RESULT:     -11.0      5.016      9.956
REMARK  Name = 11326715
REMARK  9 active torsions:
REMARK  status: ('A' for Active; 'I' for Inactive)
REMARK    1  A    between atoms: N_2  and  C_5
REMARK    2  A    between atoms: C_3  and  C_17
REMARK    3  A    between atoms: C_7  and  C_14
REMARK    4  A    between atoms: C_9  and  C_16
REMARK    5  A    between atoms: C_17  and  O_19
REMARK    6  A    between atoms: C_17  and  C_21
REMARK    7  A    between atoms: C_21  and  O_22
REMARK    8  A    between atoms: O_22  and  C_23
REMARK    9  A    between atoms: C_28  and  C_30
REMARK                            x       y       z     vdW  Elec       q    Type
REMARK                         _______ _______ _______ _____ _____    ______ ____
ROOT
ATOM      1  O   UNL     1      34.324 -16.478 -23.309  0.00  0.00    -0.272 OA
ATOM      2  N   UNL     1      34.227 -15.660 -21.116  0.00  0.00    -0.282 N 
ATOM      3  C   UNL     1      34.579 -16.568 -22.109  0.00  0.00    +0.254 C 
ATOM      4  H   UNL     1      34.512 -15.885 -20.202  0.00  0.00    +0.155 HD
ENDROOT
BRANCH   2   5
ATOM      5  C   UNL     1      33.509 -14.450 -21.267  0.00  0.00    +0.050 C 
ATOM      6  C   UNL     1      33.681 -13.698 -22.416  0.00  0.00    +0.019 C 
ATOM      7  C   UNL     1      32.973 -12.505 -22.565  0.00  0.00    +0.082 C 
ATOM      8  C   UNL     1      32.649 -14.043 -20.259  0.00  0.00    +0.015 C 
ATOM      9  C   UNL     1      32.102 -12.082 -21.560  0.00  0.00    +0.072 C 
ATOM     10  C   UNL     1      31.940 -12.851 -20.408  0.00  0.00    +0.011 C 
BRANCH   7  14
ATOM     11  F   UNL     1      32.027 -11.132 -24.278  0.00  0.00    -0.166 F 
ATOM     12  F   UNL     1      34.056 -10.678 -23.663  0.00  0.00    -0.166 F 
ATOM     13  F   UNL     1      33.653 -12.460 -24.843  0.00  0.00    -0.166 F 
ATOM     14  C   UNL     1      33.172 -11.707 -23.813  0.00  0.00    +0.419 C 
ENDBRANCH   7  14
BRANCH   9  16
ATOM     15  N   UNL     1      30.765  -9.875 -21.791  0.00  0.00    -0.191 NA
ATOM     16  C   UNL     1      31.364 -10.862 -21.688  0.00  0.00    +0.100 C 
ENDBRANCH   9  16
ENDBRANCH   2   5
BRANCH   3  17
ATOM     17  C   UNL     1      35.364 -17.776 -21.563  0.00  0.00    +0.197 C 
ATOM     18  C   UNL     1      36.665 -17.980 -22.342  0.00  0.00    +0.043 C 
BRANCH  17  19
ATOM     19  O   UNL     1      35.709 -17.487 -20.208  0.00  0.00    -0.375 OA
ATOM     20  H   UNL     1      35.113 -16.805 -19.860  0.00  0.00    +0.211 HD
ENDBRANCH  17  19
BRANCH  17  21
ATOM     21  C   UNL     1      34.531 -19.063 -21.553  0.00  0.00    +0.241 C 
BRANCH  21  22
ATOM     22  O   UNL     1      35.158 -20.069 -20.762  0.00  0.00    -0.472 OA
BRANCH  22  23
ATOM     23  C   UNL     1      34.376 -20.685 -19.822  0.00  0.00    +0.139 C 
ATOM     24  C   UNL     1      34.967 -21.485 -18.849  0.00  0.00    +0.038 C 
ATOM     25  C   UNL     1      32.996 -20.508 -19.849  0.00  0.00    +0.038 C 
ATOM     26  C   UNL     1      34.170 -22.113 -17.893  0.00  0.00    +0.013 C 
ATOM     27  C   UNL     1      32.199 -21.137 -18.892  0.00  0.00    +0.013 C 
ATOM     28  C   UNL     1      32.786 -21.940 -17.914  0.00  0.00    +0.069 C 
BRANCH  28  30
ATOM     29  N   UNL     1      31.306 -23.108 -16.137  0.00  0.00    -0.191 NA
ATOM     30  C   UNL     1      31.970 -22.585 -16.933  0.00  0.00    +0.100 C 
ENDBRANCH  28  30
ENDBRANCH  22  23
ENDBRANCH  21  22
ENDBRANCH  17  21
ENDBRANCH   3  17
TORSDOF 9
ENDMDL
MODEL 4
REMARK VINA RESULT:     -11.0      3.681      4.916
REMARK  Name = 11326715
REMARK  9 active torsions:
REMARK  status: ('A' for Active; 'I' for Inactive)
REMARK    1  A    between atoms: N_2  and  C_5
REMARK    2  A    between atoms: C_3  and  C_17
REMARK    3  A    between atoms: C_7  and  C_14
REMARK    4  A    between atoms: C_9  and  C_16
REMARK    5  A    between atoms: C_17  and  O_19
REMARK    6  A    between atoms: C_17  and  C_21
REMARK    7  A    between atoms: C_21  and  O_22
REMARK    8  A    between atoms: O_22  and  C_23
REMARK    9  A    between atoms: C_28  and  C_30
REMARK                            x       y       z     vdW  Elec       q    Type
REMARK                         _______ _______ _______ _____ _____    ______ ____
ROOT
ATOM      1  O   UNL     1      32.177 -21.134 -18.688  0.00  0.00    -0.272 OA
ATOM      2  N   UNL     1      33.682 -22.340 -17.359  0.00  0.00    -0.282 N 
ATOM      3  C   UNL     1      33.296 -21.592 -18.467  0.00  0.00    +0.254 C 
ATOM      4  H   UNL     1      34.622 -22.631 -17.338  0.00  0.00    +0.155 HD
ENDROOT
BRANCH   2   5
ATOM      5  C   UNL     1      32.882 -22.731 -16.259  0.00  0.00    +0.050 C 
ATOM      6  C   UNL     1      31.504 -22.657 -16.363  0.00  0.00    +0.019 C 
ATOM      7  C   UNL     1      30.716 -23.042 -15.278  0.00  0.00    +0.082 C 
ATOM      8  C   UNL     1      33.497 -23.177 -15.099  0.00  0.00    +0.015 C 
ATOM      9  C   UNL     1      31.318 -23.495 -14.104  0.00  0.00    +0.072 C 
ATOM     10  C   UNL     1      32.709 -23.563 -14.015  0.00  0.00    +0.011 C 
BRANCH   7  14
ATOM     11  F   UNL     1      28.592 -24.134 -15.151  0.00  0.00    -0.166 F 
ATOM     12  F   UNL     1      28.662 -22.047 -14.563  0.00  0.00    -0.166 F 
ATOM     13  F   UNL     1      28.836 -22.590 -16.663  0.00  0.00    -0.166 F 
ATOM     14  C   UNL     1      29.229 -22.956 -15.409  0.00  0.00    +0.419 C 
ENDBRANCH   7  14
BRANCH   9  16
ATOM     15  N   UNL     1      29.896 -24.222 -12.065  0.00  0.00    -0.191 NA
ATOM     16  C   UNL     1      30.532 -23.896 -12.978  0.00  0.00    +0.100 C 
ENDBRANCH   9  16
ENDBRANCH   2   5
BRANCH   3  17
ATOM     17  C   UNL     1      34.448 -21.365 -19.464  0.00  0.00    +0.197 C 
ATOM     18  C   UNL     1      35.688 -20.820 -18.752  0.00  0.00    +0.043 C 
BRANCH  17  19
ATOM     19  O   UNL     1      34.790 -22.633 -20.023  0.00  0.00    -0.375 OA
ATOM     20  H   UNL     1      35.707 -22.852 -19.794  0.00  0.00    +0.211 HD
ENDBRANCH  17  19
BRANCH  17  21
ATOM     21  C   UNL     1      34.047 -20.450 -20.627  0.00  0.00    +0.241 C 
BRANCH  21  22
ATOM     22  O   UNL     1      34.855 -19.277 -20.655  0.00  0.00    -0.472 OA
BRANCH  22  23
ATOM     23  C   UNL     1      34.588 -18.370 -21.646  0.00  0.00    +0.139 C 
ATOM     24  C   UNL     1      34.856 -17.021 -21.438  0.00  0.00    +0.038 C 
ATOM     25  C   UNL     1      34.048 -18.807 -22.852  0.00  0.00    +0.038 C 
ATOM     26  C   UNL     1      34.582 -16.099 -22.447  0.00  0.00    +0.013 C 
ATOM     27  C   UNL     1      33.774 -17.883 -23.861  0.00  0.00    +0.013 C 
ATOM     28  C   UNL     1      34.041 -16.529 -23.658  0.00  0.00    +0.069 C 
BRANCH  28  30
ATOM     29  N   UNL     1      33.533 -14.814 -25.532  0.00  0.00    -0.191 NA
ATOM     30  C   UNL     1      33.760 -15.583 -24.692  0.00  0.00    +0.100 C 
ENDBRANCH  28  30
ENDBRANCH  22  23
ENDBRANCH  21  22
ENDBRANCH  17  21
ENDBRANCH   3  17
TORSDOF 9
ENDMDL
MODEL 5
REMARK VINA RESULT:     -10.8      2.715      4.222
REMARK  Name = 11326715
REMARK  9 active torsions:
REMARK  status: ('A' for Active; 'I' for Inactive)
REMARK    1  A    between atoms: N_2  and  C_5
REMARK    2  A    between atoms: C_3  and  C_17
REMARK    3  A    between atoms: C_7  and  C_14
REMARK    4  A    between atoms: C_9  and  C_16
REMARK    5  A    between atoms: C_17  and  O_19
REMARK    6  A    between atoms: C_17  and  C_21
REMARK    7  A    between atoms: C_21  and  O_22
REMARK    8  A    between atoms: O_22  and  C_23
REMARK    9  A    between atoms: C_28  and  C_30
REMARK                            x       y       z     vdW  Elec       q    Type
REMARK                         _______ _______ _______ _____ _____    ______ ____
ROOT
ATOM      1  O   UNL     1      35.956 -21.287 -17.381  0.00  0.00    -0.272 OA
ATOM      2  N   UNL     1      34.067 -22.579 -16.882  0.00  0.00    -0.282 N 
ATOM      3  C   UNL     1      34.873 -21.782 -17.688  0.00  0.00    +0.254 C 
ATOM      4  H   UNL     1      33.227 -22.895 -17.285  0.00  0.00    +0.155 HD
ENDROOT
BRANCH   2   5
ATOM      5  C   UNL     1      34.314 -22.988 -15.549  0.00  0.00    +0.050 C 
ATOM      6  C   UNL     1      35.604 -23.313 -15.168  0.00  0.00    +0.019 C 
ATOM      7  C   UNL     1      35.847 -23.716 -13.855  0.00  0.00    +0.082 C 
ATOM      8  C   UNL     1      33.256 -23.056 -14.655  0.00  0.00    +0.015 C 
ATOM      9  C   UNL     1      34.794 -23.789 -12.942  0.00  0.00    +0.072 C 
ATOM     10  C   UNL     1      33.499 -23.459 -13.343  0.00  0.00    +0.011 C 
BRANCH   7  14
ATOM     11  F   UNL     1      37.396 -25.361 -13.072  0.00  0.00    -0.166 F 
ATOM     12  F   UNL     1      38.153 -23.881 -14.465  0.00  0.00    -0.166 F 
ATOM     13  F   UNL     1      37.696 -23.310 -12.416  0.00  0.00    -0.166 F 
ATOM     14  C   UNL     1      37.246 -24.062 -13.461  0.00  0.00    +0.419 C 
ENDBRANCH   7  14
BRANCH   9  16
ATOM     15  N   UNL     1      35.196 -24.534 -10.493  0.00  0.00    -0.191 NA
ATOM     16  C   UNL     1      35.016 -24.200 -11.589  0.00  0.00    +0.100 C 
ENDBRANCH   9  16
ENDBRANCH   2   5
BRANCH   3  17
ATOM     17  C   UNL     1      34.273 -21.549 -19.088  0.00  0.00    +0.197 C 
ATOM     18  C   UNL     1      33.732 -22.855 -19.675  0.00  0.00    +0.043 C 
BRANCH  17  19
ATOM     19  O   UNL     1      33.173 -20.651 -18.939  0.00  0.00    -0.375 OA
ATOM     20  H   UNL     1      32.345 -21.118 -19.133  0.00  0.00    +0.211 HD
ENDBRANCH  17  19
BRANCH  17  21
ATOM     21  C   UNL     1      35.267 -20.893 -20.053  0.00  0.00    +0.241 C 
BRANCH  21  22
ATOM     22  O   UNL     1      35.269 -19.477 -19.898  0.00  0.00    -0.472 OA
BRANCH  22  23
ATOM     23  C   UNL     1      34.920 -18.738 -20.997  0.00  0.00    +0.139 C 
ATOM     24  C   UNL     1      35.156 -17.367 -21.011  0.00  0.00    +0.038 C 
ATOM     25  C   UNL     1      34.332 -19.366 -22.091  0.00  0.00    +0.038 C 
ATOM     26  C   UNL     1      34.799 -16.616 -22.130  0.00  0.00    +0.013 C 
ATOM     27  C   UNL     1      33.976 -18.614 -23.210  0.00  0.00    +0.013 C 
ATOM     28  C   UNL     1      34.209 -17.238 -23.230  0.00  0.00    +0.069 C 
BRANCH  28  30
ATOM     29  N   UNL     1      33.548 -15.841 -25.309  0.00  0.00    -0.191 NA
ATOM     30  C   UNL     1      33.845 -16.467 -24.377  0.00  0.00    +0.100 C 
ENDBRANCH  28  30
ENDBRANCH  22  23
ENDBRANCH  21  22
ENDBRANCH  17  21
ENDBRANCH   3  17
TORSDOF 9
ENDMDL
MODEL 6
REMARK VINA RESULT:     -10.6      4.958     10.228
REMARK  Name = 11326715
REMARK  9 active torsions:
REMARK  status: ('A' for Active; 'I' for Inactive)
REMARK    1  A    between atoms: N_2  and  C_5
REMARK    2  A    between atoms: C_3  and  C_17
REMARK    3  A    between atoms: C_7  and  C_14
REMARK    4  A    between atoms: C_9  and  C_16
REMARK    5  A    between atoms: C_17  and  O_19
REMARK    6  A    between atoms: C_17  and  C_21
REMARK    7  A    between atoms: C_21  and  O_22
REMARK    8  A    between atoms: O_22  and  C_23
REMARK    9  A    between atoms: C_28  and  C_30
REMARK                            x       y       z     vdW  Elec       q    Type
REMARK                         _______ _______ _______ _____ _____    ______ ____
ROOT
ATOM      1  O   UNL     1      34.953 -16.807 -20.227  0.00  0.00    -0.272 OA
ATOM      2  N   UNL     1      34.849 -16.430 -22.536  0.00  0.00    -0.282 N 
ATOM      3  C   UNL     1      35.166 -17.150 -21.389  0.00  0.00    +0.254 C 
ATOM      4  H   UNL     1      35.089 -16.851 -23.392  0.00  0.00    +0.155 HD
ENDROOT
BRANCH   2   5
ATOM      5  C   UNL     1      34.220 -15.165 -22.617  0.00  0.00    +0.050 C 
ATOM      6  C   UNL     1      33.847 -14.671 -23.855  0.00  0.00    +0.019 C 
ATOM      7  C   UNL     1      33.227 -13.424 -23.935  0.00  0.00    +0.082 C 
ATOM      8  C   UNL     1      33.993 -14.446 -21.454  0.00  0.00    +0.015 C 
ATOM      9  C   UNL     1      32.990 -12.688 -22.774  0.00  0.00    +0.072 C 
ATOM     10  C   UNL     1      33.373 -13.199 -21.533  0.00  0.00    +0.011 C 
BRANCH   7  14
ATOM     11  F   UNL     1      33.107 -13.773 -26.297  0.00  0.00    -0.166 F 
ATOM     12  F   UNL     1      31.498 -12.639 -25.388  0.00  0.00    -0.166 F 
ATOM     13  F   UNL     1      33.470 -11.745 -25.601  0.00  0.00    -0.166 F 
ATOM     14  C   UNL     1      32.832 -12.907 -25.280  0.00  0.00    +0.419 C 
ENDBRANCH   7  14
BRANCH   9  16
ATOM     15  N   UNL     1      31.845 -10.366 -22.872  0.00  0.00    -0.191 NA
ATOM     16  C   UNL     1      32.357 -11.406 -22.828  0.00  0.00    +0.100 C 
ENDBRANCH   9  16
ENDBRANCH   2   5
BRANCH   3  17
ATOM     17  C   UNL     1      35.848 -18.495 -21.697  0.00  0.00    +0.197 C 
ATOM     18  C   UNL     1      35.143 -19.214 -22.850  0.00  0.00    +0.043 C 
BRANCH  17  19
ATOM     19  O   UNL     1      37.185 -18.215 -22.113  0.00  0.00    -0.375 OA
ATOM     20  H   UNL     1      37.208 -18.107 -23.077  0.00  0.00    +0.211 HD
ENDBRANCH  17  19
BRANCH  17  21
ATOM     21  C   UNL     1      35.938 -19.406 -20.467  0.00  0.00    +0.241 C 
BRANCH  21  22
ATOM     22  O   UNL     1      34.842 -20.315 -20.424  0.00  0.00    -0.472 OA
BRANCH  22  23
ATOM     23  C   UNL     1      34.665 -21.009 -19.257  0.00  0.00    +0.139 C 
ATOM     24  C   UNL     1      33.429 -21.580 -18.974  0.00  0.00    +0.038 C 
ATOM     25  C   UNL     1      35.725 -21.136 -18.364  0.00  0.00    +0.038 C 
ATOM     26  C   UNL     1      33.249 -22.285 -17.784  0.00  0.00    +0.013 C 
ATOM     27  C   UNL     1      35.544 -21.843 -17.175  0.00  0.00    +0.013 C 
ATOM     28  C   UNL     1      34.306 -22.417 -16.884  0.00  0.00    +0.069 C 
BRANCH  28  30
ATOM     29  N   UNL     1      33.972 -23.728 -14.676  0.00  0.00    -0.191 NA
ATOM     30  C   UNL     1      34.121 -23.140 -15.666  0.00  0.00    +0.100 C 
ENDBRANCH  28  30
ENDBRANCH  22  23
ENDBRANCH  21  22
ENDBRANCH  17  21
ENDBRANCH   3  17
TORSDOF 9
ENDMDL
MODEL 7
REMARK VINA RESULT:     -10.6      4.101      9.746
REMARK  Name = 11326715
REMARK  9 active torsions:
REMARK  status: ('A' for Active; 'I' for Inactive)
REMARK    1  A    between atoms: N_2  and  C_5
REMARK    2  A    between atoms: C_3  and  C_17
REMARK    3  A    between atoms: C_7  and  C_14
REMARK    4  A    between atoms: C_9  and  C_16
REMARK    5  A    between atoms: C_17  and  O_19
REMARK    6  A    between atoms: C_17  and  C_21
REMARK    7  A    between atoms: C_21  and  O_22
REMARK    8  A    between atoms: O_22  and  C_23
REMARK    9  A    between atoms: C_28  and  C_30
REMARK                            x       y       z     vdW  Elec       q    Type
REMARK                         _______ _______ _______ _____ _____    ______ ____
ROOT
ATOM      1  O   UNL     1      32.893 -20.097 -20.347  0.00  0.00    -0.272 OA
ATOM      2  N   UNL     1      34.953 -19.290 -21.114  0.00  0.00    -0.282 N 
ATOM      3  C   UNL     1      34.123 -20.099 -20.346  0.00  0.00    +0.254 C 
ATOM      4  H   UNL     1      35.920 -19.420 -20.992  0.00  0.00    +0.155 HD
ENDROOT
BRANCH   2   5
ATOM      5  C   UNL     1      34.570 -18.301 -22.051  0.00  0.00    +0.050 C 
ATOM      6  C   UNL     1      34.436 -16.987 -21.634  0.00  0.00    +0.019 C 
ATOM      7  C   UNL     1      34.058 -16.013 -22.558  0.00  0.00    +0.082 C 
ATOM      8  C   UNL     1      34.335 -18.669 -23.367  0.00  0.00    +0.015 C 
ATOM      9  C   UNL     1      33.819 -16.366 -23.886  0.00  0.00    +0.072 C 
ATOM     10  C   UNL     1      33.957 -17.695 -24.290  0.00  0.00    +0.011 C 
BRANCH   7  14
ATOM     11  F   UNL     1      32.625 -14.176 -22.019  0.00  0.00    -0.166 F 
ATOM     12  F   UNL     1      34.436 -14.388 -20.844  0.00  0.00    -0.166 F 
ATOM     13  F   UNL     1      34.555 -13.714 -22.909  0.00  0.00    -0.166 F 
ATOM     14  C   UNL     1      33.919 -14.600 -22.090  0.00  0.00    +0.419 C 
ENDBRANCH   7  14
BRANCH   9  16
ATOM     15  N   UNL     1      33.114 -14.591 -25.636  0.00  0.00    -0.191 NA
ATOM     16  C   UNL     1      33.430 -15.386 -24.853  0.00  0.00    +0.100 C 
ENDBRANCH   9  16
ENDBRANCH   2   5
BRANCH   3  17
ATOM     17  C   UNL     1      34.906 -21.062 -19.434  0.00  0.00    +0.197 C 
ATOM     18  C   UNL     1      35.954 -21.841 -20.233  0.00  0.00    +0.043 C 
BRANCH  17  19
ATOM     19  O   UNL     1      35.596 -20.272 -18.466  0.00  0.00    -0.375 OA
ATOM     20  H   UNL     1      35.904 -19.450 -18.879  0.00  0.00    +0.211 HD
ENDBRANCH  17  19
BRANCH  17  21
ATOM     21  C   UNL     1      33.989 -22.022 -18.666  0.00  0.00    +0.241 C 
BRANCH  21  22
ATOM     22  O   UNL     1      34.565 -22.384 -17.414  0.00  0.00    -0.472 OA
BRANCH  22  23
ATOM     23  C   UNL     1      33.694 -22.731 -16.416  0.00  0.00    +0.139 C 
ATOM     24  C   UNL     1      32.330 -22.795 -16.681  0.00  0.00    +0.038 C 
ATOM     25  C   UNL     1      34.182 -23.013 -15.143  0.00  0.00    +0.038 C 
ATOM     26  C   UNL     1      31.444 -23.147 -15.663  0.00  0.00    +0.013 C 
ATOM     27  C   UNL     1      33.295 -23.365 -14.126  0.00  0.00    +0.013 C 
ATOM     28  C   UNL     1      31.925 -23.431 -14.386  0.00  0.00    +0.069 C 
BRANCH  28  30
ATOM     29  N   UNL     1      30.278 -24.085 -12.496  0.00  0.00    -0.191 NA
ATOM     30  C   UNL     1      31.017 -23.792 -13.343  0.00  0.00    +0.100 C 
ENDBRANCH  28  30
ENDBRANCH  22  23
ENDBRANCH  21  22
ENDBRANCH  17  21
ENDBRANCH   3  17
TORSDOF 9
ENDMDL
MODEL 8
REMARK VINA RESULT:     -10.6      4.650      6.970
REMARK  Name = 11326715
REMARK  9 active torsions:
REMARK  status: ('A' for Active; 'I' for Inactive)
REMARK    1  A    between atoms: N_2  and  C_5
REMARK    2  A    between atoms: C_3  and  C_17
REMARK    3  A    between atoms: C_7  and  C_14
REMARK    4  A    between atoms: C_9  and  C_16
REMARK    5  A    between atoms: C_17  and  O_19
REMARK    6  A    between atoms: C_17  and  C_21
REMARK    7  A    between atoms: C_21  and  O_22
REMARK    8  A    between atoms: O_22  and  C_23
REMARK    9  A    between atoms: C_28  and  C_30
REMARK                            x       y       z     vdW  Elec       q    Type
REMARK                         _______ _______ _______ _____ _____    ______ ____
ROOT
ATOM      1  O   UNL     1      35.440 -24.670 -15.375  0.00  0.00    -0.272 OA
ATOM      2  N   UNL     1      34.161 -22.753 -14.958  0.00  0.00    -0.282 N 
ATOM      3  C   UNL     1      35.325 -23.451 -15.262  0.00  0.00    +0.254 C 
ATOM      4  H   UNL     1      34.243 -21.774 -14.904  0.00  0.00    +0.155 HD
ENDROOT
BRANCH   2   5
ATOM      5  C   UNL     1      32.872 -23.286 -14.717  0.00  0.00    +0.050 C 
ATOM      6  C   UNL     1      31.790 -22.787 -15.422  0.00  0.00    +0.019 C 
ATOM      7  C   UNL     1      30.519 -23.312 -15.184  0.00  0.00    +0.082 C 
ATOM      8  C   UNL     1      32.720 -24.295 -13.778  0.00  0.00    +0.015 C 
ATOM      9  C   UNL     1      30.350 -24.329 -14.243  0.00  0.00    +0.072 C 
ATOM     10  C   UNL     1      31.451 -24.820 -13.541  0.00  0.00    +0.011 C 
BRANCH   7  14
ATOM     11  F   UNL     1      28.594 -23.722 -16.541  0.00  0.00    -0.166 F 
ATOM     12  F   UNL     1      28.501 -22.029 -15.190  0.00  0.00    -0.166 F 
ATOM     13  F   UNL     1      29.756 -21.934 -16.965  0.00  0.00    -0.166 F 
ATOM     14  C   UNL     1      29.363 -22.761 -15.954  0.00  0.00    +0.419 C 
ENDBRANCH   7  14
BRANCH   9  16
ATOM     15  N   UNL     1      28.010 -25.335 -13.769  0.00  0.00    -0.191 NA
ATOM     16  C   UNL     1      29.057 -24.884 -13.981  0.00  0.00    +0.100 C 
ENDBRANCH   9  16
ENDBRANCH   2   5
BRANCH   3  17
ATOM     17  C   UNL     1      36.541 -22.526 -15.459  0.00  0.00    +0.197 C 
ATOM     18  C   UNL     1      36.774 -21.658 -14.220  0.00  0.00    +0.043 C 
BRANCH  17  19
ATOM     19  O   UNL     1      37.689 -23.356 -15.631  0.00  0.00    -0.375 OA
ATOM     20  H   UNL     1      37.510 -24.237 -15.265  0.00  0.00    +0.211 HD
ENDBRANCH  17  19
BRANCH  17  21
ATOM     21  C   UNL     1      36.420 -21.654 -16.714  0.00  0.00    +0.241 C 
BRANCH  21  22
ATOM     22  O   UNL     1      35.279 -22.024 -17.484  0.00  0.00    -0.472 OA
BRANCH  22  23
ATOM     23  C   UNL     1      35.017 -21.268 -18.595  0.00  0.00    +0.139 C 
ATOM     24  C   UNL     1      36.060 -20.632 -19.259  0.00  0.00    +0.038 C 
ATOM     25  C   UNL     1      33.707 -21.142 -19.050  0.00  0.00    +0.038 C 
ATOM     26  C   UNL     1      35.792 -19.861 -20.390  0.00  0.00    +0.013 C 
ATOM     27  C   UNL     1      33.441 -20.372 -20.182  0.00  0.00    +0.013 C 
ATOM     28  C   UNL     1      34.483 -19.730 -20.851  0.00  0.00    +0.069 C 
BRANCH  28  30
ATOM     29  N   UNL     1      33.987 -18.299 -22.953  0.00  0.00    -0.191 NA
ATOM     30  C   UNL     1      34.209 -18.941 -22.011  0.00  0.00    +0.100 C 
ENDBRANCH  28  30
ENDBRANCH  22  23
ENDBRANCH  21  22
ENDBRANCH  17  21
ENDBRANCH   3  17
TORSDOF 9
ENDMDL
MODEL 9
REMARK VINA RESULT:     -10.4      7.100     12.982
REMARK  Name = 11326715
REMARK  9 active torsions:
REMARK  status: ('A' for Active; 'I' for Inactive)
REMARK    1  A    between atoms: N_2  and  C_5
REMARK    2  A    between atoms: C_3  and  C_17
REMARK    3  A    between atoms: C_7  and  C_14
REMARK    4  A    between atoms: C_9  and  C_16
REMARK    5  A    between atoms: C_17  and  O_19
REMARK    6  A    between atoms: C_17  and  C_21
REMARK    7  A    between atoms: C_21  and  O_22
REMARK    8  A    between atoms: O_22  and  C_23
REMARK    9  A    between atoms: C_28  and  C_30
REMARK                            x       y       z     vdW  Elec       q    Type
REMARK                         _______ _______ _______ _____ _____    ______ ____
ROOT
ATOM      1  O   UNL     1      33.398 -10.277 -23.618  0.00  0.00    -0.272 OA
ATOM      2  N   UNL     1      31.410  -9.920 -22.433  0.00  0.00    -0.282 N 
ATOM      3  C   UNL     1      32.472 -10.678 -22.914  0.00  0.00    +0.254 C 
ATOM      4  H   UNL     1      30.751 -10.398 -21.881  0.00  0.00    +0.155 HD
ENDROOT
BRANCH   2   5
ATOM      5  C   UNL     1      31.166  -8.542 -22.643  0.00  0.00    +0.050 C 
ATOM      6  C   UNL     1      31.305  -7.660 -21.585  0.00  0.00    +0.019 C 
ATOM      7  C   UNL     1      31.065  -6.301 -21.792  0.00  0.00    +0.082 C 
ATOM      8  C   UNL     1      30.791  -8.105 -23.904  0.00  0.00    +0.015 C 
ATOM      9  C   UNL     1      30.688  -5.845 -23.056  0.00  0.00    +0.072 C 
ATOM     10  C   UNL     1      30.551  -6.747 -24.111  0.00  0.00    +0.011 C 
BRANCH   7  14
ATOM     11  F   UNL     1      32.141  -4.382 -20.856  0.00  0.00    -0.166 F 
ATOM     12  F   UNL     1      30.067  -4.711 -20.311  0.00  0.00    -0.166 F 
ATOM     13  F   UNL     1      31.621  -6.000 -19.500  0.00  0.00    -0.166 F 
ATOM     14  C   UNL     1      31.220  -5.364 -20.638  0.00  0.00    +0.419 C 
ENDBRANCH   7  14
BRANCH   9  16
ATOM     15  N   UNL     1      30.229  -3.332 -23.489  0.00  0.00    -0.191 NA
ATOM     16  C   UNL     1      30.435  -4.457 -23.294  0.00  0.00    +0.100 C 
ENDBRANCH   9  16
ENDBRANCH   2   5
BRANCH   3  17
ATOM     17  C   UNL     1      32.401 -12.152 -22.475  0.00  0.00    +0.197 C 
ATOM     18  C   UNL     1      31.747 -12.282 -21.098  0.00  0.00    +0.043 C 
BRANCH  17  19
ATOM     19  O   UNL     1      31.576 -12.842 -23.415  0.00  0.00    -0.375 OA
ATOM     20  H   UNL     1      31.277 -12.222 -24.098  0.00  0.00    +0.211 HD
ENDBRANCH  17  19
BRANCH  17  21
ATOM     21  C   UNL     1      33.773 -12.837 -22.489  0.00  0.00    +0.241 C 
BRANCH  21  22
ATOM     22  O   UNL     1      33.755 -13.998 -23.315  0.00  0.00    -0.472 OA
BRANCH  22  23
ATOM     23  C   UNL     1      34.102 -15.181 -22.719  0.00  0.00    +0.139 C 
ATOM     24  C   UNL     1      34.377 -16.295 -23.505  0.00  0.00    +0.038 C 
ATOM     25  C   UNL     1      34.174 -15.258 -21.331  0.00  0.00    +0.038 C 
ATOM     26  C   UNL     1      34.729 -17.500 -22.897  0.00  0.00    +0.013 C 
ATOM     27  C   UNL     1      34.527 -16.464 -20.724  0.00  0.00    +0.013 C 
ATOM     28  C   UNL     1      34.803 -17.585 -21.507  0.00  0.00    +0.069 C 
BRANCH  28  30
ATOM     29  N   UNL     1      35.458 -19.823 -20.379  0.00  0.00    -0.191 NA
ATOM     30  C   UNL     1      35.164 -18.820 -20.885  0.00  0.00    +0.100 C 
ENDBRANCH  28  30
ENDBRANCH  22  23
ENDBRANCH  21  22
ENDBRANCH  17  21
ENDBRANCH   3  17
TORSDOF 9
ENDMDL
