MODEL 1
REMARK VINA RESULT:     -12.4      0.000      0.000
REMARK  Name = 5289411
REMARK  6 active torsions:
REMARK  status: ('A' for Active; 'I' for Inactive)
REMARK    1  A    between atoms: N_3  and  C_9
REMARK    2  A    between atoms: C_4  and  O_25
REMARK    3  A    between atoms: C_5  and  N_24
REMARK    4  A    between atoms: C_12  and  C_17
REMARK    5  A    between atoms: O_25  and  C_26
REMARK    6  A    between atoms: C_26  and  C_27
REMARK                            x       y       z     vdW  Elec       q    Type
REMARK                         _______ _______ _______ _____ _____    ______ ____
ROOT
ATOM      1  N   UNL     1      34.497 -22.700 -17.247  0.00  0.00    -0.293 NA
ATOM      2  N   UNL     1      32.406 -22.832 -16.055  0.00  0.00    -0.316 NA
ATOM      3  N   UNL     1      34.398 -23.605 -15.085  0.00  0.00    -0.238 N 
ATOM      4  C   UNL     1      33.829 -22.140 -18.277  0.00  0.00    +0.292 C 
ATOM      5  C   UNL     1      32.472 -21.898 -18.273  0.00  0.00    +0.261 C 
ATOM      6  C   UNL     1      31.804 -22.268 -17.123  0.00  0.00    +0.196 C 
ATOM      7  C   UNL     1      33.734 -23.017 -16.183  0.00  0.00    +0.207 C 
ATOM      8  H   UNL     1      33.802 -23.820 -14.331  0.00  0.00    +0.166 HD
ATOM      9  N   UNL     1      30.405 -22.051 -17.041  0.00  0.00    -0.334 N 
ATOM     10  H   UNL     1      29.914 -22.310 -16.228  0.00  0.00    +0.144 HD
ATOM     11  H   UNL     1      29.926 -21.642 -17.797  0.00  0.00    +0.144 HD
ENDROOT
BRANCH   3  12
ATOM     12  C   UNL     1      35.744 -23.944 -14.856  0.00  0.00    +0.058 C 
ATOM     13  C   UNL     1      36.083 -25.240 -14.462  0.00  0.00    +0.015 C 
ATOM     14  C   UNL     1      36.746 -22.985 -15.019  0.00  0.00    +0.015 C 
ATOM     15  C   UNL     1      38.416 -24.615 -14.397  0.00  0.00    +0.053 C 
ATOM     16  C   UNL     1      37.418 -25.575 -14.233  0.00  0.00    +0.006 C 
ATOM     17  C   UNL     1      38.081 -23.320 -14.791  0.00  0.00    +0.006 C 
BRANCH  15  20
ATOM     18  O   UNL     1      40.699 -24.099 -14.138  0.00  0.00    -0.270 OA
ATOM     19  N   UNL     1      40.109 -26.304 -13.929  0.00  0.00    -0.325 N 
ATOM     20  C   UNL     1      39.807 -24.965 -14.157  0.00  0.00    +0.243 C 
ATOM     21  H   UNL     1      41.040 -26.578 -13.763  0.00  0.00    +0.145 HD
ATOM     22  H   UNL     1      39.391 -26.978 -13.934  0.00  0.00    +0.145 HD
ENDBRANCH  15  20
ENDBRANCH   3  12
BRANCH   5  24
ATOM     23  O   UNL     1      31.510 -20.145 -19.162  0.00  0.00    -0.099 OA
ATOM     24  N   UNL     1      31.838 -21.326 -19.349  0.00  0.00    -0.030 NA
ENDBRANCH   5  24
BRANCH   4  25
ATOM     25  O   UNL     1      34.591 -21.811 -19.371  0.00  0.00    -0.453 OA
BRANCH  25  26
ATOM     26  C   UNL     1      35.436 -20.683 -19.251  0.00  0.00    +0.208 C 
BRANCH  26  27
ATOM     27  C   UNL     1      35.517 -19.990 -20.610  0.00  0.00    +0.044 C 
ATOM     28  C   UNL     1      34.127 -19.526 -21.064  0.00  0.00    +0.004 C 
ATOM     29  C   UNL     1      36.498 -18.812 -20.561  0.00  0.00    +0.004 C 
ATOM     30  C   UNL     1      34.188 -18.783 -22.398  0.00  0.00    +0.000 C 
ATOM     31  C   UNL     1      36.556 -18.070 -21.895  0.00  0.00    +0.000 C 
ATOM     32  C   UNL     1      35.171 -17.617 -22.346  0.00  0.00    +0.000 C 
ENDBRANCH  26  27
ENDBRANCH  25  26
ENDBRANCH   4  25
TORSDOF 6
ENDMDL
MODEL 2
REMARK VINA RESULT:     -11.8      2.206      3.030
REMARK  Name = 5289411
REMARK  6 active torsions:
REMARK  status: ('A' for Active; 'I' for Inactive)
REMARK    1  A    between atoms: N_3  and  C_9
REMARK    2  A    between atoms: C_4  and  O_25
REMARK    3  A    between atoms: C_5  and  N_24
REMARK    4  A    between atoms: C_12  and  C_17
REMARK    5  A    between atoms: O_25  and  C_26
REMARK    6  A    between atoms: C_26  and  C_27
REMARK                            x       y       z     vdW  Elec       q    Type
REMARK                         _______ _______ _______ _____ _____    ______ ____
ROOT
ATOM      1  N   UNL     1      33.491 -23.534 -14.706  0.00  0.00    -0.293 NA
ATOM      2  N   UNL     1      32.090 -23.942 -12.788  0.00  0.00    -0.316 NA
ATOM      3  N   UNL     1      34.392 -24.394 -12.718  0.00  0.00    -0.238 N 
ATOM      4  C   UNL     1      32.396 -23.101 -15.364  0.00  0.00    +0.292 C 
ATOM      5  C   UNL     1      31.133 -23.060 -14.813  0.00  0.00    +0.261 C 
ATOM      6  C   UNL     1      31.038 -23.497 -13.507  0.00  0.00    +0.196 C 
ATOM      7  C   UNL     1      33.269 -23.934 -13.439  0.00  0.00    +0.207 C 
ATOM      8  H   UNL     1      34.182 -24.677 -11.798  0.00  0.00    +0.166 HD
ATOM      9  N   UNL     1      29.773 -23.485 -12.868  0.00  0.00    -0.334 N 
ATOM     10  H   UNL     1      29.688 -23.794 -11.937  0.00  0.00    +0.144 HD
ATOM     11  H   UNL     1      28.979 -23.168 -13.355  0.00  0.00    +0.144 HD
ENDROOT
BRANCH   3  12
ATOM     12  C   UNL     1      35.751 -24.528 -13.055  0.00  0.00    +0.058 C 
ATOM     13  C   UNL     1      36.122 -25.226 -14.207  0.00  0.00    +0.015 C 
ATOM     14  C   UNL     1      36.734 -23.965 -12.239  0.00  0.00    +0.015 C 
ATOM     15  C   UNL     1      38.450 -24.796 -13.722  0.00  0.00    +0.053 C 
ATOM     16  C   UNL     1      37.471 -25.359 -14.539  0.00  0.00    +0.006 C 
ATOM     17  C   UNL     1      38.082 -24.098 -12.571  0.00  0.00    +0.006 C 
BRANCH  15  20
ATOM     18  O   UNL     1      40.589 -23.944 -14.215  0.00  0.00    -0.270 OA
ATOM     19  N   UNL     1      40.361 -26.225 -14.215  0.00  0.00    -0.325 N 
ATOM     20  C   UNL     1      39.855 -24.937 -14.069  0.00  0.00    +0.243 C 
ATOM     21  H   UNL     1      41.307 -26.359 -14.450  0.00  0.00    +0.145 HD
ATOM     22  H   UNL     1      39.771 -27.002 -14.084  0.00  0.00    +0.145 HD
ENDBRANCH  15  20
ENDBRANCH   3  12
BRANCH   5  24
ATOM     23  O   UNL     1      29.238 -23.504 -15.813  0.00  0.00    -0.099 OA
ATOM     24  N   UNL     1      30.048 -22.611 -15.526  0.00  0.00    -0.030 NA
ENDBRANCH   5  24
BRANCH   4  25
ATOM     25  O   UNL     1      32.603 -22.689 -16.658  0.00  0.00    -0.453 OA
BRANCH  25  26
ATOM     26  C   UNL     1      33.945 -22.599 -17.098  0.00  0.00    +0.208 C 
BRANCH  26  27
ATOM     27  C   UNL     1      33.955 -22.006 -18.505  0.00  0.00    +0.044 C 
ATOM     28  C   UNL     1      32.680 -21.191 -18.758  0.00  0.00    +0.004 C 
ATOM     29  C   UNL     1      35.206 -21.145 -18.722  0.00  0.00    +0.004 C 
ATOM     30  C   UNL     1      32.690 -20.543 -20.141  0.00  0.00    +0.000 C 
ATOM     31  C   UNL     1      35.213 -20.496 -20.104  0.00  0.00    +0.000 C 
ATOM     32  C   UNL     1      33.940 -19.694 -20.355  0.00  0.00    +0.000 C 
ENDBRANCH  26  27
ENDBRANCH  25  26
ENDBRANCH   4  25
TORSDOF 6
ENDMDL
MODEL 3
REMARK VINA RESULT:     -11.8      3.419      8.050
REMARK  Name = 5289411
REMARK  6 active torsions:
REMARK  status: ('A' for Active; 'I' for Inactive)
REMARK    1  A    between atoms: N_3  and  C_9
REMARK    2  A    between atoms: C_4  and  O_25
REMARK    3  A    between atoms: C_5  and  N_24
REMARK    4  A    between atoms: C_12  and  C_17
REMARK    5  A    between atoms: O_25  and  C_26
REMARK    6  A    between atoms: C_26  and  C_27
REMARK                            x       y       z     vdW  Elec       q    Type
REMARK                         _______ _______ _______ _____ _____    ______ ____
ROOT
ATOM      1  N   UNL     1      34.662 -23.335 -13.866  0.00  0.00    -0.293 NA
ATOM      2  N   UNL     1      36.992 -23.445 -13.261  0.00  0.00    -0.316 NA
ATOM      3  N   UNL     1      36.328 -22.614 -15.353  0.00  0.00    -0.238 N 
ATOM      4  C   UNL     1      34.364 -23.857 -12.659  0.00  0.00    +0.292 C 
ATOM      5  C   UNL     1      35.308 -24.195 -11.713  0.00  0.00    +0.261 C 
ATOM      6  C   UNL     1      36.621 -23.965 -12.072  0.00  0.00    +0.196 C 
ATOM      7  C   UNL     1      35.977 -23.158 -14.099  0.00  0.00    +0.207 C 
ATOM      8  H   UNL     1      37.299 -22.503 -15.478  0.00  0.00    +0.166 HD
ATOM      9  N   UNL     1      37.652 -24.285 -11.153  0.00  0.00    -0.334 N 
ATOM     10  H   UNL     1      38.593 -24.127 -11.394  0.00  0.00    +0.144 HD
ATOM     11  H   UNL     1      37.426 -24.666 -10.274  0.00  0.00    +0.144 HD
ENDROOT
BRANCH   3  12
ATOM     12  C   UNL     1      35.564 -22.198 -16.458  0.00  0.00    +0.058 C 
ATOM     13  C   UNL     1      36.158 -21.459 -17.483  0.00  0.00    +0.015 C 
ATOM     14  C   UNL     1      34.207 -22.522 -16.534  0.00  0.00    +0.015 C 
ATOM     15  C   UNL     1      34.045 -21.370 -18.650  0.00  0.00    +0.053 C 
ATOM     16  C   UNL     1      35.399 -21.045 -18.578  0.00  0.00    +0.006 C 
ATOM     17  C   UNL     1      33.448 -22.108 -17.629  0.00  0.00    +0.006 C 
BRANCH  15  20
ATOM     18  O   UNL     1      32.101 -21.362 -19.980  0.00  0.00    -0.270 OA
ATOM     19  N   UNL     1      33.824 -20.013 -20.663  0.00  0.00    -0.325 N 
ATOM     20  C   UNL     1      33.254 -20.937 -19.792  0.00  0.00    +0.243 C 
ATOM     21  H   UNL     1      33.318 -19.697 -21.446  0.00  0.00    +0.145 HD
ATOM     22  H   UNL     1      34.733 -19.675 -20.495  0.00  0.00    +0.145 HD
ENDBRANCH  15  20
ENDBRANCH   3  12
BRANCH   5  24
ATOM     23  O   UNL     1      35.184 -23.971  -9.540  0.00  0.00    -0.099 OA
ATOM     24  N   UNL     1      34.954 -24.725 -10.496  0.00  0.00    -0.030 NA
ENDBRANCH   5  24
BRANCH   4  25
ATOM     25  O   UNL     1      33.028 -24.045 -12.405  0.00  0.00    -0.453 OA
BRANCH  25  26
ATOM     26  C   UNL     1      32.139 -23.039 -12.854  0.00  0.00    +0.208 C 
BRANCH  26  27
ATOM     27  C   UNL     1      31.232 -23.637 -13.927  0.00  0.00    +0.044 C 
ATOM     28  C   UNL     1      30.155 -24.526 -13.290  0.00  0.00    +0.004 C 
ATOM     29  C   UNL     1      30.594 -22.531 -14.777  0.00  0.00    +0.004 C 
ATOM     30  C   UNL     1      29.201 -25.094 -14.340  0.00  0.00    +0.000 C 
ATOM     31  C   UNL     1      29.640 -23.101 -15.823  0.00  0.00    +0.000 C 
ATOM     32  C   UNL     1      28.576 -23.991 -15.187  0.00  0.00    +0.000 C 
ENDBRANCH  26  27
ENDBRANCH  25  26
ENDBRANCH   4  25
TORSDOF 6
ENDMDL
MODEL 4
REMARK VINA RESULT:     -11.7      2.675      6.604
REMARK  Name = 5289411
REMARK  6 active torsions:
REMARK  status: ('A' for Active; 'I' for Inactive)
REMARK    1  A    between atoms: N_3  and  C_9
REMARK    2  A    between atoms: C_4  and  O_25
REMARK    3  A    between atoms: C_5  and  N_24
REMARK    4  A    between atoms: C_12  and  C_17
REMARK    5  A    between atoms: O_25  and  C_26
REMARK    6  A    between atoms: C_26  and  C_27
REMARK                            x       y       z     vdW  Elec       q    Type
REMARK                         _______ _______ _______ _____ _____    ______ ____
ROOT
ATOM      1  N   UNL     1      34.023 -22.721 -15.598  0.00  0.00    -0.293 NA
ATOM      2  N   UNL     1      34.882 -23.350 -13.436  0.00  0.00    -0.316 NA
ATOM      3  N   UNL     1      32.588 -23.491 -13.910  0.00  0.00    -0.238 N 
ATOM      4  C   UNL     1      35.286 -22.425 -15.970  0.00  0.00    +0.292 C 
ATOM      5  C   UNL     1      36.382 -22.562 -15.145  0.00  0.00    +0.261 C 
ATOM      6  C   UNL     1      36.118 -23.034 -13.875  0.00  0.00    +0.196 C 
ATOM      7  C   UNL     1      33.895 -23.172 -14.335  0.00  0.00    +0.207 C 
ATOM      8  H   UNL     1      32.542 -23.816 -12.981  0.00  0.00    +0.166 HD
ATOM      9  N   UNL     1      37.194 -23.203 -12.968  0.00  0.00    -0.334 N 
ATOM     10  H   UNL     1      37.022 -23.539 -12.058  0.00  0.00    +0.144 HD
ATOM     11  H   UNL     1      38.112 -22.985 -13.247  0.00  0.00    +0.144 HD
ENDROOT
BRANCH   3  12
ATOM     12  C   UNL     1      31.338 -23.438 -14.552  0.00  0.00    +0.058 C 
ATOM     13  C   UNL     1      30.353 -24.382 -14.250  0.00  0.00    +0.015 C 
ATOM     14  C   UNL     1      31.076 -22.442 -15.496  0.00  0.00    +0.015 C 
ATOM     15  C   UNL     1      28.857 -23.334 -15.831  0.00  0.00    +0.053 C 
ATOM     16  C   UNL     1      29.114 -24.330 -14.889  0.00  0.00    +0.006 C 
ATOM     17  C   UNL     1      29.837 -22.390 -16.135  0.00  0.00    +0.006 C 
BRANCH  15  20
ATOM     18  O   UNL     1      27.166 -24.217 -17.213  0.00  0.00    -0.270 OA
ATOM     19  N   UNL     1      26.775 -22.153 -16.293  0.00  0.00    -0.325 N 
ATOM     20  C   UNL     1      27.565 -23.281 -16.497  0.00  0.00    +0.243 C 
ATOM     21  H   UNL     1      25.895 -22.083 -16.727  0.00  0.00    +0.145 HD
ATOM     22  H   UNL     1      27.098 -21.426 -15.713  0.00  0.00    +0.145 HD
ENDBRANCH  15  20
ENDBRANCH   3  12
BRANCH   5  24
ATOM     23  O   UNL     1      38.457 -23.181 -15.465  0.00  0.00    -0.099 OA
ATOM     24  N   UNL     1      37.649 -22.247 -15.572  0.00  0.00    -0.030 NA
ENDBRANCH   5  24
BRANCH   4  25
ATOM     25  O   UNL     1      35.435 -21.963 -17.254  0.00  0.00    -0.453 OA
BRANCH  25  26
ATOM     26  C   UNL     1      34.314 -22.069 -18.111  0.00  0.00    +0.208 C 
BRANCH  26  27
ATOM     27  C   UNL     1      34.610 -21.295 -19.394  0.00  0.00    +0.044 C 
ATOM     28  C   UNL     1      33.404 -20.436 -19.798  0.00  0.00    +0.004 C 
ATOM     29  C   UNL     1      35.865 -20.429 -19.229  0.00  0.00    +0.004 C 
ATOM     30  C   UNL     1      33.693 -19.610 -21.050  0.00  0.00    +0.000 C 
ATOM     31  C   UNL     1      36.152 -19.604 -20.481  0.00  0.00    +0.000 C 
ATOM     32  C   UNL     1      34.947 -18.758 -20.884  0.00  0.00    +0.000 C 
ENDBRANCH  26  27
ENDBRANCH  25  26
ENDBRANCH   4  25
TORSDOF 6
ENDMDL
MODEL 5
REMARK VINA RESULT:     -11.5      2.488      5.575
REMARK  Name = 5289411
REMARK  6 active torsions:
REMARK  status: ('A' for Active; 'I' for Inactive)
REMARK    1  A    between atoms: N_3  and  C_9
REMARK    2  A    between atoms: C_4  and  O_25
REMARK    3  A    between atoms: C_5  and  N_24
REMARK    4  A    between atoms: C_12  and  C_17
REMARK    5  A    between atoms: O_25  and  C_26
REMARK    6  A    between atoms: C_26  and  C_27
REMARK                            x       y       z     vdW  Elec       q    Type
REMARK                         _______ _______ _______ _____ _____    ______ ____
ROOT
ATOM      1  N   UNL     1      34.398 -22.316 -17.212  0.00  0.00    -0.293 NA
ATOM      2  N   UNL     1      35.709 -20.851 -18.606  0.00  0.00    -0.316 NA
ATOM      3  N   UNL     1      36.615 -21.790 -16.656  0.00  0.00    -0.238 N 
ATOM      4  C   UNL     1      33.372 -22.153 -18.073  0.00  0.00    +0.292 C 
ATOM      5  C   UNL     1      33.435 -21.369 -19.204  0.00  0.00    +0.261 C 
ATOM      6  C   UNL     1      34.641 -20.734 -19.424  0.00  0.00    +0.196 C 
ATOM      7  C   UNL     1      35.520 -21.645 -17.535  0.00  0.00    +0.207 C 
ATOM      8  H   UNL     1      37.413 -21.281 -16.931  0.00  0.00    +0.166 HD
ATOM      9  N   UNL     1      34.786 -19.909 -20.568  0.00  0.00    -0.334 N 
ATOM     10  H   UNL     1      35.640 -19.449 -20.738  0.00  0.00    +0.144 HD
ATOM     11  H   UNL     1      34.033 -19.796 -21.191  0.00  0.00    +0.144 HD
ENDROOT
BRANCH   3  12
ATOM     12  C   UNL     1      36.791 -22.517 -15.466  0.00  0.00    +0.058 C 
ATOM     13  C   UNL     1      37.908 -23.342 -15.306  0.00  0.00    +0.015 C 
ATOM     14  C   UNL     1      35.850 -22.421 -14.439  0.00  0.00    +0.015 C 
ATOM     15  C   UNL     1      37.139 -23.966 -13.103  0.00  0.00    +0.053 C 
ATOM     16  C   UNL     1      38.081 -24.065 -14.126  0.00  0.00    +0.006 C 
ATOM     17  C   UNL     1      36.023 -23.144 -13.259  0.00  0.00    +0.006 C 
BRANCH  15  20
ATOM     18  O   UNL     1      37.376 -24.155 -10.767  0.00  0.00    -0.270 OA
ATOM     19  N   UNL     1      37.409 -26.107 -11.970  0.00  0.00    -0.325 N 
ATOM     20  C   UNL     1      37.320 -24.721 -11.873  0.00  0.00    +0.243 C 
ATOM     21  H   UNL     1      37.532 -26.650 -11.159  0.00  0.00    +0.145 HD
ATOM     22  H   UNL     1      37.350 -26.542 -12.851  0.00  0.00    +0.145 HD
ENDBRANCH  15  20
ENDBRANCH   3  12
BRANCH   5  24
ATOM     23  O   UNL     1      31.792 -20.138 -19.962  0.00  0.00    -0.099 OA
ATOM     24  N   UNL     1      32.362 -21.235 -20.051  0.00  0.00    -0.030 NA
ENDBRANCH   5  24
BRANCH   4  25
ATOM     25  O   UNL     1      32.219 -22.830 -17.759  0.00  0.00    -0.453 OA
BRANCH  25  26
ATOM     26  C   UNL     1      31.460 -22.338 -16.671  0.00  0.00    +0.208 C 
BRANCH  26  27
ATOM     27  C   UNL     1      31.289 -23.462 -15.652  0.00  0.00    +0.044 C 
ATOM     28  C   UNL     1      32.012 -23.119 -14.342  0.00  0.00    +0.004 C 
ATOM     29  C   UNL     1      29.802 -23.742 -15.397  0.00  0.00    +0.004 C 
ATOM     30  C   UNL     1      31.811 -24.205 -13.287  0.00  0.00    +0.000 C 
ATOM     31  C   UNL     1      29.604 -24.827 -14.341  0.00  0.00    +0.000 C 
ATOM     32  C   UNL     1      30.332 -24.486 -13.044  0.00  0.00    +0.000 C 
ENDBRANCH  26  27
ENDBRANCH  25  26
ENDBRANCH   4  25
TORSDOF 6
ENDMDL
MODEL 6
REMARK VINA RESULT:     -11.4      2.736      7.597
REMARK  Name = 5289411
REMARK  6 active torsions:
REMARK  status: ('A' for Active; 'I' for Inactive)
REMARK    1  A    between atoms: N_3  and  C_9
REMARK    2  A    between atoms: C_4  and  O_25
REMARK    3  A    between atoms: C_5  and  N_24
REMARK    4  A    between atoms: C_12  and  C_17
REMARK    5  A    between atoms: O_25  and  C_26
REMARK    6  A    between atoms: C_26  and  C_27
REMARK                            x       y       z     vdW  Elec       q    Type
REMARK                         _______ _______ _______ _____ _____    ______ ____
ROOT
ATOM      1  N   UNL     1      33.164 -22.336 -16.310  0.00  0.00    -0.293 NA
ATOM      2  N   UNL     1      30.919 -23.173 -16.572  0.00  0.00    -0.316 NA
ATOM      3  N   UNL     1      31.955 -21.945 -18.282  0.00  0.00    -0.238 N 
ATOM      4  C   UNL     1      33.186 -22.891 -15.081  0.00  0.00    +0.292 C 
ATOM      5  C   UNL     1      32.131 -23.590 -14.534  0.00  0.00    +0.261 C 
ATOM      6  C   UNL     1      31.011 -23.701 -15.333  0.00  0.00    +0.196 C 
ATOM      7  C   UNL     1      32.015 -22.512 -16.991  0.00  0.00    +0.207 C 
ATOM      8  H   UNL     1      31.097 -22.098 -18.742  0.00  0.00    +0.166 HD
ATOM      9  N   UNL     1      29.884 -24.407 -14.842  0.00  0.00    -0.334 N 
ATOM     10  H   UNL     1      29.077 -24.495 -15.400  0.00  0.00    +0.144 HD
ATOM     11  H   UNL     1      29.908 -24.809 -13.944  0.00  0.00    +0.144 HD
ENDROOT
BRANCH   3  12
ATOM     12  C   UNL     1      32.879 -21.204 -19.041  0.00  0.00    +0.058 C 
ATOM     13  C   UNL     1      32.430 -20.235 -19.941  0.00  0.00    +0.015 C 
ATOM     14  C   UNL     1      34.249 -21.437 -18.899  0.00  0.00    +0.015 C 
ATOM     15  C   UNL     1      34.714 -19.737 -20.551  0.00  0.00    +0.053 C 
ATOM     16  C   UNL     1      33.347 -19.502 -20.695  0.00  0.00    +0.006 C 
ATOM     17  C   UNL     1      35.166 -20.704 -19.653  0.00  0.00    +0.006 C 
BRANCH  15  20
ATOM     18  O   UNL     1      35.461 -18.714 -22.537  0.00  0.00    -0.270 OA
ATOM     19  N   UNL     1      36.821 -18.521 -20.701  0.00  0.00    -0.325 N 
ATOM     20  C   UNL     1      35.669 -18.973 -21.338  0.00  0.00    +0.243 C 
ATOM     21  H   UNL     1      37.489 -18.001 -21.203  0.00  0.00    +0.145 HD
ATOM     22  H   UNL     1      36.966 -18.722 -19.749  0.00  0.00    +0.145 HD
ENDBRANCH  15  20
ENDBRANCH   3  12
BRANCH   5  24
ATOM     23  O   UNL     1      31.374 -23.668 -12.482  0.00  0.00    -0.099 OA
ATOM     24  N   UNL     1      32.202 -24.137 -13.276  0.00  0.00    -0.030 NA
ENDBRANCH   5  24
BRANCH   4  25
ATOM     25  O   UNL     1      34.349 -22.721 -14.371  0.00  0.00    -0.453 OA
BRANCH  25  26
ATOM     26  C   UNL     1      35.555 -22.679 -15.111  0.00  0.00    +0.208 C 
BRANCH  26  27
ATOM     27  C   UNL     1      36.514 -23.718 -14.535  0.00  0.00    +0.044 C 
ATOM     28  C   UNL     1      36.949 -23.325 -13.117  0.00  0.00    +0.004 C 
ATOM     29  C   UNL     1      35.873 -25.112 -14.543  0.00  0.00    +0.004 C 
ATOM     30  C   UNL     1      37.868 -24.376 -12.498  0.00  0.00    +0.000 C 
ATOM     31  C   UNL     1      36.793 -26.160 -13.922  0.00  0.00    +0.000 C 
ATOM     32  C   UNL     1      37.230 -25.761 -12.516  0.00  0.00    +0.000 C 
ENDBRANCH  26  27
ENDBRANCH  25  26
ENDBRANCH   4  25
TORSDOF 6
ENDMDL
MODEL 7
REMARK VINA RESULT:     -11.3      3.181      7.223
REMARK  Name = 5289411
REMARK  6 active torsions:
REMARK  status: ('A' for Active; 'I' for Inactive)
REMARK    1  A    between atoms: N_3  and  C_9
REMARK    2  A    between atoms: C_4  and  O_25
REMARK    3  A    between atoms: C_5  and  N_24
REMARK    4  A    between atoms: C_12  and  C_17
REMARK    5  A    between atoms: O_25  and  C_26
REMARK    6  A    between atoms: C_26  and  C_27
REMARK                            x       y       z     vdW  Elec       q    Type
REMARK                         _______ _______ _______ _____ _____    ______ ____
ROOT
ATOM      1  N   UNL     1      33.621 -23.044 -14.187  0.00  0.00    -0.293 NA
ATOM      2  N   UNL     1      33.948 -24.008 -12.002  0.00  0.00    -0.316 NA
ATOM      3  N   UNL     1      31.826 -23.978 -13.002  0.00  0.00    -0.238 N 
ATOM      4  C   UNL     1      34.939 -22.756 -14.214  0.00  0.00    +0.292 C 
ATOM      5  C   UNL     1      35.812 -23.056 -13.191  0.00  0.00    +0.261 C 
ATOM      6  C   UNL     1      35.256 -23.689 -12.098  0.00  0.00    +0.196 C 
ATOM      7  C   UNL     1      33.199 -23.661 -13.067  0.00  0.00    +0.207 C 
ATOM      8  H   UNL     1      31.562 -24.427 -12.165  0.00  0.00    +0.166 HD
ATOM      9  N   UNL     1      36.091 -24.031 -11.004  0.00  0.00    -0.334 N 
ATOM     10  H   UNL     1      35.709 -24.483 -10.216  0.00  0.00    +0.144 HD
ATOM     11  H   UNL     1      37.051 -23.818 -11.032  0.00  0.00    +0.144 HD
ENDROOT
BRANCH   3  12
ATOM     12  C   UNL     1      30.759 -23.779 -13.896  0.00  0.00    +0.058 C 
ATOM     13  C   UNL     1      30.115 -24.876 -14.474  0.00  0.00    +0.015 C 
ATOM     14  C   UNL     1      30.341 -22.485 -14.212  0.00  0.00    +0.015 C 
ATOM     15  C   UNL     1      28.643 -23.384 -15.677  0.00  0.00    +0.053 C 
ATOM     16  C   UNL     1      29.058 -24.678 -15.363  0.00  0.00    +0.006 C 
ATOM     17  C   UNL     1      29.284 -22.287 -15.101  0.00  0.00    +0.006 C 
BRANCH  15  20
ATOM     18  O   UNL     1      27.094 -24.112 -17.295  0.00  0.00    -0.270 OA
ATOM     19  N   UNL     1      26.989 -21.904 -16.684  0.00  0.00    -0.325 N 
ATOM     20  C   UNL     1      27.542 -23.179 -16.605  0.00  0.00    +0.243 C 
ATOM     21  H   UNL     1      26.243 -21.729 -17.300  0.00  0.00    +0.145 HD
ATOM     22  H   UNL     1      27.345 -21.179 -16.122  0.00  0.00    +0.145 HD
ENDBRANCH  15  20
ENDBRANCH   3  12
BRANCH   5  24
ATOM     23  O   UNL     1      37.548 -22.042 -12.324  0.00  0.00    -0.099 OA
ATOM     24  N   UNL     1      37.148 -22.741 -13.267  0.00  0.00    -0.030 NA
ENDBRANCH   5  24
BRANCH   4  25
ATOM     25  O   UNL     1      35.387 -22.126 -15.349  0.00  0.00    -0.453 OA
BRANCH  25  26
ATOM     26  C   UNL     1      35.043 -22.712 -16.590  0.00  0.00    +0.208 C 
BRANCH  26  27
ATOM     27  C   UNL     1      34.746 -21.595 -17.589  0.00  0.00    +0.044 C 
ATOM     28  C   UNL     1      35.954 -21.353 -18.503  0.00  0.00    +0.004 C 
ATOM     29  C   UNL     1      33.494 -21.923 -18.412  0.00  0.00    +0.004 C 
ATOM     30  C   UNL     1      35.663 -20.276 -19.547  0.00  0.00    +0.000 C 
ATOM     31  C   UNL     1      33.207 -20.846 -19.456  0.00  0.00    +0.000 C 
ATOM     32  C   UNL     1      34.413 -20.602 -20.357  0.00  0.00    +0.000 C 
ENDBRANCH  26  27
ENDBRANCH  25  26
ENDBRANCH   4  25
TORSDOF 6
ENDMDL
MODEL 8
REMARK VINA RESULT:     -10.9      2.828      8.406
REMARK  Name = 5289411
REMARK  6 active torsions:
REMARK  status: ('A' for Active; 'I' for Inactive)
REMARK    1  A    between atoms: N_3  and  C_9
REMARK    2  A    between atoms: C_4  and  O_25
REMARK    3  A    between atoms: C_5  and  N_24
REMARK    4  A    between atoms: C_12  and  C_17
REMARK    5  A    between atoms: O_25  and  C_26
REMARK    6  A    between atoms: C_26  and  C_27
REMARK                            x       y       z     vdW  Elec       q    Type
REMARK                         _______ _______ _______ _____ _____    ______ ____
ROOT
ATOM      1  N   UNL     1      34.717 -21.538 -18.270  0.00  0.00    -0.293 NA
ATOM      2  N   UNL     1      36.772 -21.245 -17.047  0.00  0.00    -0.316 NA
ATOM      3  N   UNL     1      36.348 -20.020 -19.002  0.00  0.00    -0.238 N 
ATOM      4  C   UNL     1      34.345 -22.453 -17.351  0.00  0.00    +0.292 C 
ATOM      5  C   UNL     1      35.120 -22.813 -16.268  0.00  0.00    +0.261 C 
ATOM      6  C   UNL     1      36.337 -22.169 -16.165  0.00  0.00    +0.196 C 
ATOM      7  C   UNL     1      35.925 -20.982 -18.060  0.00  0.00    +0.207 C 
ATOM      8  H   UNL     1      37.237 -19.641 -18.809  0.00  0.00    +0.166 HD
ATOM      9  N   UNL     1      37.191 -22.485 -15.078  0.00  0.00    -0.334 N 
ATOM     10  H   UNL     1      38.062 -22.035 -14.991  0.00  0.00    +0.144 HD
ATOM     11  H   UNL     1      36.912 -23.153 -14.412  0.00  0.00    +0.144 HD
ENDROOT
BRANCH   3  12
ATOM     12  C   UNL     1      35.750 -19.496 -20.162  0.00  0.00    +0.058 C 
ATOM     13  C   UNL     1      36.462 -18.617 -20.983  0.00  0.00    +0.015 C 
ATOM     14  C   UNL     1      34.442 -19.851 -20.498  0.00  0.00    +0.015 C 
ATOM     15  C   UNL     1      34.560 -18.453 -22.464  0.00  0.00    +0.053 C 
ATOM     16  C   UNL     1      35.867 -18.096 -22.132  0.00  0.00    +0.006 C 
ATOM     17  C   UNL     1      33.847 -19.330 -21.648  0.00  0.00    +0.006 C 
BRANCH  15  20
ATOM     18  O   UNL     1      33.210 -18.605 -24.388  0.00  0.00    -0.270 OA
ATOM     19  N   UNL     1      34.178 -16.571 -23.964  0.00  0.00    -0.325 N 
ATOM     20  C   UNL     1      33.941 -17.908 -23.663  0.00  0.00    +0.243 C 
ATOM     21  H   UNL     1      33.775 -16.168 -24.767  0.00  0.00    +0.145 HD
ATOM     22  H   UNL     1      34.749 -16.027 -23.374  0.00  0.00    +0.145 HD
ENDBRANCH  15  20
ENDBRANCH   3  12
BRANCH   5  24
ATOM     23  O   UNL     1      35.313 -24.825 -15.428  0.00  0.00    -0.099 OA
ATOM     24  N   UNL     1      34.696 -23.751 -15.359  0.00  0.00    -0.030 NA
ENDBRANCH   5  24
BRANCH   4  25
ATOM     25  O   UNL     1      33.116 -23.031 -17.549  0.00  0.00    -0.453 OA
BRANCH  25  26
ATOM     26  C   UNL     1      31.978 -22.242 -17.256  0.00  0.00    +0.208 C 
BRANCH  26  27
ATOM     27  C   UNL     1      31.192 -22.923 -16.137  0.00  0.00    +0.044 C 
ATOM     28  C   UNL     1      31.715 -22.483 -14.763  0.00  0.00    +0.004 C 
ATOM     29  C   UNL     1      29.692 -22.627 -16.270  0.00  0.00    +0.004 C 
ATOM     30  C   UNL     1      30.910 -23.109 -13.626  0.00  0.00    +0.000 C 
ATOM     31  C   UNL     1      28.890 -23.252 -15.132  0.00  0.00    +0.000 C 
ATOM     32  C   UNL     1      29.419 -22.819 -13.768  0.00  0.00    +0.000 C 
ENDBRANCH  26  27
ENDBRANCH  25  26
ENDBRANCH   4  25
TORSDOF 6
ENDMDL
MODEL 9
REMARK VINA RESULT:     -10.8      2.973      6.556
REMARK  Name = 5289411
REMARK  6 active torsions:
REMARK  status: ('A' for Active; 'I' for Inactive)
REMARK    1  A    between atoms: N_3  and  C_9
REMARK    2  A    between atoms: C_4  and  O_25
REMARK    3  A    between atoms: C_5  and  N_24
REMARK    4  A    between atoms: C_12  and  C_17
REMARK    5  A    between atoms: O_25  and  C_26
REMARK    6  A    between atoms: C_26  and  C_27
REMARK                            x       y       z     vdW  Elec       q    Type
REMARK                         _______ _______ _______ _____ _____    ______ ____
ROOT
ATOM      1  N   UNL     1      33.959 -21.481 -18.242  0.00  0.00    -0.293 NA
ATOM      2  N   UNL     1      32.645 -20.381 -19.937  0.00  0.00    -0.316 NA
ATOM      3  N   UNL     1      31.615 -21.531 -18.170  0.00  0.00    -0.238 N 
ATOM      4  C   UNL     1      35.068 -21.062 -18.886  0.00  0.00    +0.292 C 
ATOM      5  C   UNL     1      35.049 -20.311 -20.042  0.00  0.00    +0.261 C 
ATOM      6  C   UNL     1      33.796 -19.996 -20.528  0.00  0.00    +0.196 C 
ATOM      7  C   UNL     1      32.798 -21.110 -18.815  0.00  0.00    +0.207 C 
ATOM      8  H   UNL     1      30.791 -21.238 -18.624  0.00  0.00    +0.166 HD
ATOM      9  N   UNL     1      33.692 -19.226 -21.713  0.00  0.00    -0.334 N 
ATOM     10  H   UNL     1      32.805 -18.993 -22.073  0.00  0.00    +0.144 HD
ATOM     11  H   UNL     1      34.506 -18.924 -22.177  0.00  0.00    +0.144 HD
ENDROOT
BRANCH   3  12
ATOM     12  C   UNL     1      31.382 -22.286 -17.006  0.00  0.00    +0.058 C 
ATOM     13  C   UNL     1      30.074 -22.523 -16.574  0.00  0.00    +0.015 C 
ATOM     14  C   UNL     1      32.456 -22.801 -16.277  0.00  0.00    +0.015 C 
ATOM     15  C   UNL     1      30.919 -23.782 -14.693  0.00  0.00    +0.053 C 
ATOM     16  C   UNL     1      29.844 -23.270 -15.419  0.00  0.00    +0.006 C 
ATOM     17  C   UNL     1      32.225 -23.548 -15.122  0.00  0.00    +0.006 C 
BRANCH  15  20
ATOM     18  O   UNL     1      31.585 -24.782 -12.668  0.00  0.00    -0.270 OA
ATOM     19  N   UNL     1      29.388 -25.036 -13.271  0.00  0.00    -0.325 N 
ATOM     20  C   UNL     1      30.677 -24.560 -13.488  0.00  0.00    +0.243 C 
ATOM     21  H   UNL     1      29.187 -25.566 -12.467  0.00  0.00    +0.145 HD
ATOM     22  H   UNL     1      28.676 -24.842 -13.923  0.00  0.00    +0.145 HD
ENDBRANCH  15  20
ENDBRANCH   3  12
BRANCH   5  24
ATOM     23  O   UNL     1      36.487 -18.717 -20.465  0.00  0.00    -0.099 OA
ATOM     24  N   UNL     1      36.208 -19.909 -20.660  0.00  0.00    -0.030 NA
ENDBRANCH   5  24
BRANCH   4  25
ATOM     25  O   UNL     1      36.262 -21.431 -18.316  0.00  0.00    -0.453 OA
BRANCH  25  26
ATOM     26  C   UNL     1      36.507 -20.994 -16.993  0.00  0.00    +0.208 C 
BRANCH  26  27
ATOM     27  C   UNL     1      36.457 -22.205 -16.065  0.00  0.00    +0.044 C 
ATOM     28  C   UNL     1      37.874 -22.640 -15.666  0.00  0.00    +0.004 C 
ATOM     29  C   UNL     1      35.609 -21.902 -14.822  0.00  0.00    +0.004 C 
ATOM     30  C   UNL     1      37.849 -23.819 -14.695  0.00  0.00    +0.000 C 
ATOM     31  C   UNL     1      35.588 -23.081 -13.852  0.00  0.00    +0.000 C 
ATOM     32  C   UNL     1      36.998 -23.516 -13.466  0.00  0.00    +0.000 C 
ENDBRANCH  26  27
ENDBRANCH  25  26
ENDBRANCH   4  25
TORSDOF 6
ENDMDL
